@<TRIPOS>MOLECULE
*****
 39 41 0 0 0
SMALL
GASTEIGER

@<TRIPOS>ATOM
      1 C           2.4955    0.8315    2.7197 C.3     1  UNL1       -0.0420
      2 C           2.6472    0.1019    1.4211 C.3     1  UNL1        0.0520
      3 N           1.3363   -0.3138    0.8802 N.am    1  UNL1       -0.3041
      4 C           1.0698   -1.6475    0.5367 C.2     1  UNL1        0.2497
      5 O           2.0788   -2.4388    0.7452 O.2     1  UNL1       -0.2700
      6 C          -0.1501   -2.2040    0.0016 C.ar    1  UNL1        0.0985
      7 C          -0.2407   -3.5728   -0.2864 C.ar    1  UNL1       -0.0430
      8 C          -1.3792   -4.1512   -0.7968 C.ar    1  UNL1       -0.0426
      9 C          -2.4761   -3.3466   -1.0338 C.ar    1  UNL1        0.0314
     10 N          -2.4017   -2.0382   -0.7629 N.ar    1  UNL1       -0.2204
     11 C          -1.2612   -1.4627   -0.2523 C.ar    1  UNL1        0.2327
     12 O          -1.3200   -0.1245   -0.0229 O.3     1  UNL1       -0.4373
     13 C          -2.4598    0.5998   -0.2902 C.ar    1  UNL1        0.1306
     14 C          -3.4587    0.7929    0.6383 C.ar    1  UNL1       -0.0166
     15 C          -4.5998    1.5181    0.3704 C.ar    1  UNL1       -0.0230
     16 C          -4.7499    2.0690   -0.8638 C.ar    1  UNL1        0.1236
     17 F          -5.8757    2.7802   -1.1169 F       1  UNL1       -0.2055
     18 C          -3.7715    1.9003   -1.8269 C.ar    1  UNL1       -0.0230
     19 C          -2.6284    1.1711   -1.5514 C.ar    1  UNL1       -0.0166
     20 C           3.2748    0.9854    0.3741 C.ar    1  UNL1        0.0097
     21 C           4.5269    0.9986   -0.1063 C.ar    1  UNL1       -0.0498
     22 C           4.8962    1.8686   -1.0443 C.ar    1  UNL1       -0.0544
     23 C           3.9346    2.7554   -1.5001 C.ar    1  UNL1       -0.0240
     24 S           2.4851    2.2721   -0.5137 S.2     1  UNL1       -0.0998
     25 H           1.5158    1.2965    2.8706 H       1  UNL1        0.0251
     26 H           3.2723    1.6503    2.7579 H       1  UNL1        0.0251
     27 H           2.7828    0.1376    3.5573 H       1  UNL1        0.0251
     28 H           3.3197   -0.7766    1.4944 H       1  UNL1        0.0551
     29 H           0.5984    0.3968    0.7523 H       1  UNL1        0.1496
     30 H           0.6399   -4.1695   -0.0868 H       1  UNL1        0.0627
     31 H          -1.4345   -5.2182   -1.0158 H       1  UNL1        0.0633
     32 H          -3.3841   -3.7910   -1.4377 H       1  UNL1        0.0831
     33 H          -3.3036    0.3375    1.6138 H       1  UNL1        0.0655
     34 H          -5.3528    1.6384    1.1369 H       1  UNL1        0.0647
     35 H          -3.9139    2.3451   -2.7930 H       1  UNL1        0.0647
     36 H          -1.8708    1.0464   -2.3128 H       1  UNL1        0.0655
     37 H           5.2722    0.2540    0.2997 H       1  UNL1        0.0626
     38 H           5.9313    1.9250   -1.4832 H       1  UNL1        0.0623
     39 H           3.9550    3.5827   -2.2683 H       1  UNL1        0.0693
@<TRIPOS>BOND
     1     1     2    1
     2     2     3    1
     3     3     4   am
     4     4     5    2
     5     4     6    1
     6     6     7   ar
     7     7     8   ar
     8     8     9   ar
     9     9    10   ar
    10    10    11   ar
    11    11    12    1
    12    12    13    1
    13    13    14   ar
    14    14    15   ar
    15    15    16   ar
    16    16    17    1
    17    16    18   ar
    18    18    19   ar
    19     2    20    1
    20    20    21   ar
    21    21    22   ar
    22    22    23   ar
    23    23    24   ar
    24    11     6   ar
    25    19    13   ar
    26    24    20   ar
    27     1    25    1
    28     1    26    1
    29     1    27    1
    30     2    28    1
    31     3    29    1
    32     7    30    1
    33     8    31    1
    34     9    32    1
    35    14    33    1
    36    15    34    1
    37    18    35    1
    38    19    36    1
    39    21    37    1
    40    22    38    1
    41    23    39    1
