
     RDKit          3D

 27 30  0  0  0  0  0  0  0  0999 V2000
   -1.3732   -3.3244    0.1139 O   0  0  0  0  0  0  0  0  0  0  0  0
   -1.2802   -2.0677    0.1399 C   0  0  0  0  0  0  0  0  0  0  0  0
   -2.3718   -1.1097    0.2482 C   0  0  0  0  0  0  0  0  0  0  0  0
   -3.7419   -1.2384    0.3490 C   0  0  0  0  0  0  0  0  0  0  0  0
   -4.5662   -0.1222    0.4411 C   0  0  0  0  0  0  0  0  0  0  0  0
   -3.9913    1.1323    0.4305 C   0  0  0  0  0  0  0  0  0  0  0  0
   -2.6270    1.2242    0.3291 C   0  0  0  0  0  0  0  0  0  0  0  0
   -1.7991    0.1295    0.2373 C   0  0  0  0  0  0  0  0  0  0  0  0
   -0.3823   -0.0111    0.1259 N   0  0  0  0  0  0  0  0  0  0  0  0
   -0.0331   -1.2969    0.0654 C   0  0  0  0  0  0  0  0  0  0  0  0
    1.2692   -1.6541   -0.0431 N   0  0  0  0  0  0  0  0  0  0  0  0
    2.2543   -0.7389   -0.0938 C   0  0  0  0  0  0  0  0  0  0  0  0
    3.5908   -1.0873   -0.2047 C   0  0  0  0  0  0  0  0  0  0  0  0
    4.5942   -0.1304   -0.2557 C   0  0  0  0  0  0  0  0  0  0  0  0
    4.2694    1.2117   -0.1956 C   0  0  0  0  0  0  0  0  0  0  0  0
    2.9269    1.5575   -0.0844 C   0  0  0  0  0  0  0  0  0  0  0  0
    1.9312    0.6027   -0.0339 C   0  0  0  0  0  0  0  0  0  0  0  0
    0.5948    0.9258    0.0763 C   0  0  0  0  0  0  0  0  0  0  0  0
    0.2933    2.1570    0.1317 O   0  0  0  0  0  0  0  0  0  0  0  0
   -4.2086   -2.2209    0.3586 H   0  0  0  0  0  0  0  0  0  0  0  0
   -5.6498   -0.2103    0.5212 H   0  0  0  0  0  0  0  0  0  0  0  0
   -4.6154    2.0237    0.5015 H   0  0  0  0  0  0  0  0  0  0  0  0
   -2.1267    2.2029    0.3169 H   0  0  0  0  0  0  0  0  0  0  0  0
    3.8155   -2.1346   -0.2494 H   0  0  0  0  0  0  0  0  0  0  0  0
    5.6176   -0.4167   -0.3411 H   0  0  0  0  0  0  0  0  0  0  0  0
    5.0016    2.0070   -0.2303 H   0  0  0  0  0  0  0  0  0  0  0  0
    2.6076    2.5891   -0.0329 H   0  0  0  0  0  0  0  0  0  0  0  0
  1  2  2  0
  2  3  1  0
  3  4  2  0
  4  5  1  0
  5  6  2  0
  6  7  1  0
  7  8  2  0
  8  9  1  0
  9 10  1  0
 10 11  2  0
 11 12  1  0
 12 13  2  0
 13 14  1  0
 14 15  2  0
 15 16  1  0
 16 17  2  0
 17 18  1  0
 18 19  2  0
 10  2  1  0
 17 12  1  0
  8  3  1  0
 18  9  1  0
  4 20  1  0
  5 21  1  0
  6 22  1  0
  7 23  1  0
 13 24  1  0
 14 25  1  0
 15 26  1  0
 16 27  1  0
M  END
$$$$
