@<TRIPOS>MOLECULE
*****
 27 30 0 0 0
SMALL
GASTEIGER

@<TRIPOS>ATOM
      1 O          -1.3732   -3.3244    0.1139 O.2     1  UNL1       -0.2833
      2 C          -1.2802   -2.0677    0.1399 C.2     1  UNL1        0.2306
      3 C          -2.3718   -1.1097    0.2482 C.ar    1  UNL1        0.0493
      4 C          -3.7419   -1.2384    0.3490 C.ar    1  UNL1       -0.0488
      5 C          -4.5662   -0.1222    0.4411 C.ar    1  UNL1       -0.0610
      6 C          -3.9913    1.1323    0.4305 C.ar    1  UNL1       -0.0598
      7 C          -2.6270    1.2242    0.3291 C.ar    1  UNL1       -0.0370
      8 C          -1.7991    0.1295    0.2373 C.ar    1  UNL1        0.0625
      9 N          -0.3823   -0.0111    0.1259 N.ar    1  UNL1       -0.2571
     10 C          -0.0331   -1.2969    0.0654 C.ar    1  UNL1        0.1895
     11 N           1.2692   -1.6541   -0.0431 N.ar    1  UNL1       -0.2254
     12 C           2.2543   -0.7389   -0.0938 C.ar    1  UNL1        0.0786
     13 C           3.5908   -1.0873   -0.2047 C.ar    1  UNL1       -0.0355
     14 C           4.5942   -0.1304   -0.2557 C.ar    1  UNL1       -0.0597
     15 C           4.2694    1.2117   -0.1956 C.ar    1  UNL1       -0.0609
     16 C           2.9269    1.5575   -0.0844 C.ar    1  UNL1       -0.0473
     17 C           1.9312    0.6027   -0.0339 C.ar    1  UNL1        0.0653
     18 C           0.5948    0.9258    0.0763 C.ar    1  UNL1        0.2666
     19 O           0.2933    2.1570    0.1317 O.2     1  UNL1       -0.2666
     20 H          -4.2086   -2.2209    0.3586 H       1  UNL1        0.0625
     21 H          -5.6498   -0.2103    0.5212 H       1  UNL1        0.0618
     22 H          -4.6154    2.0237    0.5015 H       1  UNL1        0.0618
     23 H          -2.1267    2.2029    0.3169 H       1  UNL1        0.0638
     24 H           3.8155   -2.1346   -0.2494 H       1  UNL1        0.0639
     25 H           5.6176   -0.4167   -0.3411 H       1  UNL1        0.0618
     26 H           5.0016    2.0070   -0.2303 H       1  UNL1        0.0618
     27 H           2.6076    2.5891   -0.0329 H       1  UNL1        0.0626
@<TRIPOS>BOND
     1     1     2    2
     2     2     3    1
     3     3     4   ar
     4     4     5   ar
     5     5     6   ar
     6     6     7   ar
     7     7     8   ar
     8     8     9    1
     9     9    10   ar
    10    10    11   ar
    11    11    12   ar
    12    12    13   ar
    13    13    14   ar
    14    14    15   ar
    15    15    16   ar
    16    16    17   ar
    17    17    18   ar
    18    18    19    2
    19    10     2    1
    20    17    12   ar
    21     8     3   ar
    22    18     9   ar
    23     4    20    1
    24     5    21    1
    25     6    22    1
    26     7    23    1
    27    13    24    1
    28    14    25    1
    29    15    26    1
    30    16    27    1
