@<TRIPOS>MOLECULE
*****
 44 46 0 0 0
SMALL
GASTEIGER

@<TRIPOS>ATOM
      1 N          -1.7921   -3.1104   -1.2880 N.pl3   1  UNL1       -0.3134
      2 C          -2.2556   -1.9324   -0.6890 C.2     1  UNL1        0.2766
      3 N          -2.1809   -0.8352   -1.3306 N.2     1  UNL1       -0.2228
      4 C          -2.6449    0.4513   -0.7763 C.3     1  UNL1        0.1258
      5 C          -3.0383    1.2211   -2.0520 C.3     1  UNL1        0.1196
      6 F          -3.5044    2.4483   -1.7254 F       1  UNL1       -0.2462
      7 C          -1.5190    1.1100   -0.1760 C.ar    1  UNL1        0.0196
      8 C          -0.2713    0.5333   -0.2521 C.ar    1  UNL1       -0.0322
      9 C           0.8918    1.1018    0.2737 C.ar    1  UNL1        0.0342
     10 N           2.1291    0.3897    0.1227 N.am    1  UNL1       -0.2802
     11 C           3.3888    0.7999    0.5814 C.2     1  UNL1        0.2666
     12 O           3.5308    1.8738    1.1876 O.2     1  UNL1       -0.2682
     13 C           4.5970   -0.0276    0.3626 C.ar    1  UNL1        0.1257
     14 C           5.8182    0.4061    0.8267 C.ar    1  UNL1       -0.0301
     15 C           6.9891   -0.3055    0.6634 C.ar    1  UNL1       -0.0441
     16 C           6.9058   -1.5220   -0.0087 C.ar    1  UNL1        0.0360
     17 BR          8.4490   -2.6059   -0.3027 Br      1  UNL1       -0.0487
     18 C           5.6803   -1.9165   -0.4525 C.ar    1  UNL1        0.0424
     19 N           4.5465   -1.1972   -0.2780 N.ar    1  UNL1       -0.2493
     20 C           0.7678    2.3118    0.9031 C.ar    1  UNL1       -0.0377
     21 C          -0.4784    2.9342    1.0046 C.ar    1  UNL1       -0.0243
     22 C          -1.5987    2.3201    0.4628 C.ar    1  UNL1        0.1291
     23 F          -2.8201    2.8786    0.5658 F       1  UNL1       -0.2051
     24 C          -3.8617    0.2110   -0.0039 C.3     1  UNL1        0.0251
     25 C          -3.7813   -0.9552    0.9656 C.3     1  UNL1        0.1998
     26 C          -5.1177   -1.6804    1.0296 C.3     1  UNL1        0.4266
     27 F          -6.0398   -0.7199    1.4688 F       1  UNL1       -0.1669
     28 F          -5.0802   -2.6488    1.9878 F       1  UNL1       -0.1669
     29 F          -5.5077   -2.1384   -0.2081 F       1  UNL1       -0.1669
     30 O          -2.8056   -1.8876    0.5948 O.2     1  UNL1       -0.4534
     31 H          -0.9831   -3.6256   -0.8943 H       1  UNL1        0.1466
     32 H          -2.2557   -3.4824   -2.1368 H       1  UNL1        0.1466
     33 H          -2.1948    1.2397   -2.7748 H       1  UNL1        0.0643
     34 H          -3.8965    0.6259   -2.4796 H       1  UNL1        0.0643
     35 H          -0.1314   -0.4383   -0.7499 H       1  UNL1        0.0640
     36 H           2.1315   -0.5491   -0.3834 H       1  UNL1        0.1552
     37 H           5.8636    1.3590    1.3494 H       1  UNL1        0.0641
     38 H           7.9438    0.0365    1.0278 H       1  UNL1        0.0630
     39 H           5.6180   -2.8779   -0.9829 H       1  UNL1        0.0841
     40 H           1.6149    2.8086    1.3302 H       1  UNL1        0.0637
     41 H          -0.5751    3.8971    1.5058 H       1  UNL1        0.0647
     42 H          -4.3100    1.1033    0.4806 H       1  UNL1        0.0331
     43 H          -4.6577   -0.1062   -0.7481 H       1  UNL1        0.0331
     44 H          -3.5641   -0.6303    1.9983 H       1  UNL1        0.0826
@<TRIPOS>BOND
     1     1     2    1
     2     2     3    2
     3     3     4    1
     4     4     5    1
     5     5     6    1
     6     4     7    1
     7     7     8   ar
     8     8     9   ar
     9     9    10    1
    10    10    11   am
    11    11    12    2
    12    11    13    1
    13    13    14   ar
    14    14    15   ar
    15    15    16   ar
    16    16    17    1
    17    16    18   ar
    18    18    19   ar
    19     9    20   ar
    20    20    21   ar
    21    21    22   ar
    22    22    23    1
    23     4    24    1
    24    24    25    1
    25    25    26    1
    26    26    27    1
    27    26    28    1
    28    26    29    1
    29    25    30    1
    30    30     2    1
    31    22     7   ar
    32    19    13   ar
    33     1    31    1
    34     1    32    1
    35     5    33    1
    36     5    34    1
    37     8    35    1
    38    10    36    1
    39    14    37    1
    40    15    38    1
    41    18    39    1
    42    20    40    1
    43    21    41    1
    44    24    42    1
    45    24    43    1
    46    25    44    1
