
     RDKit          3D

 44 46  0  0  0  0  0  0  0  0999 V2000
   -1.7921   -3.1104   -1.2880 N   0  0  0  0  0  0  0  0  0  0  0  0
   -2.2556   -1.9324   -0.6890 C   0  0  0  0  0  0  0  0  0  0  0  0
   -2.1809   -0.8352   -1.3306 N   0  0  0  0  0  0  0  0  0  0  0  0
   -2.6449    0.4513   -0.7763 C   0  0  2  0  0  0  0  0  0  0  0  0
   -3.0383    1.2211   -2.0520 C   0  0  0  0  0  0  0  0  0  0  0  0
   -3.5044    2.4483   -1.7254 F   0  0  0  0  0  0  0  0  0  0  0  0
   -1.5190    1.1100   -0.1760 C   0  0  0  0  0  0  0  0  0  0  0  0
   -0.2713    0.5333   -0.2521 C   0  0  0  0  0  0  0  0  0  0  0  0
    0.8918    1.1018    0.2737 C   0  0  0  0  0  0  0  0  0  0  0  0
    2.1291    0.3897    0.1227 N   0  0  0  0  0  0  0  0  0  0  0  0
    3.3888    0.7999    0.5814 C   0  0  0  0  0  0  0  0  0  0  0  0
    3.5308    1.8738    1.1876 O   0  0  0  0  0  0  0  0  0  0  0  0
    4.5970   -0.0276    0.3626 C   0  0  0  0  0  0  0  0  0  0  0  0
    5.8182    0.4061    0.8267 C   0  0  0  0  0  0  0  0  0  0  0  0
    6.9891   -0.3055    0.6634 C   0  0  0  0  0  0  0  0  0  0  0  0
    6.9058   -1.5220   -0.0087 C   0  0  0  0  0  0  0  0  0  0  0  0
    8.4490   -2.6059   -0.3027 Br  0  0  0  0  0  0  0  0  0  0  0  0
    5.6803   -1.9165   -0.4525 C   0  0  0  0  0  0  0  0  0  0  0  0
    4.5465   -1.1972   -0.2780 N   0  0  0  0  0  0  0  0  0  0  0  0
    0.7678    2.3118    0.9031 C   0  0  0  0  0  0  0  0  0  0  0  0
   -0.4784    2.9342    1.0046 C   0  0  0  0  0  0  0  0  0  0  0  0
   -1.5987    2.3201    0.4628 C   0  0  0  0  0  0  0  0  0  0  0  0
   -2.8201    2.8786    0.5658 F   0  0  0  0  0  0  0  0  0  0  0  0
   -3.8617    0.2110   -0.0039 C   0  0  0  0  0  0  0  0  0  0  0  0
   -3.7813   -0.9552    0.9656 C   0  0  1  0  0  0  0  0  0  0  0  0
   -5.1177   -1.6804    1.0296 C   0  0  0  0  0  0  0  0  0  0  0  0
   -6.0398   -0.7199    1.4688 F   0  0  0  0  0  0  0  0  0  0  0  0
   -5.0802   -2.6488    1.9878 F   0  0  0  0  0  0  0  0  0  0  0  0
   -5.5077   -2.1384   -0.2081 F   0  0  0  0  0  0  0  0  0  0  0  0
   -2.8056   -1.8876    0.5948 O   0  0  0  0  0  0  0  0  0  0  0  0
   -0.9831   -3.6256   -0.8943 H   0  0  0  0  0  0  0  0  0  0  0  0
   -2.2557   -3.4824   -2.1368 H   0  0  0  0  0  0  0  0  0  0  0  0
   -2.1948    1.2397   -2.7748 H   0  0  0  0  0  0  0  0  0  0  0  0
   -3.8965    0.6259   -2.4796 H   0  0  0  0  0  0  0  0  0  0  0  0
   -0.1314   -0.4383   -0.7499 H   0  0  0  0  0  0  0  0  0  0  0  0
    2.1315   -0.5491   -0.3834 H   0  0  0  0  0  0  0  0  0  0  0  0
    5.8636    1.3590    1.3494 H   0  0  0  0  0  0  0  0  0  0  0  0
    7.9438    0.0365    1.0278 H   0  0  0  0  0  0  0  0  0  0  0  0
    5.6180   -2.8779   -0.9829 H   0  0  0  0  0  0  0  0  0  0  0  0
    1.6149    2.8086    1.3302 H   0  0  0  0  0  0  0  0  0  0  0  0
   -0.5751    3.8971    1.5058 H   0  0  0  0  0  0  0  0  0  0  0  0
   -4.3100    1.1033    0.4806 H   0  0  0  0  0  0  0  0  0  0  0  0
   -4.6577   -0.1062   -0.7481 H   0  0  0  0  0  0  0  0  0  0  0  0
   -3.5641   -0.6303    1.9983 H   0  0  0  0  0  0  0  0  0  0  0  0
  1  2  1  0
  2  3  2  0
  3  4  1  0
  4  5  1  6
  5  6  1  0
  4  7  1  0
  7  8  2  0
  8  9  1  0
  9 10  1  0
 10 11  1  0
 11 12  2  0
 11 13  1  0
 13 14  2  0
 14 15  1  0
 15 16  2  0
 16 17  1  0
 16 18  1  0
 18 19  2  0
  9 20  2  0
 20 21  1  0
 21 22  2  0
 22 23  1  0
  4 24  1  0
 24 25  1  0
 25 26  1  0
 26 27  1  0
 26 28  1  0
 26 29  1  0
 25 30  1  0
 30  2  1  0
 22  7  1  0
 19 13  1  0
  1 31  1  0
  1 32  1  0
  5 33  1  0
  5 34  1  0
  8 35  1  0
 10 36  1  0
 14 37  1  0
 15 38  1  0
 18 39  1  0
 20 40  1  0
 21 41  1  0
 24 42  1  0
 24 43  1  0
 25 44  1  1
M  END
$$$$
