@<TRIPOS>MOLECULE
*****
 49 54 0 0 0
SMALL
GASTEIGER

@<TRIPOS>ATOM
      1 O           1.9306   -1.6869    2.3642 O.2     1  UNL1       -0.2881
      2 C           2.2139   -1.1381    1.2964 C.2     1  UNL1        0.2079
      3 C           3.3978   -1.3876    0.4514 C.ar    1  UNL1        0.0317
      4 C           4.5385   -2.1465    0.7066 C.ar    1  UNL1       -0.0505
      5 C           5.5112   -2.2206   -0.2599 C.ar    1  UNL1       -0.0611
      6 C           5.3592   -1.5545   -1.4611 C.ar    1  UNL1       -0.0611
      7 C           4.2401   -0.7995   -1.7323 C.ar    1  UNL1       -0.0505
      8 C           3.2536   -0.7295   -0.7422 C.ar    1  UNL1        0.0317
      9 C           1.9674   -0.0086   -0.7531 C.2     1  UNL1        0.2079
     10 O           1.4968    0.5378   -1.7670 O.2     1  UNL1       -0.2881
     11 C           1.4296   -0.0854    0.5931 C.3     1  UNL1        0.2248
     12 O           1.5759    1.0646    1.3190 O.3     1  UNL1       -0.3404
     13 C           0.4114    1.8061    1.2455 C.3     1  UNL1        0.1163
     14 C           0.5384    2.7227    0.0820 C.ar    1  UNL1       -0.0143
     15 C           1.7234    3.4161   -0.1184 C.ar    1  UNL1       -0.0558
     16 C           1.8862    4.2720   -1.1748 C.ar    1  UNL1       -0.0614
     17 C           0.8479    4.4519   -2.0641 C.ar    1  UNL1       -0.0617
     18 C          -0.3483    3.7652   -1.8798 C.ar    1  UNL1       -0.0614
     19 C          -0.5003    2.9081   -0.8149 C.ar    1  UNL1       -0.0558
     20 C          -0.6499    0.7778    1.0346 C.ar    1  UNL1        0.0574
     21 C          -0.0199   -0.3717    0.6400 C.ar    1  UNL1        0.0704
     22 C          -1.0020   -1.3491    0.4400 C.ar    1  UNL1        0.2074
     23 O          -0.7161   -2.6487    0.0316 O.3     1  UNL1       -0.4929
     24 N          -2.1593   -0.7694    0.7140 N.ar    1  UNL1       -0.2510
     25 C          -3.4158   -1.4412    0.6305 C.ar    1  UNL1        0.0541
     26 C          -3.8123   -2.1145   -0.5156 C.ar    1  UNL1       -0.0362
     27 C          -5.0330   -2.7581   -0.5714 C.ar    1  UNL1       -0.0400
     28 C          -5.8761   -2.7435    0.5049 C.ar    1  UNL1        0.0594
     29 CL         -7.4241   -3.5469    0.4627 Cl      1  UNL1       -0.0820
     30 C          -5.5192   -2.0916    1.6473 C.ar    1  UNL1        0.0612
     31 CL         -6.5635   -2.0354    3.0710 Cl      1  UNL1       -0.0820
     32 C          -4.2969   -1.4520    1.6926 C.ar    1  UNL1       -0.0179
     33 C          -2.0155    0.5142    1.0788 C.ar    1  UNL1        0.2066
     34 O          -2.9733    1.4553    1.4410 O.3     1  UNL1       -0.4929
     35 H           4.6564   -2.6652    1.6420 H       1  UNL1        0.0625
     36 H           6.4255   -2.8104   -0.0919 H       1  UNL1        0.0618
     37 H           6.1640   -1.6417   -2.2088 H       1  UNL1        0.0618
     38 H           4.1160   -0.2692   -2.6864 H       1  UNL1        0.0625
     39 H           0.2007    2.3630    2.1822 H       1  UNL1        0.0700
     40 H           2.5620    3.2965    0.5663 H       1  UNL1        0.0621
     41 H           2.8099    4.8106   -1.3289 H       1  UNL1        0.0618
     42 H           0.9296    5.1147   -2.9100 H       1  UNL1        0.0618
     43 H          -1.1382    3.9373   -2.6037 H       1  UNL1        0.0618
     44 H          -1.4182    2.3718   -0.6618 H       1  UNL1        0.0621
     45 H           0.0752   -2.8371   -0.5733 H       1  UNL1        0.2937
     46 H          -3.1844   -2.1484   -1.3723 H       1  UNL1        0.0639
     47 H          -5.3258   -3.2827   -1.4841 H       1  UNL1        0.0633
     48 H          -4.0309   -0.9409    2.6049 H       1  UNL1        0.0653
     49 H          -2.8384    2.0888    2.2305 H       1  UNL1        0.2937
@<TRIPOS>BOND
     1     1     2    2
     2     2     3    1
     3     3     4   ar
     4     4     5   ar
     5     5     6   ar
     6     6     7   ar
     7     7     8   ar
     8     8     9    1
     9     9    10    2
    10     9    11    1
    11    11    12    1
    12    12    13    1
    13    13    14    1
    14    14    15   ar
    15    15    16   ar
    16    16    17   ar
    17    17    18   ar
    18    18    19   ar
    19    13    20    1
    20    20    21   ar
    21    21    22   ar
    22    22    23    1
    23    22    24   ar
    24    24    25    1
    25    25    26   ar
    26    26    27   ar
    27    27    28   ar
    28    28    29    1
    29    28    30   ar
    30    30    31    1
    31    30    32   ar
    32    24    33   ar
    33    33    34    1
    34    11     2    1
    35    19    14   ar
    36    33    20   ar
    37     8     3   ar
    38    21    11    1
    39    32    25   ar
    40     4    35    1
    41     5    36    1
    42     6    37    1
    43     7    38    1
    44    13    39    1
    45    15    40    1
    46    16    41    1
    47    17    42    1
    48    18    43    1
    49    19    44    1
    50    23    45    1
    51    26    46    1
    52    27    47    1
    53    32    48    1
    54    34    49    1
