
     RDKit          3D

 49 54  0  0  0  0  0  0  0  0999 V2000
    1.9306   -1.6869    2.3642 O   0  0  0  0  0  0  0  0  0  0  0  0
    2.2139   -1.1381    1.2964 C   0  0  0  0  0  0  0  0  0  0  0  0
    3.3978   -1.3876    0.4514 C   0  0  0  0  0  0  0  0  0  0  0  0
    4.5385   -2.1465    0.7066 C   0  0  0  0  0  0  0  0  0  0  0  0
    5.5112   -2.2206   -0.2599 C   0  0  0  0  0  0  0  0  0  0  0  0
    5.3592   -1.5545   -1.4611 C   0  0  0  0  0  0  0  0  0  0  0  0
    4.2401   -0.7995   -1.7323 C   0  0  0  0  0  0  0  0  0  0  0  0
    3.2536   -0.7295   -0.7422 C   0  0  0  0  0  0  0  0  0  0  0  0
    1.9674   -0.0086   -0.7531 C   0  0  0  0  0  0  0  0  0  0  0  0
    1.4968    0.5378   -1.7670 O   0  0  0  0  0  0  0  0  0  0  0  0
    1.4296   -0.0854    0.5931 C   0  0  0  0  0  0  0  0  0  0  0  0
    1.5759    1.0646    1.3190 O   0  0  0  0  0  0  0  0  0  0  0  0
    0.4114    1.8061    1.2455 C   0  0  0  0  0  0  0  0  0  0  0  0
    0.5384    2.7227    0.0820 C   0  0  0  0  0  0  0  0  0  0  0  0
    1.7234    3.4161   -0.1184 C   0  0  0  0  0  0  0  0  0  0  0  0
    1.8862    4.2720   -1.1748 C   0  0  0  0  0  0  0  0  0  0  0  0
    0.8479    4.4519   -2.0641 C   0  0  0  0  0  0  0  0  0  0  0  0
   -0.3483    3.7652   -1.8798 C   0  0  0  0  0  0  0  0  0  0  0  0
   -0.5003    2.9081   -0.8149 C   0  0  0  0  0  0  0  0  0  0  0  0
   -0.6499    0.7778    1.0346 C   0  0  0  0  0  0  0  0  0  0  0  0
   -0.0199   -0.3717    0.6400 C   0  0  0  0  0  0  0  0  0  0  0  0
   -1.0020   -1.3491    0.4400 C   0  0  0  0  0  0  0  0  0  0  0  0
   -0.7161   -2.6487    0.0316 O   0  0  0  0  0  0  0  0  0  0  0  0
   -2.1593   -0.7694    0.7140 N   0  0  0  0  0  0  0  0  0  0  0  0
   -3.4158   -1.4412    0.6305 C   0  0  0  0  0  0  0  0  0  0  0  0
   -3.8123   -2.1145   -0.5156 C   0  0  0  0  0  0  0  0  0  0  0  0
   -5.0330   -2.7581   -0.5714 C   0  0  0  0  0  0  0  0  0  0  0  0
   -5.8761   -2.7435    0.5049 C   0  0  0  0  0  0  0  0  0  0  0  0
   -7.4241   -3.5469    0.4627 Cl  0  0  0  0  0  0  0  0  0  0  0  0
   -5.5192   -2.0916    1.6473 C   0  0  0  0  0  0  0  0  0  0  0  0
   -6.5635   -2.0354    3.0710 Cl  0  0  0  0  0  0  0  0  0  0  0  0
   -4.2969   -1.4520    1.6926 C   0  0  0  0  0  0  0  0  0  0  0  0
   -2.0155    0.5142    1.0788 C   0  0  0  0  0  0  0  0  0  0  0  0
   -2.9733    1.4553    1.4410 O   0  0  0  0  0  0  0  0  0  0  0  0
    4.6564   -2.6652    1.6420 H   0  0  0  0  0  0  0  0  0  0  0  0
    6.4255   -2.8104   -0.0919 H   0  0  0  0  0  0  0  0  0  0  0  0
    6.1640   -1.6417   -2.2088 H   0  0  0  0  0  0  0  0  0  0  0  0
    4.1160   -0.2692   -2.6864 H   0  0  0  0  0  0  0  0  0  0  0  0
    0.2007    2.3630    2.1822 H   0  0  0  0  0  0  0  0  0  0  0  0
    2.5620    3.2965    0.5663 H   0  0  0  0  0  0  0  0  0  0  0  0
    2.8099    4.8106   -1.3289 H   0  0  0  0  0  0  0  0  0  0  0  0
    0.9296    5.1147   -2.9100 H   0  0  0  0  0  0  0  0  0  0  0  0
   -1.1382    3.9373   -2.6037 H   0  0  0  0  0  0  0  0  0  0  0  0
   -1.4182    2.3718   -0.6618 H   0  0  0  0  0  0  0  0  0  0  0  0
    0.0752   -2.8371   -0.5733 H   0  0  0  0  0  0  0  0  0  0  0  0
   -3.1844   -2.1484   -1.3723 H   0  0  0  0  0  0  0  0  0  0  0  0
   -5.3258   -3.2827   -1.4841 H   0  0  0  0  0  0  0  0  0  0  0  0
   -4.0309   -0.9409    2.6049 H   0  0  0  0  0  0  0  0  0  0  0  0
   -2.8384    2.0888    2.2305 H   0  0  0  0  0  0  0  0  0  0  0  0
  1  2  2  0
  2  3  1  0
  3  4  2  0
  4  5  1  0
  5  6  2  0
  6  7  1  0
  7  8  2  0
  8  9  1  0
  9 10  2  0
  9 11  1  0
 11 12  1  0
 12 13  1  0
 13 14  1  0
 14 15  2  0
 15 16  1  0
 16 17  2  0
 17 18  1  0
 18 19  2  0
 13 20  1  0
 20 21  1  0
 21 22  2  0
 22 23  1  0
 22 24  1  0
 24 25  1  0
 25 26  2  0
 26 27  1  0
 27 28  2  0
 28 29  1  0
 28 30  1  0
 30 31  1  0
 30 32  2  0
 24 33  1  0
 33 34  1  0
 11  2  1  0
 19 14  1  0
 33 20  2  0
  8  3  1  0
 21 11  1  0
 32 25  1  0
  4 35  1  0
  5 36  1  0
  6 37  1  0
  7 38  1  0
 13 39  1  0
 15 40  1  0
 16 41  1  0
 17 42  1  0
 18 43  1  0
 19 44  1  0
 23 45  1  0
 26 46  1  0
 27 47  1  0
 32 48  1  0
 34 49  1  0
M  END
$$$$
