@<TRIPOS>MOLECULE
*****
 55 58 0 0 0
SMALL
GASTEIGER

@<TRIPOS>ATOM
      1 C           6.2235   -2.8337   -0.9216 C.3     1  UNL1        0.0788
      2 O           4.9764   -2.1857   -0.9962 O.3     1  UNL1       -0.4946
      3 C           4.5761   -1.1367   -0.2059 C.ar    1  UNL1        0.1316
      4 C           5.3672   -0.5911    0.7638 C.ar    1  UNL1       -0.0005
      5 C           4.9131    0.4582    1.5236 C.ar    1  UNL1        0.0195
      6 C           5.7172    1.0960    2.5898 C.3     1  UNL1       -0.0242
      7 N           3.6720    0.9276    1.2836 N.ar    1  UNL1       -0.3260
      8 C           2.8610    0.4186    0.3390 C.ar    1  UNL1        0.2571
      9 O           1.7273    0.9214    0.1925 O.2     1  UNL1       -0.2674
     10 C           3.2955   -0.6308   -0.4325 C.ar    1  UNL1        0.0756
     11 C           2.4472   -1.2196   -1.4683 C.3     1  UNL1        0.0487
     12 N           1.1868   -0.5554   -1.6618 N.am    1  UNL1       -0.2925
     13 C           1.0786    0.4957   -2.6356 C.3     1  UNL1        0.0194
     14 C          -0.0127    1.4743   -2.4360 C.3     1  UNL1       -0.0097
     15 C          -1.1866    0.9868   -1.6667 C.ar    1  UNL1       -0.0141
     16 C          -2.3723    1.7275   -1.6765 C.ar    1  UNL1        0.0453
     17 CL         -2.3834    3.1930   -2.6294 Cl      1  UNL1       -0.0832
     18 C          -3.4653    1.3007   -0.9609 C.ar    1  UNL1       -0.0360
     19 C          -3.4742    0.1525   -0.2073 C.ar    1  UNL1        0.0020
     20 C          -4.6654   -0.2578    0.5378 C.3     1  UNL1        0.0917
     21 O          -5.8612    0.0378   -0.1139 O.3     1  UNL1       -0.3747
     22 C          -6.6269   -1.0988   -0.3661 C.3     1  UNL1        0.0372
     23 C          -4.7444    0.3125    1.9221 C.3     1  UNL1        0.0362
     24 C          -4.7758    1.7984    2.0481 C.3     1  UNL1        0.0553
     25 O          -4.0540    1.6527    3.2571 O.3     1  UNL1       -0.3789
     26 C          -3.4236    0.5631    2.6098 C.3     1  UNL1        0.0553
     27 C          -2.3029   -0.5760   -0.1997 C.ar    1  UNL1        0.0590
     28 CL         -2.1959   -2.0732    0.7359 Cl      1  UNL1       -0.0824
     29 C          -1.1860   -0.1657   -0.9148 C.ar    1  UNL1        0.0601
     30 C           0.0453   -0.9429   -0.9260 C.2     1  UNL1        0.2486
     31 O           0.0223   -2.0041   -0.2218 O.2     1  UNL1       -0.2699
     32 H           6.1747   -3.6904   -1.6564 H       1  UNL1        0.0660
     33 H           6.4026   -3.2860    0.0955 H       1  UNL1        0.0660
     34 H           7.0669   -2.1918   -1.1955 H       1  UNL1        0.0660
     35 H           6.3585   -0.9953    0.9267 H       1  UNL1        0.0671
     36 H           6.7951    1.0044    2.4107 H       1  UNL1        0.0292
     37 H           5.4115    2.1693    2.6552 H       1  UNL1        0.0292
     38 H           5.4139    0.6385    3.5627 H       1  UNL1        0.0292
     39 H           3.3027    1.7366    1.8592 H       1  UNL1        0.1686
     40 H           3.0633   -1.2016   -2.4197 H       1  UNL1        0.0517
     41 H           2.3064   -2.3187   -1.2731 H       1  UNL1        0.0517
     42 H           2.0518    1.0839   -2.6283 H       1  UNL1        0.0468
     43 H           1.0807    0.0643   -3.6852 H       1  UNL1        0.0468
     44 H          -0.3439    1.8032   -3.4633 H       1  UNL1        0.0329
     45 H           0.3889    2.4227   -1.9851 H       1  UNL1        0.0329
     46 H          -4.3495    1.9363   -1.0233 H       1  UNL1        0.0636
     47 H          -4.6669   -1.3813    0.6774 H       1  UNL1        0.0651
     48 H          -6.0866   -1.8160   -1.0008 H       1  UNL1        0.0524
     49 H          -6.9951   -1.5547    0.5778 H       1  UNL1        0.0524
     50 H          -7.5277   -0.7624   -0.9268 H       1  UNL1        0.0524
     51 H          -5.5004   -0.2064    2.5162 H       1  UNL1        0.0374
     52 H          -5.7923    2.2388    2.2302 H       1  UNL1        0.0564
     53 H          -4.1378    2.3231    1.3332 H       1  UNL1        0.0564
     54 H          -2.6603    0.9524    1.9331 H       1  UNL1        0.0564
     55 H          -3.1354   -0.2142    3.3173 H       1  UNL1        0.0564
@<TRIPOS>BOND
     1     1     2    1
     2     2     3    1
     3     3     4   ar
     4     4     5   ar
     5     5     6    1
     6     5     7   ar
     7     7     8   ar
     8     8     9    2
     9     8    10   ar
    10    10    11    1
    11    11    12    1
    12    12    13    1
    13    13    14    1
    14    14    15    1
    15    15    16   ar
    16    16    17    1
    17    16    18   ar
    18    18    19   ar
    19    19    20    1
    20    20    21    1
    21    21    22    1
    22    20    23    1
    23    23    24    1
    24    24    25    1
    25    25    26    1
    26    19    27   ar
    27    27    28    1
    28    27    29   ar
    29    29    30    1
    30    30    31    2
    31    10     3   ar
    32    30    12   am
    33    29    15   ar
    34    26    23    1
    35     1    32    1
    36     1    33    1
    37     1    34    1
    38     4    35    1
    39     6    36    1
    40     6    37    1
    41     6    38    1
    42     7    39    1
    43    11    40    1
    44    11    41    1
    45    13    42    1
    46    13    43    1
    47    14    44    1
    48    14    45    1
    49    18    46    1
    50    20    47    1
    51    22    48    1
    52    22    49    1
    53    22    50    1
    54    23    51    1
    55    24    52    1
    56    24    53    1
    57    26    54    1
    58    26    55    1
