@<TRIPOS>MOLECULE
*****
 29 31 0 0 0
SMALL
GASTEIGER

@<TRIPOS>ATOM
      1 N          -4.7504   -1.0379   -0.3320 N.pl3   1  UNL1       -0.3289
      2 C          -3.7599   -0.0195   -0.1625 C.ar    1  UNL1        0.1942
      3 N          -4.0750    1.2844    0.0713 N.ar    1  UNL1       -0.1758
      4 C          -3.0702    2.1913    0.2209 C.ar    1  UNL1        0.2985
      5 O          -3.3614    3.4001    0.4377 O.2     1  UNL1       -0.2635
      6 C          -1.7563    1.7457    0.1281 C.ar    1  UNL1        0.1304
      7 C          -1.4464    0.4081   -0.1116 C.ar    1  UNL1        0.0756
      8 N          -2.4809   -0.4393   -0.2504 N.ar    1  UNL1       -0.3258
      9 C          -0.0529    0.3359   -0.1392 C.ar    1  UNL1       -0.0016
     10 C           0.5710   -0.9945   -0.3810 C.3     1  UNL1        0.0024
     11 C           2.0539   -0.9126   -0.3822 C.ar    1  UNL1       -0.0249
     12 C           2.8749   -0.6752   -1.4650 C.ar    1  UNL1        0.0310
     13 N           4.2035   -0.6227   -1.3481 N.ar    1  UNL1       -0.2630
     14 C           4.7848   -0.8056   -0.1371 C.ar    1  UNL1        0.0276
     15 C           4.0245   -1.0467    0.9853 C.ar    1  UNL1       -0.0433
     16 C           2.6504   -1.1017    0.8688 C.ar    1  UNL1       -0.0554
     17 C           0.4237    1.6048    0.0800 C.ar    1  UNL1        0.0078
     18 N          -0.6058    2.4592    0.2420 N.ar    1  UNL1       -0.3549
     19 H          -5.1632   -1.5807   -1.1186 H       1  UNL1        0.1451
     20 H          -5.0222   -1.1412    0.6873 H       1  UNL1        0.1451
     21 H          -2.2490   -1.4588   -0.4331 H       1  UNL1        0.1686
     22 H           0.2513   -1.7725    0.3232 H       1  UNL1        0.0363
     23 H           0.2398   -1.2789   -1.4225 H       1  UNL1        0.0363
     24 H           2.3646   -0.5358   -2.4088 H       1  UNL1        0.0832
     25 H           5.8533   -0.7813    0.0578 H       1  UNL1        0.0829
     26 H           4.4594   -1.1974    1.9691 H       1  UNL1        0.0633
     27 H           2.0659   -1.2915    1.7569 H       1  UNL1        0.0621
     28 H           1.4906    1.7804    0.0997 H       1  UNL1        0.0810
     29 H          -0.5182    3.4840    0.4222 H       1  UNL1        0.1655
@<TRIPOS>BOND
     1     1     2    1
     2     2     3   ar
     3     3     4   ar
     4     4     5    2
     5     4     6   ar
     6     6     7   ar
     7     7     8   ar
     8     7     9   ar
     9     9    10    1
    10    10    11    1
    11    11    12   ar
    12    12    13   ar
    13    13    14   ar
    14    14    15   ar
    15    15    16   ar
    16     9    17   ar
    17    17    18   ar
    18     8     2   ar
    19    16    11   ar
    20    18     6   ar
    21     1    19    1
    22     1    20    1
    23     8    21    1
    24    10    22    1
    25    10    23    1
    26    12    24    1
    27    14    25    1
    28    15    26    1
    29    16    27    1
    30    17    28    1
    31    18    29    1
