
     RDKit          3D

 29 31  0  0  0  0  0  0  0  0999 V2000
   -4.7504   -1.0379   -0.3320 N   0  0  0  0  0  0  0  0  0  0  0  0
   -3.7599   -0.0195   -0.1625 C   0  0  0  0  0  0  0  0  0  0  0  0
   -4.0750    1.2844    0.0713 N   0  0  0  0  0  0  0  0  0  0  0  0
   -3.0702    2.1913    0.2209 C   0  0  0  0  0  0  0  0  0  0  0  0
   -3.3614    3.4001    0.4377 O   0  0  0  0  0  0  0  0  0  0  0  0
   -1.7563    1.7457    0.1281 C   0  0  0  0  0  0  0  0  0  0  0  0
   -1.4464    0.4081   -0.1116 C   0  0  0  0  0  0  0  0  0  0  0  0
   -2.4809   -0.4393   -0.2504 N   0  0  0  0  0  0  0  0  0  0  0  0
   -0.0529    0.3359   -0.1392 C   0  0  0  0  0  0  0  0  0  0  0  0
    0.5710   -0.9945   -0.3810 C   0  0  0  0  0  0  0  0  0  0  0  0
    2.0539   -0.9126   -0.3822 C   0  0  0  0  0  0  0  0  0  0  0  0
    2.8749   -0.6752   -1.4650 C   0  0  0  0  0  0  0  0  0  0  0  0
    4.2035   -0.6227   -1.3481 N   0  0  0  0  0  0  0  0  0  0  0  0
    4.7848   -0.8056   -0.1371 C   0  0  0  0  0  0  0  0  0  0  0  0
    4.0245   -1.0467    0.9853 C   0  0  0  0  0  0  0  0  0  0  0  0
    2.6504   -1.1017    0.8688 C   0  0  0  0  0  0  0  0  0  0  0  0
    0.4237    1.6048    0.0800 C   0  0  0  0  0  0  0  0  0  0  0  0
   -0.6058    2.4592    0.2420 N   0  0  0  0  0  0  0  0  0  0  0  0
   -5.1632   -1.5807   -1.1186 H   0  0  0  0  0  0  0  0  0  0  0  0
   -5.0222   -1.1412    0.6873 H   0  0  0  0  0  0  0  0  0  0  0  0
   -2.2490   -1.4588   -0.4331 H   0  0  0  0  0  0  0  0  0  0  0  0
    0.2513   -1.7725    0.3232 H   0  0  0  0  0  0  0  0  0  0  0  0
    0.2398   -1.2789   -1.4225 H   0  0  0  0  0  0  0  0  0  0  0  0
    2.3646   -0.5358   -2.4088 H   0  0  0  0  0  0  0  0  0  0  0  0
    5.8533   -0.7813    0.0578 H   0  0  0  0  0  0  0  0  0  0  0  0
    4.4594   -1.1974    1.9691 H   0  0  0  0  0  0  0  0  0  0  0  0
    2.0659   -1.2915    1.7569 H   0  0  0  0  0  0  0  0  0  0  0  0
    1.4906    1.7804    0.0997 H   0  0  0  0  0  0  0  0  0  0  0  0
   -0.5182    3.4840    0.4222 H   0  0  0  0  0  0  0  0  0  0  0  0
  1  2  1  0
  2  3  2  0
  3  4  1  0
  4  5  2  0
  4  6  1  0
  6  7  2  0
  7  8  1  0
  7  9  1  0
  9 10  1  0
 10 11  1  0
 11 12  2  0
 12 13  1  0
 13 14  2  0
 14 15  1  0
 15 16  2  0
  9 17  2  0
 17 18  1  0
  8  2  1  0
 16 11  1  0
 18  6  1  0
  1 19  1  0
  1 20  1  0
  8 21  1  0
 10 22  1  0
 10 23  1  0
 12 24  1  0
 14 25  1  0
 15 26  1  0
 16 27  1  0
 17 28  1  0
 18 29  1  0
M  END
$$$$
