@<TRIPOS>MOLECULE
*****
 43 45 0 0 0
SMALL
GASTEIGER

@<TRIPOS>ATOM
      1 C          -2.0508   -1.9592    0.5717 C.3     1  UNL1        0.0138
      2 C          -3.1795   -2.2797   -0.4158 C.3     1  UNL1       -0.0358
      3 C          -3.1566   -1.0331   -1.2652 C.3     1  UNL1       -0.0350
      4 C          -2.5118   -0.0035   -0.3822 C.3     1  UNL1        0.0268
      5 C          -1.0928    0.3368   -0.8343 C.3     1  UNL1        0.1087
      6 C          -0.1549   -0.8212   -0.6668 C.3     1  UNL1        0.1191
      7 C          -0.7523   -2.0741   -0.1348 C.3     1  UNL1        0.0008
      8 O           1.0642   -0.4480   -0.0434 O.3     1  UNL1       -0.4569
      9 C           2.2920   -0.4267   -0.6445 C.2     1  UNL1        0.3395
     10 O           2.4176   -0.7568   -1.8572 O.2     1  UNL1       -0.2450
     11 C           3.5083   -0.0314    0.0569 C.ar    1  UNL1        0.0590
     12 C           4.7107   -0.0408   -0.6363 C.ar    1  UNL1       -0.0478
     13 C           5.8303    0.3453    0.0863 C.ar    1  UNL1       -0.0610
     14 C           5.7217    0.7099    1.4092 C.ar    1  UNL1       -0.0617
     15 C           4.5193    0.7142    2.0848 C.ar    1  UNL1       -0.0610
     16 C           3.3959    0.3329    1.3813 C.ar    1  UNL1       -0.0478
     17 C          -0.6947    1.5158   -0.0265 C.2     1  UNL1        0.3150
     18 O           0.2013    1.7724    0.7837 O.2     1  UNL1       -0.2504
     19 O          -1.5444    2.6175   -0.2292 O.3     1  UNL1       -0.4676
     20 C          -1.3173    3.8523    0.4680 C.3     1  UNL1        0.0817
     21 N          -2.3702   -0.6123    0.9159 N.3     1  UNL1       -0.2984
     22 C          -3.5582   -0.4622    1.6838 C.3     1  UNL1       -0.0122
     23 H          -2.1102   -2.6606    1.4351 H       1  UNL1        0.0464
     24 H          -2.8215   -3.1740   -0.9970 H       1  UNL1        0.0281
     25 H          -4.1283   -2.4815    0.0784 H       1  UNL1        0.0281
     26 H          -2.4857   -1.2339   -2.1277 H       1  UNL1        0.0281
     27 H          -4.1664   -0.7255   -1.5980 H       1  UNL1        0.0281
     28 H          -3.1025    0.9011   -0.2474 H       1  UNL1        0.0472
     29 H          -1.2071    0.6914   -1.8807 H       1  UNL1        0.0466
     30 H           0.2056   -1.0625   -1.7010 H       1  UNL1        0.0743
     31 H          -0.8854   -2.8706   -0.9134 H       1  UNL1        0.0316
     32 H          -0.0159   -2.5635    0.5700 H       1  UNL1        0.0316
     33 H           4.7770   -0.3299   -1.6745 H       1  UNL1        0.0626
     34 H           6.8164    0.3664   -0.3826 H       1  UNL1        0.0618
     35 H           6.5946    1.0057    1.9544 H       1  UNL1        0.0618
     36 H           4.3798    0.9908    3.1201 H       1  UNL1        0.0618
     37 H           2.4127    0.3199    1.8763 H       1  UNL1        0.0626
     38 H          -0.2925    4.2133    0.3596 H       1  UNL1        0.0661
     39 H          -1.9923    4.5888   -0.0155 H       1  UNL1        0.0661
     40 H          -1.6581    3.7674    1.5233 H       1  UNL1        0.0661
     41 H          -3.6700   -1.1863    2.5041 H       1  UNL1        0.0391
     42 H          -4.4627   -0.3413    1.0493 H       1  UNL1        0.0391
     43 H          -3.4658    0.5369    2.2031 H       1  UNL1        0.0391
@<TRIPOS>BOND
     1     1     2    1
     2     2     3    1
     3     3     4    1
     4     4     5    1
     5     5     6    1
     6     6     7    1
     7     6     8    1
     8     8     9    1
     9     9    10    2
    10     9    11    1
    11    11    12   ar
    12    12    13   ar
    13    13    14   ar
    14    14    15   ar
    15    15    16   ar
    16     5    17    1
    17    17    18    2
    18    17    19    1
    19    19    20    1
    20     4    21    1
    21    21    22    1
    22     7     1    1
    23    16    11   ar
    24    21     1    1
    25     1    23    1
    26     2    24    1
    27     2    25    1
    28     3    26    1
    29     3    27    1
    30     4    28    1
    31     5    29    1
    32     6    30    1
    33     7    31    1
    34     7    32    1
    35    12    33    1
    36    13    34    1
    37    14    35    1
    38    15    36    1
    39    16    37    1
    40    20    38    1
    41    20    39    1
    42    20    40    1
    43    22    41    1
    44    22    42    1
    45    22    43    1
