@<TRIPOS>MOLECULE
*****
 45 47 0 0 0
SMALL
GASTEIGER

@<TRIPOS>ATOM
      1 C          -6.2238    0.0192   -0.6058 C.3     1  UNL1       -0.0650
      2 C          -5.4916   -1.0370   -1.3712 C.3     1  UNL1       -0.0518
      3 C          -4.5395   -1.8394   -0.5188 C.3     1  UNL1       -0.0244
      4 C          -3.4931   -1.0521    0.1192 C.ar    1  UNL1       -0.0037
      5 C          -3.5680   -0.7474    1.4567 C.ar    1  UNL1       -0.0331
      6 C          -2.5791   -0.0001    2.0826 C.ar    1  UNL1        0.0842
      7 CL         -2.7034    0.3683    3.7782 Cl      1  UNL1       -0.0797
      8 C          -1.4840    0.4564    1.3518 C.ar    1  UNL1        0.1572
      9 O          -0.4344    1.1622    1.6830 O.2     1  UNL1       -0.4575
     10 C           0.3635    1.3608    0.6406 C.ar    1  UNL1        0.1137
     11 C           1.6069    2.1210    0.7520 C.3     1  UNL1        0.0310
     12 C           2.8445    1.3452    0.8223 C.ar    1  UNL1       -0.0399
     13 C           3.6250    1.2171   -0.3033 C.ar    1  UNL1       -0.0547
     14 C           4.8078    0.4894   -0.3213 C.ar    1  UNL1       -0.0197
     15 C           5.2497   -0.1445    0.8191 C.ar    1  UNL1        0.1201
     16 O           6.4311   -0.8900    0.8588 O.3     1  UNL1       -0.4951
     17 C           7.3002   -1.0958   -0.2047 C.3     1  UNL1        0.0788
     18 C           4.4599   -0.0103    1.9443 C.ar    1  UNL1       -0.0197
     19 C           3.2890    0.7092    1.9639 C.ar    1  UNL1       -0.0547
     20 C          -0.2300    0.7326   -0.4263 C.ar    1  UNL1        0.0021
     21 C           0.2765    0.6833   -1.7994 C.3     1  UNL1       -0.0357
     22 C          -1.4289    0.1358   -0.0032 C.ar    1  UNL1        0.0664
     23 C          -2.4188   -0.6060   -0.6053 C.ar    1  UNL1        0.1311
     24 O          -2.3334   -0.9045   -1.9443 O.3     1  UNL1       -0.5058
     25 H          -5.5461    0.8896   -0.4296 H       1  UNL1        0.0230
     26 H          -7.0366    0.4040   -1.2703 H       1  UNL1        0.0230
     27 H          -6.7023   -0.3546    0.3068 H       1  UNL1        0.0230
     28 H          -6.2439   -1.7749   -1.7717 H       1  UNL1        0.0266
     29 H          -5.0063   -0.5805   -2.2429 H       1  UNL1        0.0266
     30 H          -4.1344   -2.6524   -1.1849 H       1  UNL1        0.0314
     31 H          -5.1721   -2.3983    0.2274 H       1  UNL1        0.0314
     32 H          -4.4024   -1.0854    2.0540 H       1  UNL1        0.0637
     33 H           1.6064    2.7835    1.6710 H       1  UNL1        0.0392
     34 H           1.7309    2.8679   -0.0818 H       1  UNL1        0.0392
     35 H           3.3457    1.6979   -1.2539 H       1  UNL1        0.0622
     36 H           5.3913    0.4120   -1.2232 H       1  UNL1        0.0654
     37 H           6.8944   -0.9373   -1.2027 H       1  UNL1        0.0660
     38 H           8.1571   -0.3743   -0.0691 H       1  UNL1        0.0660
     39 H           7.7710   -2.1129   -0.1380 H       1  UNL1        0.0660
     40 H           4.8199   -0.5181    2.8447 H       1  UNL1        0.0654
     41 H           2.6807    0.8080    2.8484 H       1  UNL1        0.0622
     42 H          -0.1525    1.5540   -2.3621 H       1  UNL1        0.0279
     43 H           1.3521    0.5988   -1.9141 H       1  UNL1        0.0279
     44 H          -0.1423   -0.2503   -2.2824 H       1  UNL1        0.0279
     45 H          -2.5366   -0.2611   -2.6944 H       1  UNL1        0.2922
@<TRIPOS>BOND
     1     1     2    1
     2     2     3    1
     3     3     4    1
     4     4     5   ar
     5     5     6   ar
     6     6     7    1
     7     6     8   ar
     8     8     9   ar
     9     9    10   ar
    10    10    11    1
    11    11    12    1
    12    12    13   ar
    13    13    14   ar
    14    14    15   ar
    15    15    16    1
    16    16    17    1
    17    15    18   ar
    18    18    19   ar
    19    10    20   ar
    20    20    21    1
    21    20    22   ar
    22    22    23   ar
    23    23    24    1
    24    23     4   ar
    25    22     8   ar
    26    19    12   ar
    27     1    25    1
    28     1    26    1
    29     1    27    1
    30     2    28    1
    31     2    29    1
    32     3    30    1
    33     3    31    1
    34     5    32    1
    35    11    33    1
    36    11    34    1
    37    13    35    1
    38    14    36    1
    39    17    37    1
    40    17    38    1
    41    17    39    1
    42    18    40    1
    43    19    41    1
    44    21    42    1
    45    21    43    1
    46    21    44    1
    47    24    45    1
