@<TRIPOS>MOLECULE
*****
 78 81 0 0 0
SMALL
GASTEIGER

@<TRIPOS>ATOM
      1 C          -7.8420    1.5500   -1.9491 C.3     1  UNL1       -0.0496
      2 C          -7.5280    2.7771   -1.1131 C.3     1  UNL1        0.0063
      3 N          -6.1448    3.1695   -1.3138 N.pl3   1  UNL1       -0.3440
      4 C          -5.0890    2.3182   -0.9038 C.ar    1  UNL1        0.0296
      5 C          -3.7861    2.7139   -1.1368 C.ar    1  UNL1       -0.0286
      6 C          -2.7517    1.9187   -0.7310 C.ar    1  UNL1        0.0402
      7 C          -1.3754    2.3388   -0.9962 C.2     1  UNL1        0.2445
      8 O          -1.2094    3.2588   -1.8501 O.2     1  UNL1       -0.2702
      9 N          -0.2646    1.7570   -0.3368 N.am    1  UNL1       -0.3056
     10 C           1.0703    2.2521   -0.6866 C.3     1  UNL1        0.0573
     11 C           1.5549    3.1119    0.4521 C.3     1  UNL1        0.0264
     12 C           2.9003    3.6819    0.2001 C.ar    1  UNL1        0.1067
     13 C           3.6123    4.4956    1.0613 C.ar    1  UNL1       -0.0207
     14 C           4.8022    4.7972    0.4439 C.ar    1  UNL1       -0.0237
     15 C           4.7680    4.1550   -0.7693 C.ar    1  UNL1        0.0921
     16 O           3.6500    3.5276   -0.8563 O.2     1  UNL1       -0.4677
     17 C           1.9941    1.0697   -0.9270 C.3     1  UNL1        0.0863
     18 O           1.5141    0.2476   -1.9328 O.3     1  UNL1       -0.3887
     19 C           2.1892    0.2711    0.3216 C.3     1  UNL1        0.0240
     20 N           3.1095   -0.8230    0.1593 N.3     1  UNL1       -0.3095
     21 C           4.4594   -0.3378   -0.0921 C.3     1  UNL1        0.0215
     22 C           5.3583   -1.5266    0.0138 C.ar    1  UNL1       -0.0301
     23 C           5.9362   -1.7917    1.2597 C.ar    1  UNL1       -0.0571
     24 C           6.7548   -2.8918    1.3897 C.ar    1  UNL1       -0.0580
     25 C           7.0200   -3.7390    0.3274 C.ar    1  UNL1       -0.0199
     26 C           6.4481   -3.4761   -0.9047 C.ar    1  UNL1        0.1204
     27 O           6.7287   -4.3370   -1.9467 O.3     1  UNL1       -0.4951
     28 C           7.5612   -5.4620   -1.8119 C.3     1  UNL1        0.0788
     29 C           5.6350   -2.3750   -1.0149 C.ar    1  UNL1       -0.0156
     30 C          -2.9595    0.7032   -0.0818 C.ar    1  UNL1       -0.0269
     31 C          -4.2709    0.3160    0.1453 C.ar    1  UNL1        0.0533
     32 N          -4.4467   -0.9341    0.8138 N.pl3   1  UNL1       -0.2073
     33 C          -4.5812   -2.1642    0.0160 C.3     1  UNL1        0.0346
     34 C          -3.6365   -3.1949    0.5440 C.3     1  UNL1       -0.0340
     35 C          -4.0782   -3.7329    1.8927 C.3     1  UNL1       -0.0304
     36 C          -4.0003   -2.7122    2.9743 C.3     1  UNL1        0.0850
     37 S          -4.5208   -1.0983    2.5260 S.O2    1  UNL1        0.0455
     38 O          -3.6637   -0.0537    3.1971 O.2     1  UNL1       -0.1550
     39 O          -5.9695   -0.9049    2.9273 O.2     1  UNL1       -0.1550
     40 C          -5.3137    1.1087   -0.2563 C.ar    1  UNL1       -0.0182
     41 H          -6.9289    1.1165   -2.3694 H       1  UNL1        0.0245
     42 H          -8.5813    1.8262   -2.7593 H       1  UNL1        0.0245
     43 H          -8.3521    0.8139   -1.3074 H       1  UNL1        0.0245
     44 H          -7.6105    2.5082   -0.0307 H       1  UNL1        0.0458
     45 H          -8.2280    3.6026   -1.3221 H       1  UNL1        0.0458
     46 H          -5.9583    4.0813   -1.7593 H       1  UNL1        0.1461
     47 H          -3.6015    3.6636   -1.6450 H       1  UNL1        0.0643
     48 H          -0.4175    1.0232    0.3579 H       1  UNL1        0.1494
     49 H           0.9916    2.8455   -1.5882 H       1  UNL1        0.0528
     50 H           1.4474    2.6353    1.4343 H       1  UNL1        0.0362
     51 H           0.8413    3.9867    0.4867 H       1  UNL1        0.0362
     52 H           3.2812    4.8284    2.0372 H       1  UNL1        0.0652
     53 H           5.6202    5.4130    0.8109 H       1  UNL1        0.0649
     54 H           5.5317    4.1503   -1.5513 H       1  UNL1        0.1029
     55 H           3.0016    1.3949   -1.2568 H       1  UNL1        0.0625
     56 H           0.8537   -0.3648   -1.4937 H       1  UNL1        0.2099
     57 H           1.1952   -0.1778    0.6030 H       1  UNL1        0.0450
     58 H           2.5819    0.8955    1.1667 H       1  UNL1        0.0450
     59 H           3.1104   -1.4393    0.9861 H       1  UNL1        0.1223
     60 H           4.5278    0.0491   -1.1562 H       1  UNL1        0.0473
     61 H           4.7327    0.4619    0.5883 H       1  UNL1        0.0473
     62 H           5.7391   -1.1352    2.0956 H       1  UNL1        0.0621
     63 H           7.2165   -3.1218    2.3496 H       1  UNL1        0.0619
     64 H           7.6760   -4.5889    0.5028 H       1  UNL1        0.0654
     65 H           7.4574   -6.0848   -2.7216 H       1  UNL1        0.0660
     66 H           7.2242   -6.0576   -0.9353 H       1  UNL1        0.0660
     67 H           8.6227   -5.1478   -1.7173 H       1  UNL1        0.0660
     68 H           5.1782   -2.1603   -1.9845 H       1  UNL1        0.0657
     69 H          -2.1500    0.0785    0.2310 H       1  UNL1        0.0644
     70 H          -5.6239   -2.5106    0.1465 H       1  UNL1        0.0482
     71 H          -4.3332   -1.9470   -1.0344 H       1  UNL1        0.0482
     72 H          -2.5995   -2.8333    0.5890 H       1  UNL1        0.0281
     73 H          -3.6463   -4.0557   -0.1574 H       1  UNL1        0.0281
     74 H          -3.3629   -4.5590    2.1380 H       1  UNL1        0.0282
     75 H          -5.0701   -4.2022    1.7830 H       1  UNL1        0.0282
     76 H          -2.9924   -2.6884    3.4563 H       1  UNL1        0.0518
     77 H          -4.6847   -3.0739    3.8010 H       1  UNL1        0.0518
     78 H          -6.3240    0.7893   -0.0671 H       1  UNL1        0.0655
@<TRIPOS>BOND
     1     1     2    1
     2     2     3    1
     3     3     4    1
     4     4     5   ar
     5     5     6   ar
     6     6     7    1
     7     7     8    2
     8     7     9   am
     9     9    10    1
    10    10    11    1
    11    11    12    1
    12    12    13   ar
    13    13    14   ar
    14    14    15   ar
    15    15    16   ar
    16    10    17    1
    17    17    18    1
    18    17    19    1
    19    19    20    1
    20    20    21    1
    21    21    22    1
    22    22    23   ar
    23    23    24   ar
    24    24    25   ar
    25    25    26   ar
    26    26    27    1
    27    27    28    1
    28    26    29   ar
    29     6    30   ar
    30    30    31   ar
    31    31    32    1
    32    32    33    1
    33    33    34    1
    34    34    35    1
    35    35    36    1
    36    36    37    1
    37    37    38    2
    38    37    39    2
    39    31    40   ar
    40    40     4   ar
    41    16    12   ar
    42    29    22   ar
    43    37    32    1
    44     1    41    1
    45     1    42    1
    46     1    43    1
    47     2    44    1
    48     2    45    1
    49     3    46    1
    50     5    47    1
    51     9    48    1
    52    10    49    1
    53    11    50    1
    54    11    51    1
    55    13    52    1
    56    14    53    1
    57    15    54    1
    58    17    55    1
    59    18    56    1
    60    19    57    1
    61    19    58    1
    62    20    59    1
    63    21    60    1
    64    21    61    1
    65    23    62    1
    66    24    63    1
    67    25    64    1
    68    28    65    1
    69    28    66    1
    70    28    67    1
    71    29    68    1
    72    30    69    1
    73    33    70    1
    74    33    71    1
    75    34    72    1
    76    34    73    1
    77    35    74    1
    78    35    75    1
    79    36    76    1
    80    36    77    1
    81    40    78    1
