
     RDKit          3D

 78 81  0  0  0  0  0  0  0  0999 V2000
   -7.8420    1.5500   -1.9491 C   0  0  0  0  0  0  0  0  0  0  0  0
   -7.5280    2.7771   -1.1131 C   0  0  0  0  0  0  0  0  0  0  0  0
   -6.1448    3.1695   -1.3138 N   0  0  0  0  0  0  0  0  0  0  0  0
   -5.0890    2.3182   -0.9038 C   0  0  0  0  0  0  0  0  0  0  0  0
   -3.7861    2.7139   -1.1368 C   0  0  0  0  0  0  0  0  0  0  0  0
   -2.7517    1.9187   -0.7310 C   0  0  0  0  0  0  0  0  0  0  0  0
   -1.3754    2.3388   -0.9962 C   0  0  0  0  0  0  0  0  0  0  0  0
   -1.2094    3.2588   -1.8501 O   0  0  0  0  0  0  0  0  0  0  0  0
   -0.2646    1.7570   -0.3368 N   0  0  0  0  0  0  0  0  0  0  0  0
    1.0703    2.2521   -0.6866 C   0  0  1  0  0  0  0  0  0  0  0  0
    1.5549    3.1119    0.4521 C   0  0  0  0  0  0  0  0  0  0  0  0
    2.9003    3.6819    0.2001 C   0  0  0  0  0  0  0  0  0  0  0  0
    3.6123    4.4956    1.0613 C   0  0  0  0  0  0  0  0  0  0  0  0
    4.8022    4.7972    0.4439 C   0  0  0  0  0  0  0  0  0  0  0  0
    4.7680    4.1550   -0.7693 C   0  0  0  0  0  0  0  0  0  0  0  0
    3.6500    3.5276   -0.8563 O   0  0  0  0  0  0  0  0  0  0  0  0
    1.9941    1.0697   -0.9270 C   0  0  2  0  0  0  0  0  0  0  0  0
    1.5141    0.2476   -1.9328 O   0  0  0  0  0  0  0  0  0  0  0  0
    2.1892    0.2711    0.3216 C   0  0  0  0  0  0  0  0  0  0  0  0
    3.1095   -0.8230    0.1593 N   0  0  0  0  0  0  0  0  0  0  0  0
    4.4594   -0.3378   -0.0921 C   0  0  0  0  0  0  0  0  0  0  0  0
    5.3583   -1.5266    0.0138 C   0  0  0  0  0  0  0  0  0  0  0  0
    5.9362   -1.7917    1.2597 C   0  0  0  0  0  0  0  0  0  0  0  0
    6.7548   -2.8918    1.3897 C   0  0  0  0  0  0  0  0  0  0  0  0
    7.0200   -3.7390    0.3274 C   0  0  0  0  0  0  0  0  0  0  0  0
    6.4481   -3.4761   -0.9047 C   0  0  0  0  0  0  0  0  0  0  0  0
    6.7287   -4.3370   -1.9467 O   0  0  0  0  0  0  0  0  0  0  0  0
    7.5612   -5.4620   -1.8119 C   0  0  0  0  0  0  0  0  0  0  0  0
    5.6350   -2.3750   -1.0149 C   0  0  0  0  0  0  0  0  0  0  0  0
   -2.9595    0.7032   -0.0818 C   0  0  0  0  0  0  0  0  0  0  0  0
   -4.2709    0.3160    0.1453 C   0  0  0  0  0  0  0  0  0  0  0  0
   -4.4467   -0.9341    0.8138 N   0  0  0  0  0  0  0  0  0  0  0  0
   -4.5812   -2.1642    0.0160 C   0  0  0  0  0  0  0  0  0  0  0  0
   -3.6365   -3.1949    0.5440 C   0  0  0  0  0  0  0  0  0  0  0  0
   -4.0782   -3.7329    1.8927 C   0  0  0  0  0  0  0  0  0  0  0  0
   -4.0003   -2.7122    2.9743 C   0  0  0  0  0  0  0  0  0  0  0  0
   -4.5208   -1.0983    2.5260 S   0  0  0  0  0  6  0  0  0  0  0  0
   -3.6637   -0.0537    3.1971 O   0  0  0  0  0  0  0  0  0  0  0  0
   -5.9695   -0.9049    2.9273 O   0  0  0  0  0  0  0  0  0  0  0  0
   -5.3137    1.1087   -0.2563 C   0  0  0  0  0  0  0  0  0  0  0  0
   -6.9289    1.1165   -2.3694 H   0  0  0  0  0  0  0  0  0  0  0  0
   -8.5813    1.8262   -2.7593 H   0  0  0  0  0  0  0  0  0  0  0  0
   -8.3521    0.8139   -1.3074 H   0  0  0  0  0  0  0  0  0  0  0  0
   -7.6105    2.5082   -0.0307 H   0  0  0  0  0  0  0  0  0  0  0  0
   -8.2280    3.6026   -1.3221 H   0  0  0  0  0  0  0  0  0  0  0  0
   -5.9583    4.0813   -1.7593 H   0  0  0  0  0  0  0  0  0  0  0  0
   -3.6015    3.6636   -1.6450 H   0  0  0  0  0  0  0  0  0  0  0  0
   -0.4175    1.0232    0.3579 H   0  0  0  0  0  0  0  0  0  0  0  0
    0.9916    2.8455   -1.5882 H   0  0  0  0  0  0  0  0  0  0  0  0
    1.4474    2.6353    1.4343 H   0  0  0  0  0  0  0  0  0  0  0  0
    0.8413    3.9867    0.4867 H   0  0  0  0  0  0  0  0  0  0  0  0
    3.2812    4.8284    2.0372 H   0  0  0  0  0  0  0  0  0  0  0  0
    5.6202    5.4130    0.8109 H   0  0  0  0  0  0  0  0  0  0  0  0
    5.5317    4.1503   -1.5513 H   0  0  0  0  0  0  0  0  0  0  0  0
    3.0016    1.3949   -1.2568 H   0  0  0  0  0  0  0  0  0  0  0  0
    0.8537   -0.3648   -1.4937 H   0  0  0  0  0  0  0  0  0  0  0  0
    1.1952   -0.1778    0.6030 H   0  0  0  0  0  0  0  0  0  0  0  0
    2.5819    0.8955    1.1667 H   0  0  0  0  0  0  0  0  0  0  0  0
    3.1104   -1.4393    0.9861 H   0  0  0  0  0  0  0  0  0  0  0  0
    4.5278    0.0491   -1.1562 H   0  0  0  0  0  0  0  0  0  0  0  0
    4.7327    0.4619    0.5883 H   0  0  0  0  0  0  0  0  0  0  0  0
    5.7391   -1.1352    2.0956 H   0  0  0  0  0  0  0  0  0  0  0  0
    7.2165   -3.1218    2.3496 H   0  0  0  0  0  0  0  0  0  0  0  0
    7.6760   -4.5889    0.5028 H   0  0  0  0  0  0  0  0  0  0  0  0
    7.4574   -6.0848   -2.7216 H   0  0  0  0  0  0  0  0  0  0  0  0
    7.2242   -6.0576   -0.9353 H   0  0  0  0  0  0  0  0  0  0  0  0
    8.6227   -5.1478   -1.7173 H   0  0  0  0  0  0  0  0  0  0  0  0
    5.1782   -2.1603   -1.9845 H   0  0  0  0  0  0  0  0  0  0  0  0
   -2.1500    0.0785    0.2310 H   0  0  0  0  0  0  0  0  0  0  0  0
   -5.6239   -2.5106    0.1465 H   0  0  0  0  0  0  0  0  0  0  0  0
   -4.3332   -1.9470   -1.0344 H   0  0  0  0  0  0  0  0  0  0  0  0
   -2.5995   -2.8333    0.5890 H   0  0  0  0  0  0  0  0  0  0  0  0
   -3.6463   -4.0557   -0.1574 H   0  0  0  0  0  0  0  0  0  0  0  0
   -3.3629   -4.5590    2.1380 H   0  0  0  0  0  0  0  0  0  0  0  0
   -5.0701   -4.2022    1.7830 H   0  0  0  0  0  0  0  0  0  0  0  0
   -2.9924   -2.6884    3.4563 H   0  0  0  0  0  0  0  0  0  0  0  0
   -4.6847   -3.0739    3.8010 H   0  0  0  0  0  0  0  0  0  0  0  0
   -6.3240    0.7893   -0.0671 H   0  0  0  0  0  0  0  0  0  0  0  0
  1  2  1  0
  2  3  1  0
  3  4  1  0
  4  5  2  0
  5  6  1  0
  6  7  1  0
  7  8  2  0
  7  9  1  0
  9 10  1  0
 10 11  1  0
 11 12  1  0
 12 13  2  0
 13 14  1  0
 14 15  2  0
 15 16  1  0
 10 17  1  0
 17 18  1  0
 17 19  1  0
 19 20  1  0
 20 21  1  0
 21 22  1  0
 22 23  2  0
 23 24  1  0
 24 25  2  0
 25 26  1  0
 26 27  1  0
 27 28  1  0
 26 29  2  0
  6 30  2  0
 30 31  1  0
 31 32  1  0
 32 33  1  0
 33 34  1  0
 34 35  1  0
 35 36  1  0
 36 37  1  0
 37 38  2  0
 37 39  2  0
 31 40  2  0
 40  4  1  0
 16 12  1  0
 29 22  1  0
 37 32  1  0
  1 41  1  0
  1 42  1  0
  1 43  1  0
  2 44  1  0
  2 45  1  0
  3 46  1  0
  5 47  1  0
  9 48  1  0
 10 49  1  6
 11 50  1  0
 11 51  1  0
 13 52  1  0
 14 53  1  0
 15 54  1  0
 17 55  1  6
 18 56  1  0
 19 57  1  0
 19 58  1  0
 20 59  1  0
 21 60  1  0
 21 61  1  0
 23 62  1  0
 24 63  1  0
 25 64  1  0
 28 65  1  0
 28 66  1  0
 28 67  1  0
 29 68  1  0
 30 69  1  0
 33 70  1  0
 33 71  1  0
 34 72  1  0
 34 73  1  0
 35 74  1  0
 35 75  1  0
 36 76  1  0
 36 77  1  0
 40 78  1  0
M  END
$$$$
