@<TRIPOS>MOLECULE
*****
 55 56 0 0 0
SMALL
GASTEIGER

@<TRIPOS>ATOM
      1 C          -3.3817    0.2991   -0.3457 C.3     1  UNL1        0.0927
      2 N          -2.3204    0.2911    0.6415 N.am    1  UNL1       -0.3036
      3 C          -0.9941    0.4899    0.1662 C.2     1  UNL1        0.2335
      4 O          -0.7196    0.6686   -1.0573 O.2     1  UNL1       -0.2738
      5 C           0.1339    0.4877    1.1640 C.3     1  UNL1        0.1043
      6 N           1.3660    0.7002    0.4965 N.ar    1  UNL1       -0.2823
      7 C           1.7308    1.9847    0.2795 C.ar    1  UNL1        0.2772
      8 O           0.9422    2.9329    0.6321 O.2     1  UNL1       -0.2655
      9 C           2.9057    2.3526   -0.3015 C.ar    1  UNL1        0.1301
     10 N           3.2539    3.7052   -0.5140 N.pl3   1  UNL1       -0.2142
     11 S           4.7489    4.1168   -1.2244 S.O2    1  UNL1        0.0404
     12 C           6.0647    3.5455   -0.2105 C.3     1  UNL1        0.0736
     13 O           4.8530    5.6241   -1.2922 O.2     1  UNL1       -0.1554
     14 O           4.8666    3.6394   -2.6430 O.2     1  UNL1       -0.1554
     15 C           3.7165    1.3368   -0.6623 C.ar    1  UNL1        0.0575
     16 N           3.3112    0.1033   -0.4275 N.ar    1  UNL1       -0.2351
     17 C           2.1685   -0.3004    0.1381 C.ar    1  UNL1        0.1439
     18 C           1.9430   -1.7145    0.2315 C.ar    1  UNL1        0.0177
     19 C           0.8307   -2.4673    0.4341 C.ar    1  UNL1       -0.0494
     20 C           0.7310   -3.8283    0.4740 C.ar    1  UNL1       -0.0404
     21 C           1.8547   -4.5885    0.2936 C.ar    1  UNL1        0.0246
     22 N           1.8665   -5.9994    0.3154 N.pl3   1  UNL1       -0.3580
     23 C           3.0326   -3.9210    0.0798 C.ar    1  UNL1       -0.0404
     24 C           3.0511   -2.5523    0.0541 C.ar    1  UNL1       -0.0494
     25 C          -4.0752   -1.0570   -0.2877 C.3     1  UNL1       -0.0210
     26 C          -4.6597   -1.3292    1.0594 C.3     1  UNL1       -0.0606
     27 C          -5.1140   -1.0699   -1.3851 C.3     1  UNL1       -0.0606
     28 C          -4.3470    1.4018   -0.1124 C.2     1  UNL1        0.2556
     29 O          -3.5776    1.6139    0.8283 O.2     1  UNL1       -0.2859
     30 C          -5.3805    2.4533    0.0040 C.3     1  UNL1        0.4525
     31 F          -5.1355    3.2642    1.0711 F       1  UNL1       -0.1633
     32 F          -6.6517    1.9079    0.1359 F       1  UNL1       -0.1633
     33 F          -5.3837    3.2518   -1.1298 F       1  UNL1       -0.1633
     34 H          -2.9541    0.4672   -1.3546 H       1  UNL1        0.0583
     35 H          -2.5663    0.1425    1.6441 H       1  UNL1        0.1495
     36 H          -0.0493    1.4355    1.7979 H       1  UNL1        0.0589
     37 H           0.0785   -0.2889    1.9189 H       1  UNL1        0.0589
     38 H           2.5556    4.4510   -0.2173 H       1  UNL1        0.1735
     39 H           5.6663    2.8643    0.5603 H       1  UNL1        0.0482
     40 H           6.5718    4.3744    0.3339 H       1  UNL1        0.0482
     41 H           6.7918    2.9964   -0.8665 H       1  UNL1        0.0482
     42 H           4.6768    1.4843   -1.1331 H       1  UNL1        0.0851
     43 H          -0.0963   -1.9869    0.5580 H       1  UNL1        0.0625
     44 H          -0.1973   -4.3508    0.6422 H       1  UNL1        0.0636
     45 H           1.1684   -6.6313   -0.1090 H       1  UNL1        0.1423
     46 H           2.6807   -6.4432    0.8224 H       1  UNL1        0.1423
     47 H           3.9385   -4.4844   -0.0650 H       1  UNL1        0.0636
     48 H           4.0528   -2.1222   -0.1247 H       1  UNL1        0.0625
     49 H          -3.3547   -1.8701   -0.5046 H       1  UNL1        0.0318
     50 H          -4.1756   -2.2113    1.5700 H       1  UNL1        0.0233
     51 H          -4.5395   -0.4528    1.7285 H       1  UNL1        0.0233
     52 H          -5.7573   -1.5467    0.9267 H       1  UNL1        0.0233
     53 H          -5.2919   -0.0322   -1.7937 H       1  UNL1        0.0233
     54 H          -4.7631   -1.6537   -2.2506 H       1  UNL1        0.0233
     55 H          -6.0668   -1.4842   -0.9896 H       1  UNL1        0.0233
@<TRIPOS>BOND
     1     1     2    1
     2     2     3   am
     3     3     4    2
     4     3     5    1
     5     5     6    1
     6     6     7   ar
     7     7     8    2
     8     7     9   ar
     9     9    10    1
    10    10    11    1
    11    11    12    1
    12    11    13    2
    13    11    14    2
    14     9    15   ar
    15    15    16   ar
    16    16    17   ar
    17    17    18    1
    18    18    19   ar
    19    19    20   ar
    20    20    21   ar
    21    21    22    1
    22    21    23   ar
    23    23    24   ar
    24     1    25    1
    25    25    26    1
    26    25    27    1
    27     1    28    1
    28    28    29    2
    29    28    30    1
    30    30    31    1
    31    30    32    1
    32    30    33    1
    33    17     6   ar
    34    24    18   ar
    35     1    34    1
    36     2    35    1
    37     5    36    1
    38     5    37    1
    39    10    38    1
    40    12    39    1
    41    12    40    1
    42    12    41    1
    43    15    42    1
    44    19    43    1
    45    20    44    1
    46    22    45    1
    47    22    46    1
    48    23    47    1
    49    24    48    1
    50    25    49    1
    51    26    50    1
    52    26    51    1
    53    26    52    1
    54    27    53    1
    55    27    54    1
    56    27    55    1
