
     RDKit          3D

 39 42  0  0  0  0  0  0  0  0999 V2000
   -0.5575    2.5515    0.6243 O   0  0  0  0  0  0  0  0  0  0  0  0
   -0.2538    1.4776   -0.3837 S   0  0  0  0  0  6  0  0  0  0  0  0
    0.3563    2.1510   -1.5830 O   0  0  0  0  0  0  0  0  0  0  0  0
   -1.6995    0.6516   -0.8493 C   0  0  0  0  0  0  0  0  0  0  0  0
   -1.8803    0.1439   -2.0986 C   0  0  0  0  0  0  0  0  0  0  0  0
   -3.0634   -0.5198   -2.4207 C   0  0  0  0  0  0  0  0  0  0  0  0
   -4.0440   -0.6556   -1.4647 C   0  0  0  0  0  0  0  0  0  0  0  0
   -3.8839   -0.1440   -0.1763 C   0  0  0  0  0  0  0  0  0  0  0  0
   -4.9334   -0.2981    0.8201 C   0  0  0  0  0  0  0  0  0  0  0  0
   -4.8634    0.1610    2.0781 N   0  0  0  0  0  0  0  0  0  0  0  0
   -5.9768   -0.1411    2.7265 N   0  0  0  0  0  0  0  0  0  0  0  0
   -6.7612   -0.7927    1.8885 N   0  0  0  0  0  0  0  0  0  0  0  0
   -6.1309   -0.8901    0.7294 N   0  0  0  0  0  0  0  0  0  0  0  0
   -2.6994    0.5001    0.0863 C   0  0  0  0  0  0  0  0  0  0  0  0
    0.8148    0.3639    0.3721 N   0  0  0  0  0  0  0  0  0  0  0  0
    1.1624   -0.6622   -0.5511 C   0  0  0  0  0  0  0  0  0  0  0  0
    2.4227   -0.2191   -1.3073 C   0  0  0  0  0  0  0  0  0  0  0  0
    3.4939   -0.2289   -0.2814 C   0  0  0  0  0  0  0  0  0  0  0  0
    4.7172   -0.8058   -0.4880 C   0  0  0  0  0  0  0  0  0  0  0  0
    5.6691   -0.7706    0.5400 C   0  0  0  0  0  0  0  0  0  0  0  0
    5.3963   -0.1674    1.7517 C   0  0  0  0  0  0  0  0  0  0  0  0
    4.1600    0.4112    1.9496 C   0  0  0  0  0  0  0  0  0  0  0  0
    3.2061    0.3777    0.9235 C   0  0  0  0  0  0  0  0  0  0  0  0
    1.8748    0.9840    1.0867 C   0  0  0  0  0  0  0  0  0  0  0  0
   -1.0997    0.2664   -2.8336 H   0  0  0  0  0  0  0  0  0  0  0  0
   -3.1926   -0.9183   -3.4180 H   0  0  0  0  0  0  0  0  0  0  0  0
   -4.9787   -1.1629   -1.6689 H   0  0  0  0  0  0  0  0  0  0  0  0
   -6.5117   -1.3581   -0.1250 H   0  0  0  0  0  0  0  0  0  0  0  0
   -2.5614    0.9069    1.0961 H   0  0  0  0  0  0  0  0  0  0  0  0
    1.3417   -1.6453   -0.0550 H   0  0  0  0  0  0  0  0  0  0  0  0
    0.3354   -0.7943   -1.2733 H   0  0  0  0  0  0  0  0  0  0  0  0
    2.6403   -0.8854   -2.1585 H   0  0  0  0  0  0  0  0  0  0  0  0
    2.2364    0.7854   -1.7111 H   0  0  0  0  0  0  0  0  0  0  0  0
    4.9386   -1.2828   -1.4407 H   0  0  0  0  0  0  0  0  0  0  0  0
    6.6395   -1.2257    0.3823 H   0  0  0  0  0  0  0  0  0  0  0  0
    6.1552   -0.1590    2.5233 H   0  0  0  0  0  0  0  0  0  0  0  0
    3.9323    0.8885    2.8968 H   0  0  0  0  0  0  0  0  0  0  0  0
    1.9505    2.0463    0.7170 H   0  0  0  0  0  0  0  0  0  0  0  0
    1.6479    1.0603    2.1722 H   0  0  0  0  0  0  0  0  0  0  0  0
  1  2  2  0
  2  3  2  0
  2  4  1  0
  4  5  2  0
  5  6  1  0
  6  7  2  0
  7  8  1  0
  8  9  1  0
  9 10  2  0
 10 11  1  0
 11 12  2  0
 12 13  1  0
  8 14  2  0
  2 15  1  0
 15 16  1  0
 16 17  1  0
 17 18  1  0
 18 19  2  0
 19 20  1  0
 20 21  2  0
 21 22  1  0
 22 23  2  0
 23 24  1  0
 14  4  1  0
 24 15  1  0
 13  9  1  0
 23 18  1  0
  5 25  1  0
  6 26  1  0
  7 27  1  0
 13 28  1  0
 14 29  1  0
 16 30  1  0
 16 31  1  0
 17 32  1  0
 17 33  1  0
 19 34  1  0
 20 35  1  0
 21 36  1  0
 22 37  1  0
 24 38  1  0
 24 39  1  0
M  END
$$$$
