@<TRIPOS>MOLECULE
*****
 39 42 0 0 0
SMALL
GASTEIGER

@<TRIPOS>ATOM
      1 O          -0.5575    2.5515    0.6243 O.2     1  UNL1       -0.1528
      2 S          -0.2538    1.4776   -0.3837 S.O2    1  UNL1        0.0612
      3 O           0.3563    2.1510   -1.5830 O.2     1  UNL1       -0.1528
      4 C          -1.6995    0.6516   -0.8493 C.ar    1  UNL1        0.1062
      5 C          -1.8803    0.1439   -2.0986 C.ar    1  UNL1       -0.0353
      6 C          -3.0634   -0.5198   -2.4207 C.ar    1  UNL1       -0.0592
      7 C          -4.0440   -0.6556   -1.4647 C.ar    1  UNL1       -0.0509
      8 C          -3.8839   -0.1440   -0.1763 C.ar    1  UNL1        0.0223
      9 C          -4.9334   -0.2981    0.8201 C.ar    1  UNL1        0.1794
     10 N          -4.8634    0.1610    2.0781 N.ar    1  UNL1       -0.1084
     11 N          -5.9768   -0.1411    2.7265 N.ar    1  UNL1       -0.0229
     12 N          -6.7612   -0.7927    1.8885 N.ar    1  UNL1       -0.0464
     13 N          -6.1309   -0.8901    0.7294 N.ar    1  UNL1       -0.2388
     14 C          -2.6994    0.5001    0.0863 C.ar    1  UNL1       -0.0246
     15 N           0.8148    0.3639    0.3721 N.3     1  UNL1       -0.1720
     16 C           1.1624   -0.6622   -0.5511 C.3     1  UNL1        0.0248
     17 C           2.4227   -0.2191   -1.3073 C.3     1  UNL1       -0.0129
     18 C           3.4939   -0.2289   -0.2814 C.ar    1  UNL1       -0.0416
     19 C           4.7172   -0.8058   -0.4880 C.ar    1  UNL1       -0.0582
     20 C           5.6691   -0.7706    0.5400 C.ar    1  UNL1       -0.0615
     21 C           5.3963   -0.1674    1.7517 C.ar    1  UNL1       -0.0614
     22 C           4.1600    0.4112    1.9496 C.ar    1  UNL1       -0.0570
     23 C           3.2061    0.3777    0.9235 C.ar    1  UNL1       -0.0285
     24 C           1.8748    0.9840    1.0867 C.3     1  UNL1        0.0458
     25 H          -1.0997    0.2664   -2.8336 H       1  UNL1        0.0637
     26 H          -3.1926   -0.9183   -3.4180 H       1  UNL1        0.0618
     27 H          -4.9787   -1.1629   -1.6689 H       1  UNL1        0.0625
     28 H          -6.5117   -1.3581   -0.1250 H       1  UNL1        0.1923
     29 H          -2.5614    0.9069    1.0961 H       1  UNL1        0.0644
     30 H           1.3417   -1.6453   -0.0550 H       1  UNL1        0.0447
     31 H           0.3354   -0.7943   -1.2733 H       1  UNL1        0.0447
     32 H           2.6403   -0.8854   -2.1585 H       1  UNL1        0.0326
     33 H           2.2364    0.7854   -1.7111 H       1  UNL1        0.0326
     34 H           4.9386   -1.2828   -1.4407 H       1  UNL1        0.0620
     35 H           6.6395   -1.2257    0.3823 H       1  UNL1        0.0618
     36 H           6.1552   -0.1590    2.5233 H       1  UNL1        0.0618
     37 H           3.9323    0.8885    2.8968 H       1  UNL1        0.0621
     38 H           1.9505    2.0463    0.7170 H       1  UNL1        0.0493
     39 H           1.6479    1.0603    2.1722 H       1  UNL1        0.0493
@<TRIPOS>BOND
     1     1     2    2
     2     2     3    2
     3     2     4    1
     4     4     5   ar
     5     5     6   ar
     6     6     7   ar
     7     7     8   ar
     8     8     9    1
     9     9    10   ar
    10    10    11   ar
    11    11    12   ar
    12    12    13   ar
    13     8    14   ar
    14     2    15    1
    15    15    16    1
    16    16    17    1
    17    17    18    1
    18    18    19   ar
    19    19    20   ar
    20    20    21   ar
    21    21    22   ar
    22    22    23   ar
    23    23    24    1
    24    14     4   ar
    25    24    15    1
    26    13     9   ar
    27    23    18   ar
    28     5    25    1
    29     6    26    1
    30     7    27    1
    31    13    28    1
    32    14    29    1
    33    16    30    1
    34    16    31    1
    35    17    32    1
    36    17    33    1
    37    19    34    1
    38    20    35    1
    39    21    36    1
    40    22    37    1
    41    24    38    1
    42    24    39    1
