@<TRIPOS>MOLECULE
*****
 40 40 0 0 0
SMALL
GASTEIGER

@<TRIPOS>ATOM
      1 C           5.4194   -1.9422    0.0650 C.3     1  UNL1       -0.0492
      2 C           4.5086   -1.6652   -1.0860 C.3     1  UNL1        0.0147
      3 N           3.8316   -0.3954   -0.9945 N.am    1  UNL1       -0.2704
      4 C           4.4552    0.7693   -1.5699 C.3     1  UNL1        0.0063
      5 C           2.5764   -0.3359   -0.3421 C.2     1  UNL1        0.4079
      6 O           2.0167   -1.3412    0.1658 O.2     1  UNL1       -0.2258
      7 O           1.8646    0.8711   -0.2191 O.3     1  UNL1       -0.4114
      8 C           0.6413    0.9404    0.4143 C.ar    1  UNL1        0.1335
      9 C           0.5182    1.1885    1.7574 C.ar    1  UNL1       -0.0192
     10 C          -0.7103    1.2587    2.3965 C.ar    1  UNL1       -0.0580
     11 C          -1.8283    1.0687    1.6321 C.ar    1  UNL1       -0.0569
     12 C          -1.7371    0.8212    0.2997 C.ar    1  UNL1       -0.0271
     13 C          -2.9674    0.6223   -0.4879 C.3     1  UNL1        0.0323
     14 C          -3.6643    1.9478   -0.7237 C.3     1  UNL1       -0.0454
     15 N          -3.8368   -0.2685    0.2629 N.3     1  UNL1       -0.3017
     16 C          -3.1497   -1.5253    0.4747 C.3     1  UNL1       -0.0125
     17 C          -5.0460   -0.4314   -0.5070 C.3     1  UNL1       -0.0125
     18 C          -0.4980    0.7535   -0.3288 C.ar    1  UNL1       -0.0145
     19 H           6.4690   -1.6390   -0.1885 H       1  UNL1        0.0245
     20 H           5.1067   -1.4101    0.9767 H       1  UNL1        0.0245
     21 H           5.4332   -3.0380    0.2389 H       1  UNL1        0.0245
     22 H           5.0736   -1.7387   -2.0389 H       1  UNL1        0.0463
     23 H           3.7282   -2.4589   -1.1225 H       1  UNL1        0.0463
     24 H           5.1846    0.5434   -2.3469 H       1  UNL1        0.0429
     25 H           4.8407    1.4065   -0.7478 H       1  UNL1        0.0429
     26 H           3.6343    1.3822   -2.0458 H       1  UNL1        0.0429
     27 H           1.3968    1.3395    2.3671 H       1  UNL1        0.0654
     28 H          -0.7692    1.4543    3.4470 H       1  UNL1        0.0619
     29 H          -2.8033    1.1161    2.0956 H       1  UNL1        0.0621
     30 H          -2.7576    0.1614   -1.4667 H       1  UNL1        0.0509
     31 H          -4.7610    1.8720   -0.6309 H       1  UNL1        0.0248
     32 H          -3.3304    2.6821    0.0455 H       1  UNL1        0.0248
     33 H          -3.4161    2.3449   -1.7212 H       1  UNL1        0.0248
     34 H          -3.6355   -2.0384    1.3246 H       1  UNL1        0.0391
     35 H          -2.1110   -1.3063    0.7658 H       1  UNL1        0.0391
     36 H          -3.1289   -2.1588   -0.4354 H       1  UNL1        0.0391
     37 H          -4.9602    0.0161   -1.5279 H       1  UNL1        0.0391
     38 H          -5.2749   -1.5126   -0.6155 H       1  UNL1        0.0391
     39 H          -5.8693    0.0906    0.0173 H       1  UNL1        0.0391
     40 H          -0.4437    0.5553   -1.3918 H       1  UNL1        0.0657
@<TRIPOS>BOND
     1     1     2    1
     2     2     3    1
     3     3     4    1
     4     3     5   am
     5     5     6    2
     6     5     7    1
     7     7     8    1
     8     8     9   ar
     9     9    10   ar
    10    10    11   ar
    11    11    12   ar
    12    12    13    1
    13    13    14    1
    14    13    15    1
    15    15    16    1
    16    15    17    1
    17    12    18   ar
    18    18     8   ar
    19     1    19    1
    20     1    20    1
    21     1    21    1
    22     2    22    1
    23     2    23    1
    24     4    24    1
    25     4    25    1
    26     4    26    1
    27     9    27    1
    28    10    28    1
    29    11    29    1
    30    13    30    1
    31    14    31    1
    32    14    32    1
    33    14    33    1
    34    16    34    1
    35    16    35    1
    36    16    36    1
    37    17    37    1
    38    17    38    1
    39    17    39    1
    40    18    40    1
