@<TRIPOS>MOLECULE
*****
 53 57 0 0 0
SMALL
GASTEIGER

@<TRIPOS>ATOM
      1 C           9.1010    0.3875    1.1939 C.3     1  UNL1        0.0805
      2 O           8.0187    1.2947    1.2840 O.3     1  UNL1       -0.4786
      3 C           6.7951    0.9287    0.7358 C.ar    1  UNL1        0.2338
      4 C           5.6858    1.7431    0.7780 C.ar    1  UNL1        0.0899
      5 N           4.4970    1.3613    0.2342 N.ar    1  UNL1       -0.2447
      6 C           4.3513    0.1685   -0.3698 C.ar    1  UNL1        0.1293
      7 C           3.1533   -0.2118   -0.9107 C.ar    1  UNL1        0.1506
      8 N           2.0049    0.6156   -0.8619 N.pl3   1  UNL1       -0.2977
      9 C           0.7605    0.0845   -0.3923 C.ar    1  UNL1        0.0330
     10 C           0.7331   -1.1520    0.2127 C.ar    1  UNL1       -0.0378
     11 C          -0.4399   -1.7160    0.6702 C.ar    1  UNL1       -0.0243
     12 C          -1.6185   -0.9873    0.4996 C.ar    1  UNL1        0.1312
     13 F          -2.7507   -1.5211    0.9373 F       1  UNL1       -0.2050
     14 C          -1.6296    0.2419   -0.0956 C.ar    1  UNL1        0.0450
     15 C          -2.9213    0.9592   -0.2605 C.3     1  UNL1        0.2272
     16 C          -2.5591    2.1795   -1.1507 C.3     1  UNL1       -0.0082
     17 N          -3.8441    0.2543   -1.0532 N.2     1  UNL1       -0.0696
     18 C          -4.9380   -0.2900   -0.8966 C.2     1  UNL1        0.3075
     19 N          -5.5790   -0.9264   -1.9951 N.pl3   1  UNL1       -0.2488
     20 C          -5.5971   -0.2947    0.4087 C.3     1  UNL1        0.1919
     21 C          -6.0038   -1.6428    0.9298 C.3     1  UNL1       -0.0138
     22 C          -7.0022   -0.6210    0.5187 C.3     1  UNL1       -0.0138
     23 S          -4.9585    0.9132    1.5182 S.O2    1  UNL1        0.0220
     24 O          -6.0311    1.9913    1.6336 O.2     1  UNL1       -0.1703
     25 O          -4.8643    0.3272    2.9229 O.2     1  UNL1       -0.1703
     26 C          -3.4072    1.5749    1.0075 C.3     1  UNL1        0.2674
     27 F          -2.4557    1.4963    2.0227 F       1  UNL1       -0.2156
     28 C          -0.4291    0.7581   -0.5334 C.ar    1  UNL1       -0.0300
     29 N           3.0649   -1.4327   -1.5075 N.ar    1  UNL1       -0.2379
     30 C           4.1107   -2.2617   -1.5767 C.ar    1  UNL1        0.0318
     31 C           5.3153   -1.8797   -1.0320 C.ar    1  UNL1       -0.0158
     32 C           5.4750   -0.6503   -0.4103 C.ar    1  UNL1        0.0978
     33 N           6.6479   -0.2743    0.1251 N.ar    1  UNL1       -0.2099
     34 H           9.8130    0.5430    2.0219 H       1  UNL1        0.0660
     35 H           8.6342   -0.6406    1.2565 H       1  UNL1        0.0660
     36 H           9.6062    0.3953    0.2081 H       1  UNL1        0.0660
     37 H           5.7958    2.7201    1.2698 H       1  UNL1        0.0884
     38 H           2.1064    1.6041   -1.1773 H       1  UNL1        0.1536
     39 H           1.6756   -1.6938    0.3358 H       1  UNL1        0.0637
     40 H          -0.4393   -2.6961    1.1492 H       1  UNL1        0.0647
     41 H          -2.1372    1.8778   -2.1046 H       1  UNL1        0.0280
     42 H          -1.9614    2.9144   -0.5658 H       1  UNL1        0.0280
     43 H          -3.5605    2.6626   -1.3639 H       1  UNL1        0.0280
     44 H          -5.4125   -1.9139   -2.1985 H       1  UNL1        0.2881
     45 H          -6.2188   -0.3651   -2.5839 H       1  UNL1        0.2881
     46 H          -5.7335   -1.8115    1.9905 H       1  UNL1        0.0293
     47 H          -5.7939   -2.5405    0.2962 H       1  UNL1        0.0293
     48 H          -7.6423   -0.2468    1.3672 H       1  UNL1        0.0293
     49 H          -7.5698   -0.8998   -0.4164 H       1  UNL1        0.0293
     50 H          -3.5721    2.6909    0.9199 H       1  UNL1        0.0951
     51 H          -0.4056    1.7257   -1.0125 H       1  UNL1        0.0641
     52 H           3.9541   -3.2104   -2.0661 H       1  UNL1        0.0831
     53 H           6.1763   -2.5333   -1.0741 H       1  UNL1        0.0655
@<TRIPOS>BOND
     1     1     2    1
     2     2     3    1
     3     3     4   ar
     4     4     5   ar
     5     5     6   ar
     6     6     7   ar
     7     7     8    1
     8     8     9    1
     9     9    10   ar
    10    10    11   ar
    11    11    12   ar
    12    12    13    1
    13    12    14   ar
    14    14    15    1
    15    15    16    1
    16    15    17    1
    17    17    18    2
    18    18    19    1
    19    18    20    1
    20    20    21    1
    21    21    22    1
    22    20    23    1
    23    23    24    2
    24    23    25    2
    25    23    26    1
    26    26    27    1
    27    14    28   ar
    28     7    29   ar
    29    29    30   ar
    30    30    31   ar
    31    31    32   ar
    32    32    33   ar
    33    33     3   ar
    34    32     6   ar
    35    28     9   ar
    36    26    15    1
    37    22    20    1
    38     1    34    1
    39     1    35    1
    40     1    36    1
    41     4    37    1
    42     8    38    1
    43    10    39    1
    44    11    40    1
    45    16    41    1
    46    16    42    1
    47    16    43    1
    48    19    44    1
    49    19    45    1
    50    21    46    1
    51    21    47    1
    52    22    48    1
    53    22    49    1
    54    26    50    1
    55    28    51    1
    56    30    52    1
    57    31    53    1
