@<TRIPOS>MOLECULE
*****
 40 43 0 0 0
SMALL
GASTEIGER

@<TRIPOS>ATOM
      1 C          -7.3731    0.9797   -0.3165 C.3     1  UNL1       -0.0039
      2 C          -6.1118    0.1323   -0.3885 C.ar    1  UNL1        0.1359
      3 N          -6.1257   -1.0296   -1.2373 N.ar    1  UNL1       -0.1939
      4 S          -4.4110   -1.6784   -0.9751 S.2     1  UNL1        0.0369
      5 C          -3.9753   -0.3655    0.1633 C.ar    1  UNL1        0.1652
      6 C          -2.6294   -0.3033    0.7782 C.ar    1  UNL1        0.1910
      7 N          -2.3927   -0.1500    2.0564 N.ar    1  UNL1       -0.1269
      8 N          -1.0773   -0.1382    2.2555 N.ar    1  UNL1       -0.1320
      9 C          -0.4690   -0.2911    1.0479 C.ar    1  UNL1        0.1542
     10 N          -1.4486   -0.3908    0.1516 N.ar    1  UNL1       -0.3062
     11 C          -1.1475   -0.5633   -1.2504 C.3     1  UNL1        0.0423
     12 C           0.1838   -1.2603   -1.4592 C.3     1  UNL1        0.0338
     13 N           1.2164   -0.6299   -0.6573 N.am    1  UNL1       -0.2860
     14 C           2.4429   -0.2982   -1.2632 C.2     1  UNL1        0.2473
     15 O           2.6439   -0.5592   -2.4993 O.2     1  UNL1       -0.2700
     16 C           3.5394    0.3468   -0.5521 C.ar    1  UNL1        0.0383
     17 C           4.6188   -0.3028   -0.0064 C.ar    1  UNL1       -0.0495
     18 C           5.6317    0.3668    0.6519 C.ar    1  UNL1       -0.0597
     19 C           5.5733    1.7351    0.7749 C.ar    1  UNL1       -0.0433
     20 C           4.5114    2.4342    0.2454 C.ar    1  UNL1        0.0417
     21 CL          4.4258    4.1884    0.3994 Cl      1  UNL1       -0.0835
     22 C           3.5093    1.7298   -0.4111 C.ar    1  UNL1       -0.0313
     23 C           0.9854   -0.3443    0.7344 C.3     1  UNL1        0.0834
     24 C           1.5747   -1.4878    1.5657 C.3     1  UNL1       -0.0393
     25 N          -4.9976    0.2977    0.2073 N.ar    1  UNL1       -0.2199
     26 H          -7.8857    0.9414   -1.2773 H       1  UNL1        0.0308
     27 H          -6.9999    2.0140   -0.0686 H       1  UNL1        0.0308
     28 H          -7.9346    0.6203    0.5504 H       1  UNL1        0.0308
     29 H          -1.1789    0.4225   -1.7743 H       1  UNL1        0.0508
     30 H          -1.9254   -1.1997   -1.7148 H       1  UNL1        0.0508
     31 H           0.4479   -1.2000   -2.5214 H       1  UNL1        0.0482
     32 H           0.0646   -2.2974   -1.0914 H       1  UNL1        0.0482
     33 H           4.6614   -1.3791   -0.1051 H       1  UNL1        0.0625
     34 H           6.4699   -0.1521    1.0746 H       1  UNL1        0.0618
     35 H           6.3809    2.2478    1.2990 H       1  UNL1        0.0632
     36 H           2.6784    2.2732   -0.8251 H       1  UNL1        0.0640
     37 H           1.4252    0.5893    1.0857 H       1  UNL1        0.0579
     38 H           0.8342   -1.8241    2.3253 H       1  UNL1        0.0252
     39 H           2.5075   -1.1302    2.0510 H       1  UNL1        0.0252
     40 H           1.7565   -2.3441    0.8958 H       1  UNL1        0.0252
@<TRIPOS>BOND
     1     1     2    1
     2     2     3   ar
     3     3     4   ar
     4     4     5   ar
     5     5     6    1
     6     6     7   ar
     7     7     8   ar
     8     8     9   ar
     9     9    10   ar
    10    10    11    1
    11    11    12    1
    12    12    13    1
    13    13    14   am
    14    14    15    2
    15    14    16    1
    16    16    17   ar
    17    17    18   ar
    18    18    19   ar
    19    19    20   ar
    20    20    21    1
    21    20    22   ar
    22    13    23    1
    23    23    24    1
    24     5    25   ar
    25    25     2   ar
    26    10     6   ar
    27    22    16   ar
    28    23     9    1
    29     1    26    1
    30     1    27    1
    31     1    28    1
    32    11    29    1
    33    11    30    1
    34    12    31    1
    35    12    32    1
    36    17    33    1
    37    18    34    1
    38    19    35    1
    39    22    36    1
    40    23    37    1
    41    24    38    1
    42    24    39    1
    43    24    40    1
