
     RDKit          3D

 69 72  0  0  0  0  0  0  0  0999 V2000
   -6.9645   -2.0343    1.3955 C   0  0  0  0  0  0  0  0  0  0  0  0
   -5.6050   -1.4310    1.3294 C   0  0  0  0  0  0  0  0  0  0  0  0
   -5.4337   -0.0825    1.5638 C   0  0  0  0  0  0  0  0  0  0  0  0
   -4.1720    0.5008    1.5071 C   0  0  0  0  0  0  0  0  0  0  0  0
   -3.0422   -0.2328    1.2165 C   0  0  0  0  0  0  0  0  0  0  0  0
   -1.7276    0.3850    1.1659 C   0  0  0  0  0  0  0  0  0  0  0  0
   -1.1985    0.6941    2.2898 O   0  0  0  0  0  0  0  0  0  0  0  0
   -1.0031    0.6611   -0.0530 N   0  0  0  0  0  0  0  0  0  0  0  0
   -1.7004    0.3032   -1.2357 C   0  0  0  0  0  0  0  0  0  0  0  0
   -2.6886    1.2195   -1.8263 C   0  0  0  0  0  0  0  0  0  0  0  0
   -3.2404    0.4942   -3.0827 C   0  0  0  0  0  0  0  0  0  0  0  0
   -3.8595   -0.7482   -2.7592 N   0  0  0  0  0  0  0  0  0  0  0  0
    0.3345    1.1335    0.1307 C   0  0  0  0  0  0  0  0  0  0  0  0
    1.3548    0.3681   -0.6127 C   0  0  0  0  0  0  0  0  0  0  0  0
    1.4738    0.5432   -1.9226 N   0  0  0  0  0  0  0  0  0  0  0  0
    2.3765   -0.1969   -2.6950 C   0  0  0  0  0  0  0  0  0  0  0  0
    2.7259   -0.1800   -4.3509 S   0  0  0  0  0  0  0  0  0  0  0  0
    3.9898   -1.4716   -4.3077 N   0  0  0  0  0  0  0  0  0  0  0  0
    4.0179   -1.8088   -2.9317 C   0  0  0  0  0  0  0  0  0  0  0  0
    4.9940   -2.9044   -2.4846 C   0  0  0  0  0  0  0  0  0  0  0  0
    3.1662   -1.1205   -2.1477 C   0  0  0  0  0  0  0  0  0  0  0  0
    3.0250   -1.2922   -0.7505 C   0  0  0  0  0  0  0  0  0  0  0  0
    3.7204   -2.1361   -0.1362 O   0  0  0  0  0  0  0  0  0  0  0  0
    2.1305   -0.5459   -0.0389 N   0  0  0  0  0  0  0  0  0  0  0  0
    2.0284   -0.8537    1.3630 C   0  0  0  0  0  0  0  0  0  0  0  0
    2.9930   -0.2718    2.2811 C   0  0  0  0  0  0  0  0  0  0  0  0
    4.0531   -1.0747    2.7430 C   0  0  0  0  0  0  0  0  0  0  0  0
    5.0261   -0.6524    3.6001 C   0  0  0  0  0  0  0  0  0  0  0  0
    4.9881    0.6371    4.0555 C   0  0  0  0  0  0  0  0  0  0  0  0
    3.9900    1.4797    3.6542 C   0  0  0  0  0  0  0  0  0  0  0  0
    3.0149    1.0116    2.7781 C   0  0  0  0  0  0  0  0  0  0  0  0
    0.4973    2.5895   -0.2487 C   0  0  0  0  0  0  0  0  0  0  0  0
    0.2106    2.9630   -1.6516 C   0  0  0  0  0  0  0  0  0  0  0  0
    1.9928    2.9055   -0.0307 C   0  0  0  0  0  0  0  0  0  0  0  0
   -3.2356   -1.5806    0.9852 C   0  0  0  0  0  0  0  0  0  0  0  0
   -4.4823   -2.1692    1.0391 C   0  0  0  0  0  0  0  0  0  0  0  0
   -7.0184   -2.8355    2.1651 H   0  0  0  0  0  0  0  0  0  0  0  0
   -7.1420   -2.5241    0.4215 H   0  0  0  0  0  0  0  0  0  0  0  0
   -7.7031   -1.2833    1.6809 H   0  0  0  0  0  0  0  0  0  0  0  0
   -6.3161    0.5229    1.7973 H   0  0  0  0  0  0  0  0  0  0  0  0
   -4.1245    1.5397    1.7035 H   0  0  0  0  0  0  0  0  0  0  0  0
   -2.2381   -0.6735   -1.0546 H   0  0  0  0  0  0  0  0  0  0  0  0
   -0.9543    0.0101   -2.0332 H   0  0  0  0  0  0  0  0  0  0  0  0
   -3.5640    1.4022   -1.1575 H   0  0  0  0  0  0  0  0  0  0  0  0
   -2.3796    2.1862   -2.2152 H   0  0  0  0  0  0  0  0  0  0  0  0
   -2.4031    0.3625   -3.7656 H   0  0  0  0  0  0  0  0  0  0  0  0
   -3.9487    1.1937   -3.5500 H   0  0  0  0  0  0  0  0  0  0  0  0
   -3.1990   -1.5341   -2.6300 H   0  0  0  0  0  0  0  0  0  0  0  0
   -4.5567   -0.6132   -2.0242 H   0  0  0  0  0  0  0  0  0  0  0  0
    0.5142    1.1355    1.2338 H   0  0  0  0  0  0  0  0  0  0  0  0
    4.5052   -3.5861   -1.7698 H   0  0  0  0  0  0  0  0  0  0  0  0
    5.8244   -2.4035   -1.9480 H   0  0  0  0  0  0  0  0  0  0  0  0
    5.3962   -3.4266   -3.3442 H   0  0  0  0  0  0  0  0  0  0  0  0
    0.9823   -0.7384    1.7150 H   0  0  0  0  0  0  0  0  0  0  0  0
    2.1612   -1.9886    1.4146 H   0  0  0  0  0  0  0  0  0  0  0  0
    4.1158   -2.1090    2.4291 H   0  0  0  0  0  0  0  0  0  0  0  0
    5.8238   -1.3069    3.9283 H   0  0  0  0  0  0  0  0  0  0  0  0
    5.7537    0.9743    4.7320 H   0  0  0  0  0  0  0  0  0  0  0  0
    3.9424    2.5069    4.0043 H   0  0  0  0  0  0  0  0  0  0  0  0
    2.2548    1.6966    2.5043 H   0  0  0  0  0  0  0  0  0  0  0  0
   -0.0415    3.2466    0.4939 H   0  0  0  0  0  0  0  0  0  0  0  0
   -0.0468    2.1866   -2.3584 H   0  0  0  0  0  0  0  0  0  0  0  0
    1.0514    3.5825   -2.1135 H   0  0  0  0  0  0  0  0  0  0  0  0
   -0.6485    3.7073   -1.6784 H   0  0  0  0  0  0  0  0  0  0  0  0
    2.3584    3.6093   -0.8354 H   0  0  0  0  0  0  0  0  0  0  0  0
    2.1581    3.4598    0.9048 H   0  0  0  0  0  0  0  0  0  0  0  0
    2.6215    2.0162   -0.0897 H   0  0  0  0  0  0  0  0  0  0  0  0
   -2.3479   -2.1923    0.7563 H   0  0  0  0  0  0  0  0  0  0  0  0
   -4.5817   -3.2255    0.8513 H   0  0  0  0  0  0  0  0  0  0  0  0
  1  2  1  0
  2  3  2  0
  3  4  1  0
  4  5  2  0
  5  6  1  0
  6  7  2  0
  6  8  1  0
  8  9  1  0
  9 10  1  0
 10 11  1  0
 11 12  1  0
  8 13  1  0
 13 14  1  0
 14 15  2  0
 15 16  1  0
 16 17  1  0
 17 18  1  0
 18 19  2  0
 19 20  1  0
 19 21  1  0
 21 22  1  0
 22 23  2  0
 22 24  1  0
 24 25  1  0
 25 26  1  0
 26 27  2  0
 27 28  1  0
 28 29  2  0
 29 30  1  0
 30 31  2  0
 13 32  1  0
 32 33  1  0
 32 34  1  0
  5 35  1  0
 35 36  2  0
 36  2  1  0
 24 14  1  0
 31 26  1  0
 21 16  2  0
  1 37  1  0
  1 38  1  0
  1 39  1  0
  3 40  1  0
  4 41  1  0
  9 42  1  0
  9 43  1  0
 10 44  1  0
 10 45  1  0
 11 46  1  0
 11 47  1  0
 12 48  1  0
 12 49  1  0
 13 50  1  0
 20 51  1  0
 20 52  1  0
 20 53  1  0
 25 54  1  0
 25 55  1  0
 27 56  1  0
 28 57  1  0
 29 58  1  0
 30 59  1  0
 31 60  1  0
 32 61  1  0
 33 62  1  0
 33 63  1  0
 33 64  1  0
 34 65  1  0
 34 66  1  0
 34 67  1  0
 35 68  1  0
 36 69  1  0
M  END
$$$$
