@<TRIPOS>MOLECULE
*****
 69 72 0 0 0
SMALL
GASTEIGER

@<TRIPOS>ATOM
      1 C          -6.9645   -2.0343    1.3955 C.3     1  UNL1       -0.0397
      2 C          -5.6050   -1.4310    1.3294 C.ar    1  UNL1       -0.0504
      3 C          -5.4337   -0.0825    1.5638 C.ar    1  UNL1       -0.0581
      4 C          -4.1720    0.5008    1.5071 C.ar    1  UNL1       -0.0494
      5 C          -3.0422   -0.2328    1.2165 C.ar    1  UNL1        0.0369
      6 C          -1.7276    0.3850    1.1659 C.2     1  UNL1        0.2472
      7 O          -1.1985    0.6941    2.2898 O.2     1  UNL1       -0.2700
      8 N          -1.0031    0.6611   -0.0530 N.am    1  UNL1       -0.2872
      9 C          -1.7004    0.3032   -1.2357 C.3     1  UNL1        0.0169
     10 C          -2.6886    1.2195   -1.8263 C.3     1  UNL1       -0.0247
     11 C          -3.2404    0.4942   -3.0827 C.3     1  UNL1       -0.0055
     12 N          -3.8595   -0.7482   -2.7592 N.3     1  UNL1       -0.3299
     13 C           0.3345    1.1335    0.1307 C.3     1  UNL1        0.0867
     14 C           1.3548    0.3681   -0.6127 C.ar    1  UNL1        0.1348
     15 N           1.4738    0.5432   -1.9226 N.ar    1  UNL1       -0.2229
     16 C           2.3765   -0.1969   -2.6950 C.ar    1  UNL1        0.1352
     17 S           2.7259   -0.1800   -4.3509 S.2     1  UNL1        0.0322
     18 N           3.9898   -1.4716   -4.3077 N.ar    1  UNL1       -0.2128
     19 C           4.0179   -1.8088   -2.9317 C.ar    1  UNL1        0.0617
     20 C           4.9940   -2.9044   -2.4846 C.3     1  UNL1       -0.0209
     21 C           3.1662   -1.1205   -2.1477 C.ar    1  UNL1        0.0946
     22 C           3.0250   -1.2922   -0.7505 C.ar    1  UNL1        0.2645
     23 O           3.7204   -2.1361   -0.1362 O.2     1  UNL1       -0.2668
     24 N           2.1305   -0.5459   -0.0389 N.ar    1  UNL1       -0.2902
     25 C           2.0284   -0.8537    1.3630 C.3     1  UNL1        0.0528
     26 C           2.9930   -0.2718    2.2811 C.ar    1  UNL1       -0.0276
     27 C           4.0531   -1.0747    2.7430 C.ar    1  UNL1       -0.0569
     28 C           5.0261   -0.6524    3.6001 C.ar    1  UNL1       -0.0614
     29 C           4.9881    0.6371    4.0555 C.ar    1  UNL1       -0.0617
     30 C           3.9900    1.4797    3.6542 C.ar    1  UNL1       -0.0614
     31 C           3.0149    1.0116    2.7781 C.ar    1  UNL1       -0.0569
     32 C           0.4973    2.5895   -0.2487 C.3     1  UNL1       -0.0210
     33 C           0.2106    2.9630   -1.6516 C.3     1  UNL1       -0.0606
     34 C           1.9928    2.9055   -0.0307 C.3     1  UNL1       -0.0606
     35 C          -3.2356   -1.5806    0.9852 C.ar    1  UNL1       -0.0494
     36 C          -4.4823   -2.1692    1.0391 C.ar    1  UNL1       -0.0581
     37 H          -7.0184   -2.8355    2.1651 H       1  UNL1        0.0278
     38 H          -7.1420   -2.5241    0.4215 H       1  UNL1        0.0278
     39 H          -7.7031   -1.2833    1.6809 H       1  UNL1        0.0278
     40 H          -6.3161    0.5229    1.7973 H       1  UNL1        0.0620
     41 H          -4.1245    1.5397    1.7035 H       1  UNL1        0.0625
     42 H          -2.2381   -0.6735   -1.0546 H       1  UNL1        0.0465
     43 H          -0.9543    0.0101   -2.0332 H       1  UNL1        0.0465
     44 H          -3.5640    1.4022   -1.1575 H       1  UNL1        0.0293
     45 H          -2.3796    2.1862   -2.2152 H       1  UNL1        0.0293
     46 H          -2.4031    0.3625   -3.7656 H       1  UNL1        0.0422
     47 H          -3.9487    1.1937   -3.5500 H       1  UNL1        0.0422
     48 H          -3.1990   -1.5341   -2.6300 H       1  UNL1        0.1182
     49 H          -4.5567   -0.6132   -2.0242 H       1  UNL1        0.1182
     50 H           0.5142    1.1355    1.2338 H       1  UNL1        0.0584
     51 H           4.5052   -3.5861   -1.7698 H       1  UNL1        0.0293
     52 H           5.8244   -2.4035   -1.9480 H       1  UNL1        0.0293
     53 H           5.3962   -3.4266   -3.3442 H       1  UNL1        0.0293
     54 H           0.9823   -0.7384    1.7150 H       1  UNL1        0.0543
     55 H           2.1612   -1.9886    1.4146 H       1  UNL1        0.0543
     56 H           4.1158   -2.1090    2.4291 H       1  UNL1        0.0621
     57 H           5.8238   -1.3069    3.9283 H       1  UNL1        0.0618
     58 H           5.7537    0.9743    4.7320 H       1  UNL1        0.0618
     59 H           3.9424    2.5069    4.0043 H       1  UNL1        0.0618
     60 H           2.2548    1.6966    2.5043 H       1  UNL1        0.0621
     61 H          -0.0415    3.2466    0.4939 H       1  UNL1        0.0318
     62 H          -0.0468    2.1866   -2.3584 H       1  UNL1        0.0233
     63 H           1.0514    3.5825   -2.1135 H       1  UNL1        0.0233
     64 H          -0.6485    3.7073   -1.6784 H       1  UNL1        0.0233
     65 H           2.3584    3.6093   -0.8354 H       1  UNL1        0.0233
     66 H           2.1581    3.4598    0.9048 H       1  UNL1        0.0233
     67 H           2.6215    2.0162   -0.0897 H       1  UNL1        0.0233
     68 H          -2.3479   -2.1923    0.7563 H       1  UNL1        0.0625
     69 H          -4.5817   -3.2255    0.8513 H       1  UNL1        0.0620
@<TRIPOS>BOND
     1     1     2    1
     2     2     3   ar
     3     3     4   ar
     4     4     5   ar
     5     5     6    1
     6     6     7    2
     7     6     8   am
     8     8     9    1
     9     9    10    1
    10    10    11    1
    11    11    12    1
    12     8    13    1
    13    13    14    1
    14    14    15   ar
    15    15    16   ar
    16    16    17   ar
    17    17    18   ar
    18    18    19   ar
    19    19    20    1
    20    19    21   ar
    21    21    22   ar
    22    22    23    2
    23    22    24   ar
    24    24    25    1
    25    25    26    1
    26    26    27   ar
    27    27    28   ar
    28    28    29   ar
    29    29    30   ar
    30    30    31   ar
    31    13    32    1
    32    32    33    1
    33    32    34    1
    34     5    35   ar
    35    35    36   ar
    36    36     2   ar
    37    24    14   ar
    38    31    26   ar
    39    21    16   ar
    40     1    37    1
    41     1    38    1
    42     1    39    1
    43     3    40    1
    44     4    41    1
    45     9    42    1
    46     9    43    1
    47    10    44    1
    48    10    45    1
    49    11    46    1
    50    11    47    1
    51    12    48    1
    52    12    49    1
    53    13    50    1
    54    20    51    1
    55    20    52    1
    56    20    53    1
    57    25    54    1
    58    25    55    1
    59    27    56    1
    60    28    57    1
    61    29    58    1
    62    30    59    1
    63    31    60    1
    64    32    61    1
    65    33    62    1
    66    33    63    1
    67    33    64    1
    68    34    65    1
    69    34    66    1
    70    34    67    1
    71    35    68    1
    72    36    69    1
