@<TRIPOS>MOLECULE
*****
 60 63 0 0 0
SMALL
GASTEIGER

@<TRIPOS>ATOM
      1 C          -7.0524   -2.6185   -0.2670 C.3     1  UNL1        0.0790
      2 O          -6.7789   -1.2798   -0.6402 O.3     1  UNL1       -0.4914
      3 C          -5.6623   -0.6027   -0.1342 C.ar    1  UNL1        0.1618
      4 C          -4.8205   -1.2471    0.7368 C.ar    1  UNL1       -0.0124
      5 C          -3.6965   -0.5808    1.2527 C.ar    1  UNL1       -0.0325
      6 C          -3.4683    0.7128    0.8665 C.ar    1  UNL1        0.0246
      7 C          -4.3568    1.3317   -0.0269 C.ar    1  UNL1       -0.0056
      8 C          -5.4601    0.6965   -0.5413 C.ar    1  UNL1        0.1622
      9 O          -6.3598    1.2658   -1.4217 O.3     1  UNL1       -0.4914
     10 C          -6.2868    2.5641   -1.9203 C.3     1  UNL1        0.0790
     11 C          -2.2597    1.1875    1.5262 C.2     1  UNL1        0.1669
     12 O          -1.7769    2.3533    1.3176 O.2     1  UNL1       -0.2917
     13 C          -1.7630    0.1336    2.4059 C.3     1  UNL1        0.0264
     14 C          -0.3136   -0.1836    2.2909 C.3     1  UNL1       -0.0399
     15 C           0.2229   -0.6742    1.0165 C.3     1  UNL1       -0.0381
     16 C           0.0472    0.3067   -0.0976 C.3     1  UNL1       -0.0373
     17 C           0.9328   -0.2044   -1.2484 C.3     1  UNL1       -0.0005
     18 N           2.2841    0.2280   -0.9120 N.3     1  UNL1       -0.2981
     19 C           3.2643   -0.3049   -1.7852 C.3     1  UNL1        0.0240
     20 C           4.6129    0.1694   -1.4219 C.ar    1  UNL1       -0.0331
     21 C           5.0073    1.4098   -1.9369 C.ar    1  UNL1       -0.0573
     22 C           6.2527    1.9377   -1.6785 C.ar    1  UNL1       -0.0612
     23 C           7.1455    1.2424   -0.8963 C.ar    1  UNL1       -0.0588
     24 C           6.7837    0.0229   -0.3786 C.ar    1  UNL1       -0.0501
     25 C           7.6946   -0.7867    0.4752 C.3     1  UNL1       -0.0397
     26 C           5.5230   -0.4868   -0.6540 C.ar    1  UNL1       -0.0544
     27 C           2.5319    0.1893    0.4809 C.3     1  UNL1       -0.0005
     28 C           1.7351   -0.8881    1.1950 C.3     1  UNL1       -0.0373
     29 C          -2.6490   -1.0356    2.1871 C.3     1  UNL1       -0.0170
     30 H          -6.9665   -2.6678    0.8489 H       1  UNL1        0.0660
     31 H          -8.0897   -2.8835   -0.5148 H       1  UNL1        0.0660
     32 H          -6.3095   -3.2749   -0.7413 H       1  UNL1        0.0660
     33 H          -4.9765   -2.2744    1.0615 H       1  UNL1        0.0658
     34 H          -4.1666    2.3490   -0.3231 H       1  UNL1        0.0662
     35 H          -5.9019    3.2248   -1.0966 H       1  UNL1        0.0660
     36 H          -5.5763    2.6976   -2.7578 H       1  UNL1        0.0660
     37 H          -7.3118    2.9312   -2.1553 H       1  UNL1        0.0660
     38 H          -1.9948    0.4857    3.4728 H       1  UNL1        0.0384
     39 H          -0.0916   -0.9338    3.1133 H       1  UNL1        0.0275
     40 H           0.2510    0.7318    2.6543 H       1  UNL1        0.0275
     41 H          -0.1502   -1.6956    0.7372 H       1  UNL1        0.0302
     42 H           0.4506    1.2876    0.2649 H       1  UNL1        0.0280
     43 H          -0.9674    0.4708   -0.4479 H       1  UNL1        0.0280
     44 H           0.9145   -1.2989   -1.2442 H       1  UNL1        0.0427
     45 H           0.5626    0.2052   -2.1877 H       1  UNL1        0.0427
     46 H           3.2164   -1.4328   -1.7460 H       1  UNL1        0.0476
     47 H           3.0379   -0.0412   -2.8636 H       1  UNL1        0.0476
     48 H           4.3228    1.9606   -2.5465 H       1  UNL1        0.0621
     49 H           6.5007    2.9053   -2.1068 H       1  UNL1        0.0618
     50 H           8.1147    1.6319   -0.6832 H       1  UNL1        0.0620
     51 H           7.6839   -1.8526    0.1848 H       1  UNL1        0.0278
     52 H           7.4086   -0.6546    1.5293 H       1  UNL1        0.0278
     53 H           8.7392   -0.4326    0.3578 H       1  UNL1        0.0278
     54 H           5.2315   -1.4645   -0.2456 H       1  UNL1        0.0623
     55 H           3.5871   -0.0268    0.6847 H       1  UNL1        0.0427
     56 H           2.3483    1.1905    0.9717 H       1  UNL1        0.0427
     57 H           2.0740   -1.8605    0.8272 H       1  UNL1        0.0280
     58 H           2.0180   -0.8258    2.2640 H       1  UNL1        0.0280
     59 H          -3.1484   -1.4069    3.1054 H       1  UNL1        0.0320
     60 H          -2.1439   -1.9030    1.7117 H       1  UNL1        0.0320
@<TRIPOS>BOND
     1     1     2    1
     2     2     3    1
     3     3     4   ar
     4     4     5   ar
     5     5     6   ar
     6     6     7   ar
     7     7     8   ar
     8     8     9    1
     9     9    10    1
    10     6    11    1
    11    11    12    2
    12    11    13    1
    13    13    14    1
    14    14    15    1
    15    15    16    1
    16    16    17    1
    17    17    18    1
    18    18    19    1
    19    19    20    1
    20    20    21   ar
    21    21    22   ar
    22    22    23   ar
    23    23    24   ar
    24    24    25    1
    25    24    26   ar
    26    18    27    1
    27    27    28    1
    28    13    29    1
    29     8     3   ar
    30    28    15    1
    31    29     5    1
    32    26    20   ar
    33     1    30    1
    34     1    31    1
    35     1    32    1
    36     4    33    1
    37     7    34    1
    38    10    35    1
    39    10    36    1
    40    10    37    1
    41    13    38    1
    42    14    39    1
    43    14    40    1
    44    15    41    1
    45    16    42    1
    46    16    43    1
    47    17    44    1
    48    17    45    1
    49    19    46    1
    50    19    47    1
    51    21    48    1
    52    22    49    1
    53    23    50    1
    54    25    51    1
    55    25    52    1
    56    25    53    1
    57    26    54    1
    58    27    55    1
    59    27    56    1
    60    28    57    1
    61    28    58    1
    62    29    59    1
    63    29    60    1
