
     RDKit          3D

 62 68  0  0  0  0  0  0  0  0999 V2000
    7.9126    0.4865   -1.7592 C   0  0  0  0  0  0  0  0  0  0  0  0
    7.5816   -0.4768   -0.7680 N   0  0  0  0  0  0  0  0  0  0  0  0
    6.9727    0.1160    0.4237 C   0  0  0  0  0  0  0  0  0  0  0  0
    5.8194   -0.7885    0.7976 C   0  0  2  0  0  0  0  0  0  0  0  0
    6.3668   -2.1176    0.2325 C   0  0  0  0  0  0  0  0  0  0  0  0
    6.6673   -1.5044   -1.1536 C   0  0  1  0  0  0  0  0  0  0  0  0
    5.2993   -0.9127   -1.4432 C   0  0  0  0  0  0  0  0  0  0  0  0
    4.7661   -0.5509   -0.1417 N   0  0  0  0  0  0  0  0  0  0  0  0
    3.4747   -0.0632    0.1818 C   0  0  0  0  0  0  0  0  0  0  0  0
    3.1254    0.2887    1.4649 C   0  0  0  0  0  0  0  0  0  0  0  0
    1.8673    0.7578    1.7764 C   0  0  0  0  0  0  0  0  0  0  0  0
    0.8851    0.9018    0.8195 C   0  0  0  0  0  0  0  0  0  0  0  0
   -0.4468    1.4027    1.1821 C   0  0  0  0  0  0  0  0  0  0  0  0
   -0.5319    2.5021    2.0126 C   0  0  0  0  0  0  0  0  0  0  0  0
   -1.7451    3.0225    2.3987 C   0  0  0  0  0  0  0  0  0  0  0  0
   -2.8557    2.4257    1.9411 N   0  0  0  0  0  0  0  0  0  0  0  0
   -2.7526    1.3549    1.1324 C   0  0  0  0  0  0  0  0  0  0  0  0
   -3.7737    0.5903    0.5494 C   0  0  0  0  0  0  0  0  0  0  0  0
   -5.1756    0.8256    0.7270 C   0  0  0  0  0  0  0  0  0  0  0  0
   -6.0146    1.1365   -0.3089 C   0  0  0  0  0  0  0  0  0  0  0  0
   -7.3756    1.3593   -0.0902 C   0  0  0  0  0  0  0  0  0  0  0  0
   -7.9268    1.2759    1.1705 C   0  0  0  0  0  0  0  0  0  0  0  0
   -7.0860    0.9630    2.2171 C   0  0  0  0  0  0  0  0  0  0  0  0
   -7.5969    0.8687    3.4993 O   0  0  0  0  0  0  0  0  0  0  0  0
   -5.7416    0.7432    1.9991 C   0  0  0  0  0  0  0  0  0  0  0  0
   -3.1292   -0.3705   -0.1731 C   0  0  0  0  0  0  0  0  0  0  0  0
   -3.8012   -1.3956   -0.9538 C   0  0  0  0  0  0  0  0  0  0  0  0
   -4.6143   -2.2860   -0.2828 C   0  0  0  0  0  0  0  0  0  0  0  0
   -5.2758   -3.2807   -0.9779 C   0  0  0  0  0  0  0  0  0  0  0  0
   -5.1140   -3.3638   -2.3067 N   0  0  0  0  0  0  0  0  0  0  0  0
   -4.3309   -2.5180   -3.0078 C   0  0  0  0  0  0  0  0  0  0  0  0
   -3.6764   -1.5321   -2.3123 C   0  0  0  0  0  0  0  0  0  0  0  0
   -1.7981   -0.1834   -0.0243 N   0  0  0  0  0  0  0  0  0  0  0  0
   -1.5851    0.8445    0.7532 N   0  0  0  0  0  0  0  0  0  0  0  0
    1.2274    0.5515   -0.4686 C   0  0  0  0  0  0  0  0  0  0  0  0
    2.4849    0.0812   -0.7881 C   0  0  0  0  0  0  0  0  0  0  0  0
    8.1403    1.4654   -1.2543 H   0  0  0  0  0  0  0  0  0  0  0  0
    8.9058    0.1766   -2.1999 H   0  0  0  0  0  0  0  0  0  0  0  0
    7.2264    0.5868   -2.5968 H   0  0  0  0  0  0  0  0  0  0  0  0
    7.6933    0.1862    1.2652 H   0  0  0  0  0  0  0  0  0  0  0  0
    6.5614    1.0966    0.1110 H   0  0  0  0  0  0  0  0  0  0  0  0
    5.5878   -0.8386    1.8351 H   0  0  0  0  0  0  0  0  0  0  0  0
    7.2803   -2.4268    0.7407 H   0  0  0  0  0  0  0  0  0  0  0  0
    5.5766   -2.8649    0.1658 H   0  0  0  0  0  0  0  0  0  0  0  0
    7.0095   -2.2291   -1.8625 H   0  0  0  0  0  0  0  0  0  0  0  0
    4.6461   -1.6103   -1.9963 H   0  0  0  0  0  0  0  0  0  0  0  0
    5.3507    0.0211   -2.0323 H   0  0  0  0  0  0  0  0  0  0  0  0
    3.8938    0.1826    2.2428 H   0  0  0  0  0  0  0  0  0  0  0  0
    1.6201    1.0302    2.8098 H   0  0  0  0  0  0  0  0  0  0  0  0
    0.3884    2.9488    2.3558 H   0  0  0  0  0  0  0  0  0  0  0  0
   -1.8041    3.8939    3.0572 H   0  0  0  0  0  0  0  0  0  0  0  0
   -5.5870    1.2027   -1.2970 H   0  0  0  0  0  0  0  0  0  0  0  0
   -8.0250    1.6043   -0.9228 H   0  0  0  0  0  0  0  0  0  0  0  0
   -8.9937    1.4542    1.3160 H   0  0  0  0  0  0  0  0  0  0  0  0
   -7.7188    1.7148    4.0388 H   0  0  0  0  0  0  0  0  0  0  0  0
   -5.1086    0.4974    2.8558 H   0  0  0  0  0  0  0  0  0  0  0  0
   -4.7704   -2.2526    0.7854 H   0  0  0  0  0  0  0  0  0  0  0  0
   -5.9211   -3.9848   -0.4310 H   0  0  0  0  0  0  0  0  0  0  0  0
   -4.2284   -2.6248   -4.0997 H   0  0  0  0  0  0  0  0  0  0  0  0
   -3.0454   -0.8456   -2.8502 H   0  0  0  0  0  0  0  0  0  0  0  0
    0.4584    0.6596   -1.2454 H   0  0  0  0  0  0  0  0  0  0  0  0
    2.7614   -0.1978   -1.8077 H   0  0  0  0  0  0  0  0  0  0  0  0
  1  2  1  0
  2  3  1  0
  3  4  1  0
  4  5  1  0
  5  6  1  0
  6  7  1  0
  7  8  1  0
  8  9  1  0
  9 10  2  0
 10 11  1  0
 11 12  2  0
 12 13  1  0
 13 14  2  0
 14 15  1  0
 15 16  2  0
 16 17  1  0
 17 18  2  0
 18 19  1  0
 19 20  2  0
 20 21  1  0
 21 22  2  0
 22 23  1  0
 23 24  1  0
 23 25  2  0
 18 26  1  0
 26 27  1  0
 27 28  2  0
 28 29  1  0
 29 30  2  0
 30 31  1  0
 31 32  2  0
 26 33  2  0
 33 34  1  0
 12 35  1  0
 35 36  2  0
  6  2  1  0
 36  9  1  0
  8  4  1  0
 34 13  1  0
 34 17  1  0
 25 19  1  0
 32 27  1  0
  1 37  1  0
  1 38  1  0
  1 39  1  0
  3 40  1  0
  3 41  1  0
  4 42  1  1
  5 43  1  0
  5 44  1  0
  6 45  1  6
  7 46  1  0
  7 47  1  0
 10 48  1  0
 11 49  1  0
 14 50  1  0
 15 51  1  0
 20 52  1  0
 21 53  1  0
 22 54  1  0
 24 55  1  0
 25 56  1  0
 28 57  1  0
 29 58  1  0
 31 59  1  0
 32 60  1  0
 35 61  1  0
 36 62  1  0
M  END
$$$$
