@<TRIPOS>MOLECULE
*****
 62 68 0 0 0
SMALL
GASTEIGER

@<TRIPOS>ATOM
      1 C           7.9126    0.4865   -1.7592 C.3     1  UNL1       -0.0124
      2 N           7.5816   -0.4768   -0.7680 N.3     1  UNL1       -0.2991
      3 C           6.9727    0.1160    0.4237 C.3     1  UNL1        0.0176
      4 C           5.8194   -0.7885    0.7976 C.3     1  UNL1        0.0377
      5 C           6.3668   -2.1176    0.2325 C.3     1  UNL1       -0.0161
      6 C           6.6673   -1.5044   -1.1536 C.3     1  UNL1        0.0276
      7 C           5.2993   -0.9127   -1.4432 C.3     1  UNL1        0.0282
      8 N           4.7661   -0.5509   -0.1417 N.pl3   1  UNL1       -0.3241
      9 C           3.4747   -0.0632    0.1818 C.ar    1  UNL1        0.0300
     10 C           3.1254    0.2887    1.4649 C.ar    1  UNL1       -0.0400
     11 C           1.8673    0.7578    1.7764 C.ar    1  UNL1       -0.0508
     12 C           0.8851    0.9018    0.8195 C.ar    1  UNL1        0.0006
     13 C          -0.4468    1.4027    1.1821 C.ar    1  UNL1        0.0763
     14 C          -0.5319    2.5021    2.0126 C.ar    1  UNL1       -0.0174
     15 C          -1.7451    3.0225    2.3987 C.ar    1  UNL1        0.0320
     16 N          -2.8557    2.4257    1.9411 N.ar    1  UNL1       -0.2355
     17 C          -2.7526    1.3549    1.1324 C.ar    1  UNL1        0.1644
     18 C          -3.7737    0.5903    0.5494 C.ar    1  UNL1        0.0540
     19 C          -5.1756    0.8256    0.7270 C.ar    1  UNL1       -0.0088
     20 C          -6.0146    1.1365   -0.3089 C.ar    1  UNL1       -0.0536
     21 C          -7.3756    1.3593   -0.0902 C.ar    1  UNL1       -0.0577
     22 C          -7.9268    1.2759    1.1705 C.ar    1  UNL1       -0.0201
     23 C          -7.0860    0.9630    2.2171 C.ar    1  UNL1        0.1174
     24 O          -7.5969    0.8687    3.4993 O.3     1  UNL1       -0.5067
     25 C          -5.7416    0.7432    1.9991 C.ar    1  UNL1       -0.0123
     26 C          -3.1292   -0.3705   -0.1731 C.ar    1  UNL1        0.1031
     27 C          -3.8012   -1.3956   -0.9538 C.ar    1  UNL1        0.0056
     28 C          -4.6143   -2.2860   -0.2828 C.ar    1  UNL1       -0.0343
     29 C          -5.2758   -3.2807   -0.9779 C.ar    1  UNL1        0.0282
     30 N          -5.1140   -3.3638   -2.3067 N.ar    1  UNL1       -0.2632
     31 C          -4.3309   -2.5180   -3.0078 C.ar    1  UNL1        0.0282
     32 C          -3.6764   -1.5321   -2.3123 C.ar    1  UNL1       -0.0343
     33 N          -1.7981   -0.1834   -0.0243 N.ar    1  UNL1       -0.1638
     34 N          -1.5851    0.8445    0.7532 N.ar    1  UNL1       -0.2128
     35 C           1.2274    0.5515   -0.4686 C.ar    1  UNL1       -0.0508
     36 C           2.4849    0.0812   -0.7881 C.ar    1  UNL1       -0.0400
     37 H           8.1403    1.4654   -1.2543 H       1  UNL1        0.0391
     38 H           8.9058    0.1766   -2.1999 H       1  UNL1        0.0391
     39 H           7.2264    0.5868   -2.5968 H       1  UNL1        0.0391
     40 H           7.6933    0.1862    1.2652 H       1  UNL1        0.0445
     41 H           6.5614    1.0966    0.1110 H       1  UNL1        0.0445
     42 H           5.5878   -0.8386    1.8351 H       1  UNL1        0.0513
     43 H           7.2803   -2.4268    0.7407 H       1  UNL1        0.0299
     44 H           5.5766   -2.8649    0.1658 H       1  UNL1        0.0299
     45 H           7.0095   -2.2291   -1.8625 H       1  UNL1        0.0478
     46 H           4.6461   -1.6103   -1.9963 H       1  UNL1        0.0479
     47 H           5.3507    0.0211   -2.0323 H       1  UNL1        0.0479
     48 H           3.8938    0.1826    2.2428 H       1  UNL1        0.0636
     49 H           1.6201    1.0302    2.8098 H       1  UNL1        0.0625
     50 H           0.3884    2.9488    2.3558 H       1  UNL1        0.0654
     51 H          -1.8041    3.8939    3.0572 H       1  UNL1        0.0831
     52 H          -5.5870    1.2027   -1.2970 H       1  UNL1        0.0624
     53 H          -8.0250    1.6043   -0.9228 H       1  UNL1        0.0619
     54 H          -8.9937    1.4542    1.3160 H       1  UNL1        0.0654
     55 H          -7.7188    1.7148    4.0388 H       1  UNL1        0.2921
     56 H          -5.1086    0.4974    2.8558 H       1  UNL1        0.0660
     57 H          -4.7704   -2.2526    0.7854 H       1  UNL1        0.0639
     58 H          -5.9211   -3.9848   -0.4310 H       1  UNL1        0.0830
     59 H          -4.2284   -2.6248   -4.0997 H       1  UNL1        0.0830
     60 H          -3.0454   -0.8456   -2.8502 H       1  UNL1        0.0639
     61 H           0.4584    0.6596   -1.2454 H       1  UNL1        0.0625
     62 H           2.7614   -0.1978   -1.8077 H       1  UNL1        0.0636
@<TRIPOS>BOND
     1     1     2    1
     2     2     3    1
     3     3     4    1
     4     4     5    1
     5     5     6    1
     6     6     7    1
     7     7     8    1
     8     8     9    1
     9     9    10   ar
    10    10    11   ar
    11    11    12   ar
    12    12    13    1
    13    13    14   ar
    14    14    15   ar
    15    15    16   ar
    16    16    17   ar
    17    17    18   ar
    18    18    19    1
    19    19    20   ar
    20    20    21   ar
    21    21    22   ar
    22    22    23   ar
    23    23    24    1
    24    23    25   ar
    25    18    26   ar
    26    26    27    1
    27    27    28   ar
    28    28    29   ar
    29    29    30   ar
    30    30    31   ar
    31    31    32   ar
    32    26    33   ar
    33    33    34   ar
    34    12    35   ar
    35    35    36   ar
    36     6     2    1
    37    36     9   ar
    38     8     4    1
    39    34    13   ar
    40    34    17   ar
    41    25    19   ar
    42    32    27   ar
    43     1    37    1
    44     1    38    1
    45     1    39    1
    46     3    40    1
    47     3    41    1
    48     4    42    1
    49     5    43    1
    50     5    44    1
    51     6    45    1
    52     7    46    1
    53     7    47    1
    54    10    48    1
    55    11    49    1
    56    14    50    1
    57    15    51    1
    58    20    52    1
    59    21    53    1
    60    22    54    1
    61    24    55    1
    62    25    56    1
    63    28    57    1
    64    29    58    1
    65    31    59    1
    66    32    60    1
    67    35    61    1
    68    36    62    1
