@<TRIPOS>MOLECULE
*****
 41 44 0 0 0
SMALL
GASTEIGER

@<TRIPOS>ATOM
      1 O          -2.2549    2.8538    0.9283 O.2     1  UNL1       -0.2506
      2 C          -3.1965    2.8925    0.0922 C.2     1  UNL1        0.3107
      3 O          -3.7388    4.1301   -0.2385 O.3     1  UNL1       -0.4803
      4 C          -3.6851    1.6370   -0.4999 C.3     1  UNL1        0.0892
      5 C          -2.9227    0.4808    0.0375 C.ar    1  UNL1        0.0802
      6 N          -1.9373    0.6547    0.9391 N.ar    1  UNL1       -0.1717
      7 N          -1.2339   -0.3512    1.4425 N.ar    1  UNL1       -0.2223
      8 C          -0.1798   -0.1241    2.4121 C.3     1  UNL1        0.0937
      9 C           1.1448    0.0908    1.7483 C.ar    1  UNL1        0.1009
     10 N           2.1130   -0.4229    1.3332 N.ar    1  UNL1       -0.2421
     11 C           3.1738    0.0866    0.7693 C.ar    1  UNL1        0.0791
     12 C           4.3182   -0.5573    0.2824 C.ar    1  UNL1       -0.0236
     13 C           5.3387    0.1564   -0.2829 C.ar    1  UNL1        0.0569
     14 C           6.5611   -0.5585   -0.8001 C.3     1  UNL1        0.4175
     15 F           6.2152   -1.8399   -1.1777 F       1  UNL1       -0.1659
     16 F           7.0521    0.1529   -1.8757 F       1  UNL1       -0.1659
     17 F           7.5096   -0.6697    0.2111 F       1  UNL1       -0.1659
     18 C           5.3295    1.5202   -0.4175 C.ar    1  UNL1       -0.0489
     19 C           4.2126    2.1866    0.0536 C.ar    1  UNL1       -0.0454
     20 C           3.1689    1.4561    0.6320 C.ar    1  UNL1        0.0393
     21 S           1.6026    1.9142    1.3414 S.2     1  UNL1       -0.0703
     22 C          -1.5522   -1.5905    1.0043 C.ar    1  UNL1        0.2754
     23 O          -0.9045   -2.5510    1.4635 O.2     1  UNL1       -0.2655
     24 C          -2.5409   -1.8365    0.0907 C.ar    1  UNL1        0.0498
     25 C          -2.8780   -3.0944   -0.3666 C.ar    1  UNL1       -0.0487
     26 C          -3.8772   -3.3231   -1.2874 C.ar    1  UNL1       -0.0610
     27 C          -4.5813   -2.2378   -1.7814 C.ar    1  UNL1       -0.0611
     28 C          -4.2646   -0.9745   -1.3417 C.ar    1  UNL1       -0.0521
     29 C          -3.2508   -0.7703   -0.4109 C.ar    1  UNL1        0.0108
     30 H          -3.8617    4.8369    0.4795 H       1  UNL1        0.2951
     31 H          -3.6798    1.6554   -1.6086 H       1  UNL1        0.0442
     32 H          -4.7489    1.4996   -0.1868 H       1  UNL1        0.0442
     33 H          -0.4492    0.7811    3.0345 H       1  UNL1        0.0580
     34 H          -0.0791   -0.9396    3.1556 H       1  UNL1        0.0580
     35 H           4.4483   -1.6301    0.3290 H       1  UNL1        0.0645
     36 H           6.1495    2.0314   -0.8656 H       1  UNL1        0.0623
     37 H           4.1283    3.2665   -0.0157 H       1  UNL1        0.0629
     38 H          -2.3139   -3.9319    0.0333 H       1  UNL1        0.0625
     39 H          -4.1397   -4.3051   -1.6438 H       1  UNL1        0.0618
     40 H          -5.3701   -2.4257   -2.5093 H       1  UNL1        0.0618
     41 H          -4.8256   -0.1497   -1.7403 H       1  UNL1        0.0624
@<TRIPOS>BOND
     1     1     2    2
     2     2     3    1
     3     2     4    1
     4     4     5    1
     5     5     6   ar
     6     6     7   ar
     7     7     8    1
     8     8     9    1
     9     9    10   ar
    10    10    11   ar
    11    11    12   ar
    12    12    13   ar
    13    13    14    1
    14    14    15    1
    15    14    16    1
    16    14    17    1
    17    13    18   ar
    18    18    19   ar
    19    19    20   ar
    20    20    21   ar
    21     7    22   ar
    22    22    23    2
    23    22    24   ar
    24    24    25   ar
    25    25    26   ar
    26    26    27   ar
    27    27    28   ar
    28    28    29   ar
    29    29     5   ar
    30    21     9   ar
    31    29    24   ar
    32    20    11   ar
    33     3    30    1
    34     4    31    1
    35     4    32    1
    36     8    33    1
    37     8    34    1
    38    12    35    1
    39    18    36    1
    40    19    37    1
    41    25    38    1
    42    26    39    1
    43    27    40    1
    44    28    41    1
