
     RDKit          3D

 41 44  0  0  0  0  0  0  0  0999 V2000
   -2.2549    2.8538    0.9283 O   0  0  0  0  0  0  0  0  0  0  0  0
   -3.1965    2.8925    0.0922 C   0  0  0  0  0  0  0  0  0  0  0  0
   -3.7388    4.1301   -0.2385 O   0  0  0  0  0  0  0  0  0  0  0  0
   -3.6851    1.6370   -0.4999 C   0  0  0  0  0  0  0  0  0  0  0  0
   -2.9227    0.4808    0.0375 C   0  0  0  0  0  0  0  0  0  0  0  0
   -1.9373    0.6547    0.9391 N   0  0  0  0  0  0  0  0  0  0  0  0
   -1.2339   -0.3512    1.4425 N   0  0  0  0  0  0  0  0  0  0  0  0
   -0.1798   -0.1241    2.4121 C   0  0  0  0  0  0  0  0  0  0  0  0
    1.1448    0.0908    1.7483 C   0  0  0  0  0  0  0  0  0  0  0  0
    2.1130   -0.4229    1.3332 N   0  0  0  0  0  0  0  0  0  0  0  0
    3.1738    0.0866    0.7693 C   0  0  0  0  0  0  0  0  0  0  0  0
    4.3182   -0.5573    0.2824 C   0  0  0  0  0  0  0  0  0  0  0  0
    5.3387    0.1564   -0.2829 C   0  0  0  0  0  0  0  0  0  0  0  0
    6.5611   -0.5585   -0.8001 C   0  0  0  0  0  0  0  0  0  0  0  0
    6.2152   -1.8399   -1.1777 F   0  0  0  0  0  0  0  0  0  0  0  0
    7.0521    0.1529   -1.8757 F   0  0  0  0  0  0  0  0  0  0  0  0
    7.5096   -0.6697    0.2111 F   0  0  0  0  0  0  0  0  0  0  0  0
    5.3295    1.5202   -0.4175 C   0  0  0  0  0  0  0  0  0  0  0  0
    4.2126    2.1866    0.0536 C   0  0  0  0  0  0  0  0  0  0  0  0
    3.1689    1.4561    0.6320 C   0  0  0  0  0  0  0  0  0  0  0  0
    1.6026    1.9142    1.3414 S   0  0  0  0  0  0  0  0  0  0  0  0
   -1.5522   -1.5905    1.0043 C   0  0  0  0  0  0  0  0  0  0  0  0
   -0.9045   -2.5510    1.4635 O   0  0  0  0  0  0  0  0  0  0  0  0
   -2.5409   -1.8365    0.0907 C   0  0  0  0  0  0  0  0  0  0  0  0
   -2.8780   -3.0944   -0.3666 C   0  0  0  0  0  0  0  0  0  0  0  0
   -3.8772   -3.3231   -1.2874 C   0  0  0  0  0  0  0  0  0  0  0  0
   -4.5813   -2.2378   -1.7814 C   0  0  0  0  0  0  0  0  0  0  0  0
   -4.2646   -0.9745   -1.3417 C   0  0  0  0  0  0  0  0  0  0  0  0
   -3.2508   -0.7703   -0.4109 C   0  0  0  0  0  0  0  0  0  0  0  0
   -3.8617    4.8369    0.4795 H   0  0  0  0  0  0  0  0  0  0  0  0
   -3.6798    1.6554   -1.6086 H   0  0  0  0  0  0  0  0  0  0  0  0
   -4.7489    1.4996   -0.1868 H   0  0  0  0  0  0  0  0  0  0  0  0
   -0.4492    0.7811    3.0345 H   0  0  0  0  0  0  0  0  0  0  0  0
   -0.0791   -0.9396    3.1556 H   0  0  0  0  0  0  0  0  0  0  0  0
    4.4483   -1.6301    0.3290 H   0  0  0  0  0  0  0  0  0  0  0  0
    6.1495    2.0314   -0.8656 H   0  0  0  0  0  0  0  0  0  0  0  0
    4.1283    3.2665   -0.0157 H   0  0  0  0  0  0  0  0  0  0  0  0
   -2.3139   -3.9319    0.0333 H   0  0  0  0  0  0  0  0  0  0  0  0
   -4.1397   -4.3051   -1.6438 H   0  0  0  0  0  0  0  0  0  0  0  0
   -5.3701   -2.4257   -2.5093 H   0  0  0  0  0  0  0  0  0  0  0  0
   -4.8256   -0.1497   -1.7403 H   0  0  0  0  0  0  0  0  0  0  0  0
  1  2  2  0
  2  3  1  0
  2  4  1  0
  4  5  1  0
  5  6  2  0
  6  7  1  0
  7  8  1  0
  8  9  1  0
  9 10  2  0
 10 11  1  0
 11 12  2  0
 12 13  1  0
 13 14  1  0
 14 15  1  0
 14 16  1  0
 14 17  1  0
 13 18  2  0
 18 19  1  0
 19 20  2  0
 20 21  1  0
  7 22  1  0
 22 23  2  0
 22 24  1  0
 24 25  2  0
 25 26  1  0
 26 27  2  0
 27 28  1  0
 28 29  2  0
 29  5  1  0
 21  9  1  0
 29 24  1  0
 20 11  1  0
  3 30  1  0
  4 31  1  0
  4 32  1  0
  8 33  1  0
  8 34  1  0
 12 35  1  0
 18 36  1  0
 19 37  1  0
 25 38  1  0
 26 39  1  0
 27 40  1  0
 28 41  1  0
M  END
$$$$
