@<TRIPOS>MOLECULE
*****
 45 46 0 0 0
SMALL
GASTEIGER

@<TRIPOS>ATOM
      1 C          -1.4864   -2.3087   -1.1964 C.3     1  UNL1        0.0089
      2 N          -1.4870   -1.1729   -0.3340 N.3     1  UNL1       -0.1793
      3 C          -2.7754   -0.7021    0.0570 C.3     1  UNL1        0.0242
      4 C          -2.8935    0.8045    0.0367 C.3     1  UNL1       -0.0132
      5 C          -4.2694    1.1699    0.4597 C.ar    1  UNL1       -0.0461
      6 C          -5.3270    1.3140   -0.4305 C.ar    1  UNL1       -0.0585
      7 C          -6.5873    1.6516   -0.0185 C.ar    1  UNL1       -0.0615
      8 C          -6.8592    1.8645    1.3144 C.ar    1  UNL1       -0.0617
      9 C          -5.8331    1.7293    2.2194 C.ar    1  UNL1       -0.0615
     10 C          -4.5746    1.3898    1.7862 C.ar    1  UNL1       -0.0585
     11 S          -0.4221   -1.3280    1.0103 S.O2    1  UNL1        0.0606
     12 O          -0.6007   -0.1529    1.9151 O.2     1  UNL1       -0.1529
     13 O          -0.8013   -2.5635    1.8087 O.2     1  UNL1       -0.1529
     14 C           1.2341   -1.5057    0.5238 C.ar    1  UNL1        0.1060
     15 C           1.7359   -2.7648    0.3067 C.ar    1  UNL1       -0.0353
     16 C           3.0528   -2.8904   -0.0791 C.ar    1  UNL1       -0.0594
     17 C           3.8717   -1.7943   -0.2512 C.ar    1  UNL1       -0.0545
     18 C           3.3829   -0.5302   -0.0376 C.ar    1  UNL1       -0.0230
     19 C           4.1967    0.6876   -0.2010 C.2     1  UNL1       -0.0496
     20 C           5.4626    0.6875   -0.5649 C.2     1  UNL1        0.0027
     21 C           6.2268    1.9295   -0.7127 C.2     1  UNL1        0.2593
     22 O           5.7511    3.0544   -0.5109 O.2     1  UNL1       -0.2687
     23 N           7.5855    1.8354   -1.1086 N.am    1  UNL1       -0.1940
     24 O           8.3812    2.9190   -1.2745 O.3     1  UNL1       -0.2949
     25 C           2.0513   -0.4190    0.3517 C.ar    1  UNL1       -0.0282
     26 H          -1.0074   -3.1626   -0.6342 H       1  UNL1        0.0408
     27 H          -0.9890   -2.1192   -2.1528 H       1  UNL1        0.0408
     28 H          -2.5168   -2.6469   -1.4080 H       1  UNL1        0.0408
     29 H          -3.0886   -1.0943    1.0667 H       1  UNL1        0.0447
     30 H          -3.5294   -1.1000   -0.6528 H       1  UNL1        0.0447
     31 H          -2.1984    1.2919    0.7477 H       1  UNL1        0.0326
     32 H          -2.7594    1.1391   -1.0044 H       1  UNL1        0.0326
     33 H          -5.1305    1.1510   -1.4750 H       1  UNL1        0.0620
     34 H          -7.4152    1.7656   -0.7048 H       1  UNL1        0.0618
     35 H          -7.8727    2.1330    1.6210 H       1  UNL1        0.0618
     36 H          -6.0214    1.8909    3.2683 H       1  UNL1        0.0618
     37 H          -3.7480    1.2779    2.4883 H       1  UNL1        0.0620
     38 H           1.1216   -3.6660    0.4313 H       1  UNL1        0.0637
     39 H           3.4711   -3.8972   -0.2577 H       1  UNL1        0.0618
     40 H           4.9149   -1.9369   -0.5594 H       1  UNL1        0.0623
     41 H           3.7658    1.6700   -0.0202 H       1  UNL1        0.0625
     42 H           5.9539   -0.2508   -0.7603 H       1  UNL1        0.0670
     43 H           8.0314    0.8915   -1.2914 H       1  UNL1        0.1825
     44 H           8.3290    3.1607   -2.2342 H       1  UNL1        0.2414
     45 H           1.6736    0.5979    0.5192 H       1  UNL1        0.0643
@<TRIPOS>BOND
     1     1     2    1
     2     2     3    1
     3     3     4    1
     4     4     5    1
     5     5     6   ar
     6     6     7   ar
     7     7     8   ar
     8     8     9   ar
     9     9    10   ar
    10     2    11    1
    11    11    12    2
    12    11    13    2
    13    11    14    1
    14    14    15   ar
    15    15    16   ar
    16    16    17   ar
    17    17    18   ar
    18    18    19    1
    19    19    20    2
    20    20    21    1
    21    21    22    2
    22    21    23   am
    23    23    24    1
    24    18    25   ar
    25    10     5   ar
    26    25    14   ar
    27     1    26    1
    28     1    27    1
    29     1    28    1
    30     3    29    1
    31     3    30    1
    32     4    31    1
    33     4    32    1
    34     6    33    1
    35     7    34    1
    36     8    35    1
    37     9    36    1
    38    10    37    1
    39    15    38    1
    40    16    39    1
    41    17    40    1
    42    19    41    1
    43    20    42    1
    44    23    43    1
    45    24    44    1
    46    25    45    1
