
     RDKit          3D

 37 38  0  0  0  0  0  0  0  0999 V2000
   -0.4282    0.6412   -1.5969 C   0  0  1  0  0  0  0  0  0  0  0  0
    0.3489    1.2901   -2.5159 F   0  0  0  0  0  0  0  0  0  0  0  0
   -1.6110   -0.0943   -2.2406 C   0  0  0  0  0  0  0  0  0  0  0  0
   -1.9072   -1.0808   -1.1040 C   0  0  1  0  0  0  0  0  0  0  0  0
   -0.7746   -1.1656   -0.3241 O   0  0  0  0  0  0  0  0  0  0  0  0
    0.2684   -0.5827   -1.0006 C   0  0  2  0  0  0  0  0  0  0  0  0
    1.3885   -0.1313   -0.1219 C   0  0  0  0  0  0  0  0  0  0  0  0
    1.9381   -1.1757    0.5841 O   0  0  0  0  0  0  0  0  0  0  0  0
    3.2173   -0.6796    1.5920 P   0  0  0  0  0  0  0  0  0  0  0  0
    3.2170   -1.5618    3.0546 O   0  0  0  0  0  0  0  0  0  0  0  0
    2.9437    0.7691    1.9556 O   0  0  0  0  0  0  0  0  0  0  0  0
    4.7182   -0.8306    0.8096 O   0  0  0  0  0  0  0  0  0  0  0  0
    5.2973    0.6337    0.2374 P   0  0  0  0  0  0  0  0  0  0  0  0
    4.7695    1.9588    1.1514 O   0  0  0  0  0  0  0  0  0  0  0  0
    7.0050    0.6792    0.2854 O   0  0  0  0  0  0  0  0  0  0  0  0
    4.8384    0.8630   -1.1867 O   0  0  0  0  0  0  0  0  0  0  0  0
   -3.0417   -0.5501   -0.3831 N   0  0  0  0  0  0  0  0  0  0  0  0
   -3.0434   -0.0892    0.8807 C   0  0  0  0  0  0  0  0  0  0  0  0
   -4.1831    0.3996    1.4834 C   0  0  0  0  0  0  0  0  0  0  0  0
   -5.3552    0.3996    0.7234 C   0  0  0  0  0  0  0  0  0  0  0  0
   -6.5010    0.8952    1.3410 O   0  0  0  0  0  0  0  0  0  0  0  0
   -5.3488   -0.0629   -0.5419 N   0  0  0  0  0  0  0  0  0  0  0  0
   -4.2005   -0.5344   -1.0914 C   0  0  0  0  0  0  0  0  0  0  0  0
   -4.2735   -0.9536   -2.2894 O   0  0  0  0  0  0  0  0  0  0  0  0
   -0.7910    1.2486   -0.7688 H   0  0  0  0  0  0  0  0  0  0  0  0
   -1.2657   -0.6427   -3.1467 H   0  0  0  0  0  0  0  0  0  0  0  0
   -2.4600    0.5843   -2.4170 H   0  0  0  0  0  0  0  0  0  0  0  0
   -2.1622   -2.0693   -1.5574 H   0  0  0  0  0  0  0  0  0  0  0  0
    0.6230   -1.1760   -1.8638 H   0  0  0  0  0  0  0  0  0  0  0  0
    2.1755    0.3069   -0.7841 H   0  0  0  0  0  0  0  0  0  0  0  0
    1.0204    0.6917    0.5298 H   0  0  0  0  0  0  0  0  0  0  0  0
    3.8868   -2.3075    3.0278 H   0  0  0  0  0  0  0  0  0  0  0  0
    5.4284    2.1609    1.8570 H   0  0  0  0  0  0  0  0  0  0  0  0
    7.3111   -0.2337    0.5199 H   0  0  0  0  0  0  0  0  0  0  0  0
   -2.0692   -0.1544    1.3335 H   0  0  0  0  0  0  0  0  0  0  0  0
   -4.0900    0.7482    2.5009 H   0  0  0  0  0  0  0  0  0  0  0  0
   -6.8890    1.8061    1.0668 H   0  0  0  0  0  0  0  0  0  0  0  0
  1  2  1  0
  1  3  1  0
  3  4  1  0
  4  5  1  0
  5  6  1  0
  6  7  1  0
  7  8  1  0
  8  9  1  0
  9 10  1  0
  9 11  2  0
  9 12  1  0
 12 13  1  0
 13 14  1  0
 13 15  1  0
 13 16  2  0
  4 17  1  0
 17 18  1  0
 18 19  2  0
 19 20  1  0
 20 21  1  0
 20 22  2  0
 22 23  1  0
 23 24  2  0
  6  1  1  0
 23 17  1  0
  1 25  1  1
  3 26  1  0
  3 27  1  0
  4 28  1  6
  6 29  1  6
  7 30  1  0
  7 31  1  0
 10 32  1  0
 14 33  1  0
 15 34  1  0
 18 35  1  0
 19 36  1  0
 21 37  1  0
M  END
$$$$
