@<TRIPOS>MOLECULE
*****
 43 47 0 0 0
SMALL
GASTEIGER

@<TRIPOS>ATOM
      1 C           7.9864   -0.4726    0.6038 C.3     1  UNL1        0.0788
      2 O           7.0007   -0.5931    1.6090 O.3     1  UNL1       -0.4951
      3 C           5.6737   -0.4164    1.2330 C.ar    1  UNL1        0.1201
      4 C           5.3188   -0.1330   -0.0718 C.ar    1  UNL1       -0.0194
      5 C           4.0145    0.0471   -0.4751 C.ar    1  UNL1       -0.0505
      6 C           3.0233   -0.0600    0.4640 C.ar    1  UNL1       -0.0148
      7 C           1.5993    0.1192    0.1085 C.ar    1  UNL1        0.0184
      8 C           0.7003    0.6345    1.0160 C.ar    1  UNL1        0.0391
      9 N          -0.5967    0.7757    0.6304 N.ar    1  UNL1       -0.2350
     10 C          -1.0169    0.4281   -0.6015 C.ar    1  UNL1        0.1632
     11 C          -2.2612    0.4860   -1.1897 C.ar    1  UNL1        0.0467
     12 C          -3.4982    0.9648   -0.5891 C.ar    1  UNL1       -0.0022
     13 C          -3.8907    2.2939   -0.6708 C.ar    1  UNL1       -0.0351
     14 C          -5.0730    2.7413   -0.0947 C.ar    1  UNL1        0.0288
     15 N          -5.8451    1.8419    0.5569 N.ar    1  UNL1       -0.2549
     16 C          -5.5256    0.5505    0.6719 C.ar    1  UNL1        0.0715
     17 C          -6.3476   -0.3290    1.3476 C.ar    1  UNL1       -0.0357
     18 C          -6.0198   -1.6719    1.4697 C.ar    1  UNL1       -0.0597
     19 C          -4.8468   -2.1184    0.8987 C.ar    1  UNL1       -0.0611
     20 C          -4.0350   -1.2301    0.2267 C.ar    1  UNL1       -0.0520
     21 C          -4.3457    0.1136    0.0947 C.ar    1  UNL1        0.0082
     22 C          -2.0752   -0.0064   -2.4634 C.ar    1  UNL1        0.0597
     23 N          -0.7894   -0.3498   -2.6533 N.ar    1  UNL1       -0.1727
     24 N          -0.1690   -0.0781   -1.5143 N.ar    1  UNL1       -0.2206
     25 C           1.1360   -0.2247   -1.1390 C.ar    1  UNL1        0.0406
     26 C           3.3757   -0.3427    1.7669 C.ar    1  UNL1       -0.0505
     27 C           4.6698   -0.5279    2.1993 C.ar    1  UNL1       -0.0194
     28 H           7.7314   -1.2384   -0.1735 H       1  UNL1        0.0660
     29 H           7.8651    0.5190    0.1314 H       1  UNL1        0.0660
     30 H           9.0058   -0.6458    0.9850 H       1  UNL1        0.0660
     31 H           6.1355   -0.0527   -0.8035 H       1  UNL1        0.0654
     32 H           3.7960    0.2670   -1.5095 H       1  UNL1        0.0625
     33 H           1.0530    0.9067    1.9954 H       1  UNL1        0.0837
     34 H          -3.2541    2.9831   -1.1959 H       1  UNL1        0.0639
     35 H          -5.3751    3.7851   -0.1627 H       1  UNL1        0.0830
     36 H          -7.2791   -0.0109    1.8093 H       1  UNL1        0.0639
     37 H          -6.6796   -2.3644    2.0089 H       1  UNL1        0.0618
     38 H          -4.5488   -3.1583    0.9676 H       1  UNL1        0.0618
     39 H          -3.0909   -1.5416   -0.2438 H       1  UNL1        0.0624
     40 H          -2.9008   -0.0848   -3.1829 H       1  UNL1        0.0855
     41 H           1.8609   -0.6274   -1.8345 H       1  UNL1        0.0837
     42 H           2.5914   -0.4295    2.5202 H       1  UNL1        0.0625
     43 H           4.9265   -0.7501    3.2318 H       1  UNL1        0.0654
@<TRIPOS>BOND
     1     1     2    1
     2     2     3    1
     3     3     4   ar
     4     4     5   ar
     5     5     6   ar
     6     6     7    1
     7     7     8   ar
     8     8     9   ar
     9     9    10   ar
    10    10    11   ar
    11    11    12    1
    12    12    13   ar
    13    13    14   ar
    14    14    15   ar
    15    15    16   ar
    16    16    17   ar
    17    17    18   ar
    18    18    19   ar
    19    19    20   ar
    20    20    21   ar
    21    11    22   ar
    22    22    23   ar
    23    23    24   ar
    24    24    25   ar
    25     6    26   ar
    26    26    27   ar
    27    27     3   ar
    28    25     7   ar
    29    24    10   ar
    30    21    12   ar
    31    21    16   ar
    32     1    28    1
    33     1    29    1
    34     1    30    1
    35     4    31    1
    36     5    32    1
    37     8    33    1
    38    13    34    1
    39    14    35    1
    40    17    36    1
    41    18    37    1
    42    19    38    1
    43    20    39    1
    44    22    40    1
    45    25    41    1
    46    26    42    1
    47    27    43    1
