@<TRIPOS>MOLECULE
*****
 38 41 0 0 0
SMALL
GASTEIGER

@<TRIPOS>ATOM
      1 O           3.3291    2.4898    0.9368 O.2     1  UNL1       -0.2700
      2 C           2.8846    1.3411    0.5585 C.2     1  UNL1        0.2470
      3 C           3.8439    0.4457   -0.0457 C.ar    1  UNL1        0.0396
      4 C           4.2803   -0.6766    0.6178 C.ar    1  UNL1       -0.0495
      5 C           5.2116   -1.5589    0.0703 C.ar    1  UNL1       -0.0583
      6 C           5.7162   -1.2981   -1.1847 C.ar    1  UNL1       -0.0264
      7 C           5.2960   -0.1845   -1.8669 C.ar    1  UNL1        0.1241
      8 F           5.7828    0.0744   -3.0829 F       1  UNL1       -0.2055
      9 C           4.3645    0.6881   -1.3067 C.ar    1  UNL1       -0.0143
     10 N           1.5070    1.0649    0.7690 N.am    1  UNL1       -0.2912
     11 C           0.7049    2.0941    1.4019 C.3     1  UNL1        0.0223
     12 C          -0.3468    1.4477    2.2613 C.3     1  UNL1        0.0233
     13 C          -1.2198    0.6732    1.2971 C.ar    1  UNL1        0.1319
     14 O          -2.4984    0.5526    1.1011 O.2     1  UNL1       -0.4387
     15 C          -2.7118   -0.2643    0.1077 C.ar    1  UNL1        0.2465
     16 C          -4.0645   -0.6195   -0.3718 C.ar    1  UNL1        0.1257
     17 C          -5.1899   -0.1242    0.2556 C.ar    1  UNL1       -0.0283
     18 C          -6.4666   -0.4353   -0.1776 C.ar    1  UNL1       -0.0228
     19 C          -6.6475   -1.2685   -1.2741 C.ar    1  UNL1        0.1414
     20 F          -7.8818   -1.5980   -1.7287 F       1  UNL1       -0.2039
     21 C          -5.4957   -1.7397   -1.8698 C.ar    1  UNL1        0.0636
     22 N          -4.2627   -1.4198   -1.4257 N.ar    1  UNL1       -0.2474
     23 N          -1.5409   -0.6882   -0.3567 N.ar    1  UNL1       -0.2108
     24 C          -0.5618   -0.1235    0.3638 C.ar    1  UNL1        0.1003
     25 C           0.9291   -0.1847    0.3646 C.3     1  UNL1        0.0605
     26 H           3.9133   -0.9119    1.5898 H       1  UNL1        0.0625
     27 H           5.5489   -2.4362    0.5963 H       1  UNL1        0.0619
     28 H           6.4446   -1.9516   -1.6618 H       1  UNL1        0.0646
     29 H           4.0229    1.5593   -1.8153 H       1  UNL1        0.0654
     30 H           0.1797    2.7154    0.6409 H       1  UNL1        0.0469
     31 H           1.3158    2.7324    2.0552 H       1  UNL1        0.0469
     32 H          -0.9324    2.2429    2.7416 H       1  UNL1        0.0359
     33 H           0.0416    0.7346    2.9801 H       1  UNL1        0.0359
     34 H          -5.0494    0.5249    1.1071 H       1  UNL1        0.0641
     35 H          -7.3578   -0.0522    0.3079 H       1  UNL1        0.0647
     36 H          -5.5974   -2.3895   -2.7273 H       1  UNL1        0.0859
     37 H           1.2077   -0.9390    1.1410 H       1  UNL1        0.0530
     38 H           1.3008   -0.5167   -0.6374 H       1  UNL1        0.0530
@<TRIPOS>BOND
     1     1     2    2
     2     2     3    1
     3     3     4   ar
     4     4     5   ar
     5     5     6   ar
     6     6     7   ar
     7     7     8    1
     8     7     9   ar
     9     2    10   am
    10    10    11    1
    11    11    12    1
    12    12    13    1
    13    13    14   ar
    14    14    15   ar
    15    15    16    1
    16    16    17   ar
    17    17    18   ar
    18    18    19   ar
    19    19    20    1
    20    19    21   ar
    21    21    22   ar
    22    15    23   ar
    23    23    24   ar
    24    24    25    1
    25     9     3   ar
    26    25    10    1
    27    24    13   ar
    28    22    16   ar
    29     4    26    1
    30     5    27    1
    31     6    28    1
    32     9    29    1
    33    11    30    1
    34    11    31    1
    35    12    32    1
    36    12    33    1
    37    17    34    1
    38    18    35    1
    39    21    36    1
    40    25    37    1
    41    25    38    1
