
     RDKit          3D

 38 41  0  0  0  0  0  0  0  0999 V2000
    3.3291    2.4898    0.9368 O   0  0  0  0  0  0  0  0  0  0  0  0
    2.8846    1.3411    0.5585 C   0  0  0  0  0  0  0  0  0  0  0  0
    3.8439    0.4457   -0.0457 C   0  0  0  0  0  0  0  0  0  0  0  0
    4.2803   -0.6766    0.6178 C   0  0  0  0  0  0  0  0  0  0  0  0
    5.2116   -1.5589    0.0703 C   0  0  0  0  0  0  0  0  0  0  0  0
    5.7162   -1.2981   -1.1847 C   0  0  0  0  0  0  0  0  0  0  0  0
    5.2960   -0.1845   -1.8669 C   0  0  0  0  0  0  0  0  0  0  0  0
    5.7828    0.0744   -3.0829 F   0  0  0  0  0  0  0  0  0  0  0  0
    4.3645    0.6881   -1.3067 C   0  0  0  0  0  0  0  0  0  0  0  0
    1.5070    1.0649    0.7690 N   0  0  0  0  0  0  0  0  0  0  0  0
    0.7049    2.0941    1.4019 C   0  0  0  0  0  0  0  0  0  0  0  0
   -0.3468    1.4477    2.2613 C   0  0  0  0  0  0  0  0  0  0  0  0
   -1.2198    0.6732    1.2971 C   0  0  0  0  0  0  0  0  0  0  0  0
   -2.4984    0.5526    1.1011 O   0  0  0  0  0  0  0  0  0  0  0  0
   -2.7118   -0.2643    0.1077 C   0  0  0  0  0  0  0  0  0  0  0  0
   -4.0645   -0.6195   -0.3718 C   0  0  0  0  0  0  0  0  0  0  0  0
   -5.1899   -0.1242    0.2556 C   0  0  0  0  0  0  0  0  0  0  0  0
   -6.4666   -0.4353   -0.1776 C   0  0  0  0  0  0  0  0  0  0  0  0
   -6.6475   -1.2685   -1.2741 C   0  0  0  0  0  0  0  0  0  0  0  0
   -7.8818   -1.5980   -1.7287 F   0  0  0  0  0  0  0  0  0  0  0  0
   -5.4957   -1.7397   -1.8698 C   0  0  0  0  0  0  0  0  0  0  0  0
   -4.2627   -1.4198   -1.4257 N   0  0  0  0  0  0  0  0  0  0  0  0
   -1.5409   -0.6882   -0.3567 N   0  0  0  0  0  0  0  0  0  0  0  0
   -0.5618   -0.1235    0.3638 C   0  0  0  0  0  0  0  0  0  0  0  0
    0.9291   -0.1847    0.3646 C   0  0  0  0  0  0  0  0  0  0  0  0
    3.9133   -0.9119    1.5898 H   0  0  0  0  0  0  0  0  0  0  0  0
    5.5489   -2.4362    0.5963 H   0  0  0  0  0  0  0  0  0  0  0  0
    6.4446   -1.9516   -1.6618 H   0  0  0  0  0  0  0  0  0  0  0  0
    4.0229    1.5593   -1.8153 H   0  0  0  0  0  0  0  0  0  0  0  0
    0.1797    2.7154    0.6409 H   0  0  0  0  0  0  0  0  0  0  0  0
    1.3158    2.7324    2.0552 H   0  0  0  0  0  0  0  0  0  0  0  0
   -0.9324    2.2429    2.7416 H   0  0  0  0  0  0  0  0  0  0  0  0
    0.0416    0.7346    2.9801 H   0  0  0  0  0  0  0  0  0  0  0  0
   -5.0494    0.5249    1.1071 H   0  0  0  0  0  0  0  0  0  0  0  0
   -7.3578   -0.0522    0.3079 H   0  0  0  0  0  0  0  0  0  0  0  0
   -5.5974   -2.3895   -2.7273 H   0  0  0  0  0  0  0  0  0  0  0  0
    1.2077   -0.9390    1.1410 H   0  0  0  0  0  0  0  0  0  0  0  0
    1.3008   -0.5167   -0.6374 H   0  0  0  0  0  0  0  0  0  0  0  0
  1  2  2  0
  2  3  1  0
  3  4  2  0
  4  5  1  0
  5  6  2  0
  6  7  1  0
  7  8  1  0
  7  9  2  0
  2 10  1  0
 10 11  1  0
 11 12  1  0
 12 13  1  0
 13 14  1  0
 14 15  1  0
 15 16  1  0
 16 17  2  0
 17 18  1  0
 18 19  2  0
 19 20  1  0
 19 21  1  0
 21 22  2  0
 15 23  2  0
 23 24  1  0
 24 25  1  0
  9  3  1  0
 25 10  1  0
 24 13  2  0
 22 16  1  0
  4 26  1  0
  5 27  1  0
  6 28  1  0
  9 29  1  0
 11 30  1  0
 11 31  1  0
 12 32  1  0
 12 33  1  0
 17 34  1  0
 18 35  1  0
 21 36  1  0
 25 37  1  0
 25 38  1  0
M  END
$$$$
