@<TRIPOS>MOLECULE
*****
 67 71 0 0 0
SMALL
GASTEIGER

@<TRIPOS>ATOM
      1 C           5.5507    0.6184   -3.6647 C.3     1  UNL1       -0.0391
      2 C           4.1254    0.3845   -3.3374 C.ar    1  UNL1       -0.0426
      3 C           3.1850    0.4996   -4.3482 C.ar    1  UNL1       -0.0565
      4 C           1.8514    0.2848   -4.0258 C.ar    1  UNL1       -0.0402
      5 C           1.4508   -0.0343   -2.7472 C.ar    1  UNL1        0.0343
      6 N           0.0573   -0.2470   -2.4694 N.am    1  UNL1       -0.2815
      7 C          -0.7566    0.8416   -2.0768 C.2     1  UNL1        0.2483
      8 O          -0.2054    1.9655   -1.9891 O.2     1  UNL1       -0.2699
      9 C          -2.1742    0.7451   -1.7718 C.ar    1  UNL1        0.0370
     10 C          -2.8919    1.8659   -1.3963 C.ar    1  UNL1       -0.0493
     11 C          -4.2371    1.8170   -1.0997 C.ar    1  UNL1       -0.0566
     12 C          -4.9261    0.6027   -1.1732 C.ar    1  UNL1       -0.0333
     13 C          -6.3596    0.5346   -0.8616 C.3     1  UNL1        0.0241
     14 N          -6.6761    0.2740    0.5011 N.3     1  UNL1       -0.2957
     15 C          -6.1793   -0.9562    1.0284 C.3     1  UNL1        0.0120
     16 C          -6.9894   -1.3393    2.2463 C.3     1  UNL1        0.0114
     17 N          -7.8181   -0.2181    2.6426 N.3     1  UNL1       -0.3029
     18 C          -8.6727   -0.4969    3.7518 C.3     1  UNL1       -0.0127
     19 C          -7.0624    0.9919    2.7453 C.3     1  UNL1        0.0114
     20 C          -6.5551    1.3977    1.3720 C.3     1  UNL1        0.0120
     21 C          -4.2156   -0.5177   -1.5469 C.ar    1  UNL1       -0.0566
     22 C          -2.8588   -0.4337   -1.8394 C.ar    1  UNL1       -0.0493
     23 C           2.4128   -0.1405   -1.7676 C.ar    1  UNL1       -0.0325
     24 C           3.7716    0.0686   -2.0514 C.ar    1  UNL1       -0.0132
     25 C           4.7340   -0.0668   -0.9736 C.ar    1  UNL1       -0.0175
     26 C           4.5645    0.5269    0.2537 C.ar    1  UNL1       -0.0534
     27 C           5.4715    0.4008    1.3005 C.ar    1  UNL1       -0.0520
     28 C           6.5993   -0.3534    1.1115 C.ar    1  UNL1        0.0010
     29 C           7.5689   -0.4926    2.2200 C.ar    1  UNL1        0.0802
     30 C           7.3677    0.1220    3.4529 C.ar    1  UNL1        0.0049
     31 S           8.8314   -0.3865    4.3820 S.2     1  UNL1       -0.0605
     32 C           9.5083   -1.3807    2.9156 C.ar    1  UNL1        0.1561
     33 N          10.7756   -2.0230    3.2154 N.pl3   1  UNL1       -0.3375
     34 N           8.6890   -1.1921    2.1554 N.ar    1  UNL1       -0.2252
     35 C           6.7994   -0.9626   -0.1080 C.ar    1  UNL1       -0.0520
     36 C           5.8712   -0.8203   -1.1462 C.ar    1  UNL1       -0.0534
     37 H           6.1705    0.9380   -2.8258 H       1  UNL1        0.0278
     38 H           5.9970   -0.2643   -4.1943 H       1  UNL1        0.0278
     39 H           5.6400    1.4491   -4.4303 H       1  UNL1        0.0278
     40 H           3.5064    0.7501   -5.3486 H       1  UNL1        0.0621
     41 H           1.1306    0.3778   -4.8230 H       1  UNL1        0.0636
     42 H          -0.3724   -1.1998   -2.5523 H       1  UNL1        0.1551
     43 H          -2.3903    2.8050   -1.3324 H       1  UNL1        0.0625
     44 H          -4.8094    2.6862   -0.8052 H       1  UNL1        0.0621
     45 H          -6.8632   -0.1566   -1.5747 H       1  UNL1        0.0476
     46 H          -6.7978    1.5470   -1.1048 H       1  UNL1        0.0476
     47 H          -5.1171   -0.8823    1.3708 H       1  UNL1        0.0439
     48 H          -6.1974   -1.7330    0.2481 H       1  UNL1        0.0439
     49 H          -6.3591   -1.7008    3.0838 H       1  UNL1        0.0439
     50 H          -7.6928   -2.1544    1.9081 H       1  UNL1        0.0439
     51 H          -9.6378   -0.9039    3.3341 H       1  UNL1        0.0391
     52 H          -8.1824   -1.2226    4.4286 H       1  UNL1        0.0391
     53 H          -8.8656    0.4704    4.2868 H       1  UNL1        0.0391
     54 H          -7.7065    1.7742    3.2048 H       1  UNL1        0.0439
     55 H          -6.1949    0.7884    3.4388 H       1  UNL1        0.0439
     56 H          -5.5130    1.7537    1.5112 H       1  UNL1        0.0439
     57 H          -7.1894    2.2261    0.9867 H       1  UNL1        0.0439
     58 H          -4.7088   -1.4798   -1.6172 H       1  UNL1        0.0621
     59 H          -2.3475   -1.3327   -2.1258 H       1  UNL1        0.0625
     60 H           2.1576   -0.3857   -0.7584 H       1  UNL1        0.0642
     61 H           3.6853    1.1202    0.4143 H       1  UNL1        0.0624
     62 H           5.2998    0.8850    2.2512 H       1  UNL1        0.0624
     63 H           6.5521    0.7646    3.8327 H       1  UNL1        0.0716
     64 H          10.7768   -3.0138    3.4839 H       1  UNL1        0.1442
     65 H          11.6234   -1.4657    3.1485 H       1  UNL1        0.1442
     66 H           7.6922   -1.5665   -0.2747 H       1  UNL1        0.0624
     67 H           6.1065   -1.3336   -2.0652 H       1  UNL1        0.0624
@<TRIPOS>BOND
     1     1     2    1
     2     2     3   ar
     3     3     4   ar
     4     4     5   ar
     5     5     6    1
     6     6     7   am
     7     7     8    2
     8     7     9    1
     9     9    10   ar
    10    10    11   ar
    11    11    12   ar
    12    12    13    1
    13    13    14    1
    14    14    15    1
    15    15    16    1
    16    16    17    1
    17    17    18    1
    18    17    19    1
    19    19    20    1
    20    12    21   ar
    21    21    22   ar
    22     5    23   ar
    23    23    24   ar
    24    24    25    1
    25    25    26   ar
    26    26    27   ar
    27    27    28   ar
    28    28    29    1
    29    29    30   ar
    30    30    31   ar
    31    31    32   ar
    32    32    33    1
    33    32    34   ar
    34    28    35   ar
    35    35    36   ar
    36    24     2   ar
    37    36    25   ar
    38    22     9   ar
    39    34    29   ar
    40    20    14    1
    41     1    37    1
    42     1    38    1
    43     1    39    1
    44     3    40    1
    45     4    41    1
    46     6    42    1
    47    10    43    1
    48    11    44    1
    49    13    45    1
    50    13    46    1
    51    15    47    1
    52    15    48    1
    53    16    49    1
    54    16    50    1
    55    18    51    1
    56    18    52    1
    57    18    53    1
    58    19    54    1
    59    19    55    1
    60    20    56    1
    61    20    57    1
    62    21    58    1
    63    22    59    1
    64    23    60    1
    65    26    61    1
    66    27    62    1
    67    30    63    1
    68    33    64    1
    69    33    65    1
    70    35    66    1
    71    36    67    1
