@<TRIPOS>MOLECULE
*****
 77 79 0 0 0
SMALL
GASTEIGER

@<TRIPOS>ATOM
      1 C          -4.2710    4.2659   -1.4765 C.3     0  UNK0       -0.0253
      2 C          -4.2151    3.8964   -0.0262 C.3     0  UNK0        0.1068
      3 C          -2.9863    4.5112    0.6260 C.3     0  UNK0       -0.0253
      4 C          -5.4096    4.4936    0.7251 C.3     0  UNK0       -0.0253
      5 O          -4.2324    2.5009    0.1970 O.3     0  UNK0       -0.4447
      6 C          -3.2995    1.6173   -0.2810 C.2     0  UNK0        0.4016
      7 O          -2.3575    2.0458   -0.9700 O.2     0  UNK0       -0.2264
      8 N          -3.3761    0.2262   -0.0112 N.am    1  UNK1       -0.2657
      9 C          -2.3625   -0.6622   -0.5365 C.3     1  UNK1        0.1284
     10 C          -1.4444   -1.1255    0.5814 C.2     1  UNK1        0.2412
     11 O          -1.7461   -0.7295    1.7367 O.2     1  UNK1       -0.2732
     12 N          -0.3224   -1.9370    0.3918 N.am    2  PRO2       -0.2881
     13 CD          0.1615   -2.4699   -0.8454 C.3     2  PRO2        0.0156
     14 CG          0.8614   -3.7685   -0.4486 C.3     2  PRO2       -0.0350
     15 CB          0.7383   -3.8453    1.0542 C.3     2  PRO2       -0.0243
     16 CA          0.5764   -2.3893    1.4177 C.3     2  PRO2        0.1023
     17 C           1.9049   -1.6938    1.3313 C.2     2  PRO2        0.2341
     18 O           2.0993   -0.7750    0.4822 O.2     2  PRO2       -0.2738
     19 N           2.9776   -2.0356    2.1884 N.am    3  ARG3       -0.3044
     20 CA          4.2919   -1.3005    2.0494 C.3     3  ARG3        0.0786
     21 C           4.8241   -1.5730    0.7256 C.2     3  ARG3        0.1404
     22 O           4.1327   -2.2502   -0.1096 O.2     3  ARG3       -0.2991
     23 CB          4.1384    0.0425    2.5889 C.3     3  ARG3       -0.0250
     24 CG          5.2869    0.9555    2.5873 C.3     3  ARG3       -0.0202
     25 CD          5.8721    1.4462    1.3218 C.3     3  ARG3        0.0647
     26 NE          6.9993    2.3581    1.6215 N.pl3   3  ARG3       -0.2761
     27 CZ          6.7530    3.6120    2.2396 C.cat   3  ARG3        0.3762
     28 NH1         5.5840    4.1462    2.2482 N.pl3   3  ARG3       -0.1298
     29 NH2         7.8609    4.2727    2.8647 N.pl3   3  ARG3       -0.2893
     30 C          -3.0633   -1.8338   -1.0946 C.ar    1  UNK1       -0.0106
     31 C          -3.5231   -2.8116   -0.2288 C.ar    1  UNK1       -0.0557
     32 C          -4.1598   -3.9278   -0.6852 C.ar    1  UNK1       -0.0608
     33 C          -4.3613   -4.1092   -2.0295 C.ar    1  UNK1       -0.0540
     34 C          -3.9033   -3.1334   -2.8941 C.ar    1  UNK1       -0.0176
     35 C          -4.0883   -3.2670   -4.2588 C.ar    1  UNK1       -0.0540
     36 C          -3.6510   -2.3119   -5.1505 C.ar    1  UNK1       -0.0612
     37 C          -3.0087   -1.1860   -4.6841 C.ar    1  UNK1       -0.0612
     38 C          -2.8042   -1.0189   -3.3114 C.ar    1  UNK1       -0.0537
     39 C          -3.2443   -1.9760   -2.4397 C.ar    1  UNK1       -0.0125
     40 H          -3.3877    4.8551   -1.8229 H       0  UNK0        0.0268
     41 H          -4.4102    3.3668   -2.1329 H       0  UNK0        0.0268
     42 H          -5.1705    4.9004   -1.6481 H       0  UNK0        0.0268
     43 H          -2.0387    4.0986    0.2168 H       0  UNK0        0.0268
     44 H          -3.0451    4.2475    1.7084 H       0  UNK0        0.0268
     45 H          -3.0307    5.5994    0.4477 H       0  UNK0        0.0268
     46 H          -6.2276    4.6774    0.0111 H       0  UNK0        0.0268
     47 H          -5.1298    5.4630    1.2206 H       0  UNK0        0.0268
     48 H          -5.7377    3.7644    1.4765 H       0  UNK0        0.0268
     49 H          -4.1400   -0.1909    0.5549 H       1  UNK1        0.1531
     50 H          -1.7087   -0.1207   -1.1923 H       1  UNK1        0.0647
     51 HD1         0.9146   -1.7450   -1.2674 H       2  PRO2        0.0465
     52 HD2        -0.5849   -2.6361   -1.6260 H       2  PRO2        0.0465
     53 HG1         0.4092   -4.6452   -0.9558 H       2  PRO2        0.0281
     54 HG2         1.9132   -3.7162   -0.7814 H       2  PRO2        0.0281
     55 HB1        -0.1355   -4.4360    1.3930 H       2  PRO2        0.0288
     56 HB2         1.6943   -4.1937    1.4966 H       2  PRO2        0.0288
     57 HA          0.1440   -2.2665    2.4392 H       2  PRO2        0.0597
     58 H           2.8635   -2.7830    2.9032 H       3  ARG3        0.1494
     59 HA          4.9653   -1.8744    2.7711 H       3  ARG3        0.0574
     60 H           5.7524   -1.3050    0.2714 H       3  ARG3        0.1046
     61 HB1         3.8741   -0.0997    3.7061 H       3  ARG3        0.0288
     62 HB2         3.1957    0.5613    2.1932 H       3  ARG3        0.0288
     63 HG1         6.1376    0.4264    3.1570 H       3  ARG3        0.0296
     64 HG2         5.1137    1.8444    3.2912 H       3  ARG3        0.0296
     65 HD1         5.1522    2.0744    0.7424 H       3  ARG3        0.0655
     66 HD2         6.3248    0.6669    0.7090 H       3  ARG3        0.0655
     67 HE          7.9886    2.0641    1.3699 H       3  ARG3        0.2579
     68 HH1         4.7626    3.7097    1.8161 H       3  ARG3        0.3062
     69 HH21        8.0847    3.9898    3.8407 H       3  ARG3        0.2546
     70 HH22        8.3609    4.9842    2.3074 H       3  ARG3        0.2546
     71 H          -3.3795   -2.6913    0.8254 H       1  UNK1        0.0621
     72 H          -4.5225   -4.7068    0.0175 H       1  UNK1        0.0618
     73 H          -4.8587   -4.9772   -2.4201 H       1  UNK1        0.0624
     74 H          -4.5929   -4.1517   -4.6326 H       1  UNK1        0.0624
     75 H          -3.8207   -2.4611   -6.2253 H       1  UNK1        0.0618
     76 H          -2.6537   -0.4222   -5.3269 H       1  UNK1        0.0618
     77 H          -2.3082   -0.1304   -2.9472 H       1  UNK1        0.0624
@<TRIPOS>BOND
     1     1     2    1
     2     2     3    1
     3     2     4    1
     4     2     5    1
     5     5     6    1
     6     6     7    2
     7     6     8   am
     8     8     9    1
     9     9    10    1
    10    10    11    2
    11    10    12   am
    12    12    13    1
    13    13    14    1
    14    14    15    1
    15    15    16    1
    16    16    17    1
    17    17    18    2
    18    17    19   am
    19    19    20    1
    20    20    21    1
    21    21    22    2
    22    20    23    1
    23    23    24    1
    24    24    25    1
    25    25    26    1
    26    26    27    1
    27    27    28    2
    28    27    29    1
    29     9    30    1
    30    30    31   ar
    31    31    32   ar
    32    32    33   ar
    33    33    34   ar
    34    34    35   ar
    35    35    36   ar
    36    36    37   ar
    37    37    38   ar
    38    38    39   ar
    39    16    12    1
    40    39    30   ar
    41    39    34   ar
    42     1    40    1
    43     1    41    1
    44     1    42    1
    45     3    43    1
    46     3    44    1
    47     3    45    1
    48     4    46    1
    49     4    47    1
    50     4    48    1
    51     8    49    1
    52     9    50    1
    53    13    51    1
    54    13    52    1
    55    14    53    1
    56    14    54    1
    57    15    55    1
    58    15    56    1
    59    16    57    1
    60    19    58    1
    61    20    59    1
    62    21    60    1
    63    23    61    1
    64    23    62    1
    65    24    63    1
    66    24    64    1
    67    25    65    1
    68    25    66    1
    69    26    67    1
    70    28    68    1
    71    29    69    1
    72    29    70    1
    73    31    71    1
    74    32    72    1
    75    33    73    1
    76    35    74    1
    77    36    75    1
    78    37    76    1
    79    38    77    1
