@<TRIPOS>MOLECULE
*****
 39 41 0 0 0
SMALL
GASTEIGER

@<TRIPOS>ATOM
      1 CL          6.6545    0.5932   -1.2886 Cl      1  UNL1       -0.0835
      2 C           4.9726    0.5702   -0.7539 C.ar    1  UNL1        0.0410
      3 C           4.1720    1.6862   -0.8882 C.ar    1  UNL1       -0.0431
      4 C           2.8604    1.6452   -0.4633 C.ar    1  UNL1       -0.0550
      5 C           2.3241    0.5073    0.0972 C.ar    1  UNL1       -0.0218
      6 C           0.9282    0.3426    0.5912 C.3     1  UNL1        0.0736
      7 O           0.0636   -0.1204   -0.4048 O.3     1  UNL1       -0.3656
      8 C          -1.1895   -0.2249    0.1958 C.3     1  UNL1        0.1032
      9 C          -2.1861    0.7325   -0.4189 C.3     1  UNL1        0.0546
     10 N          -1.7268    2.0992   -0.2624 N.ar    1  UNL1       -0.3340
     11 C          -1.9852    2.9371    0.7688 C.ar    1  UNL1        0.0241
     12 C          -1.3302    4.1228    0.4602 C.ar    1  UNL1        0.0454
     13 N          -0.6943    4.0082   -0.7207 N.ar    1  UNL1       -0.2441
     14 C          -0.9423    2.7626   -1.1588 C.ar    1  UNL1        0.0960
     15 C          -1.7054   -1.6031    0.2617 C.ar    1  UNL1        0.0012
     16 C          -1.4718   -2.4388   -0.8089 C.ar    1  UNL1        0.0480
     17 CL         -0.5902   -1.9394   -2.2443 Cl      1  UNL1       -0.0831
     18 C          -1.9397   -3.7427   -0.7877 C.ar    1  UNL1       -0.0247
     19 C          -2.6443   -4.1946    0.3219 C.ar    1  UNL1        0.0424
     20 CL         -3.2481   -5.8563    0.3642 Cl      1  UNL1       -0.0835
     21 C          -2.9068   -3.3969    1.4240 C.ar    1  UNL1       -0.0430
     22 C          -2.4112   -2.1173    1.3292 C.ar    1  UNL1       -0.0533
     23 C           3.1712   -0.5996    0.2137 C.ar    1  UNL1       -0.0550
     24 C           4.4993   -0.6049   -0.2003 C.ar    1  UNL1       -0.0431
     25 H           4.5564    2.6122   -1.3280 H       1  UNL1        0.0632
     26 H           2.1911    2.4768   -0.5406 H       1  UNL1        0.0621
     27 H           0.5054    1.3360    0.9095 H       1  UNL1        0.0610
     28 H           0.8897   -0.3623    1.4220 H       1  UNL1        0.0610
     29 H          -1.0357    0.1036    1.2615 H       1  UNL1        0.0665
     30 H          -3.1339    0.6631    0.1531 H       1  UNL1        0.0521
     31 H          -2.3093    0.5527   -1.4965 H       1  UNL1        0.0521
     32 H          -2.5693    2.7447    1.6462 H       1  UNL1        0.0825
     33 H          -1.2780    5.0406    1.0091 H       1  UNL1        0.0845
     34 H          -0.5921    2.3177   -2.0751 H       1  UNL1        0.1029
     35 H          -1.7727   -4.4346   -1.6203 H       1  UNL1        0.0647
     36 H          -3.4513   -3.7344    2.2897 H       1  UNL1        0.0632
     37 H          -2.5921   -1.4473    2.1746 H       1  UNL1        0.0622
     38 H           2.8154   -1.5430    0.6506 H       1  UNL1        0.0621
     39 H           5.1024   -1.4940   -0.0825 H       1  UNL1        0.0632
@<TRIPOS>BOND
     1     1     2    1
     2     2     3   ar
     3     3     4   ar
     4     4     5   ar
     5     5     6    1
     6     6     7    1
     7     7     8    1
     8     8     9    1
     9     9    10    1
    10    10    11   ar
    11    11    12   ar
    12    12    13   ar
    13    13    14   ar
    14     8    15    1
    15    15    16   ar
    16    16    17    1
    17    16    18   ar
    18    18    19   ar
    19    19    20    1
    20    19    21   ar
    21    21    22   ar
    22     5    23   ar
    23    23    24   ar
    24    24     2   ar
    25    14    10   ar
    26    22    15   ar
    27     3    25    1
    28     4    26    1
    29     6    27    1
    30     6    28    1
    31     8    29    1
    32     9    30    1
    33     9    31    1
    34    11    32    1
    35    12    33    1
    36    14    34    1
    37    18    35    1
    38    21    36    1
    39    22    37    1
    40    23    38    1
    41    24    39    1
