@<TRIPOS>MOLECULE
*****
 60 63 0 0 0
SMALL
GASTEIGER

@<TRIPOS>ATOM
      1 C          -1.8710    6.3910   -0.8838 C.3     1  UNL1        0.0788
      2 O          -1.4141    5.2203   -0.2517 O.3     1  UNL1       -0.4951
      3 C          -2.2542    4.1284   -0.1256 C.ar    1  UNL1        0.1204
      4 C          -3.5431    4.1117   -0.5907 C.ar    1  UNL1       -0.0199
      5 C          -4.3607    2.9926   -0.4447 C.ar    1  UNL1       -0.0580
      6 C          -3.8668    1.8751    0.1804 C.ar    1  UNL1       -0.0568
      7 C          -2.5648    1.8797    0.6545 C.ar    1  UNL1       -0.0266
      8 C          -2.0672    0.6246    1.3249 C.3     1  UNL1        0.0413
      9 N          -1.4064   -0.2489    0.4015 N.am    1  UNL1       -0.2798
     10 C          -2.2340   -1.1953   -0.3512 C.3     1  UNL1        0.0293
     11 C          -2.3267   -2.4518    0.4894 C.3     1  UNL1        0.0148
     12 N          -3.1173   -3.4787   -0.1321 N.3     1  UNL1       -0.3008
     13 C          -2.4880   -4.0104   -1.3015 C.3     1  UNL1       -0.0010
     14 C          -2.9912   -5.4413   -1.3354 C.3     1  UNL1       -0.0390
     15 C          -2.8735   -5.8238    0.1314 C.3     1  UNL1       -0.0390
     16 C          -3.3085   -4.5496    0.8144 C.3     1  UNL1       -0.0010
     17 C           0.0156   -0.2785    0.1661 C.2     1  UNL1        0.3068
     18 O           0.4142   -1.0843   -0.7099 O.2     1  UNL1       -0.2523
     19 N           0.9311    0.5295    0.8569 N.am    1  UNL1       -0.2693
     20 C           2.3098    0.5374    0.6595 C.ar    1  UNL1        0.0348
     21 C           2.9986   -0.2123   -0.2205 C.ar    1  UNL1       -0.0399
     22 C           4.3951   -0.1386   -0.3485 C.ar    1  UNL1       -0.0522
     23 C           5.1175    0.7232    0.4413 C.ar    1  UNL1       -0.0148
     24 C           6.5735    0.7636    0.2727 C.ar    1  UNL1        0.0193
     25 C           7.4222    1.8296    0.4492 C.ar    1  UNL1        0.0568
     26 N           8.6724    1.3946    0.1811 N.ar    1  UNL1       -0.1817
     27 N           8.6345    0.1252   -0.1486 N.ar    1  UNL1       -0.2841
     28 C           7.3581   -0.3023   -0.1044 C.ar    1  UNL1        0.0300
     29 C           4.4430    1.4901    1.3371 C.ar    1  UNL1       -0.0522
     30 C           3.0734    1.4107    1.4554 C.ar    1  UNL1       -0.0399
     31 C          -1.7547    2.9894    0.5099 C.ar    1  UNL1       -0.0153
     32 H          -2.9043    6.6437   -0.5806 H       1  UNL1        0.0660
     33 H          -1.8707    6.2693   -2.0028 H       1  UNL1        0.0660
     34 H          -1.2023    7.2691   -0.6415 H       1  UNL1        0.0660
     35 H          -3.9455    4.9739   -1.0808 H       1  UNL1        0.0654
     36 H          -5.3516    3.0415   -0.8265 H       1  UNL1        0.0619
     37 H          -4.4905    0.9801    0.3190 H       1  UNL1        0.0621
     38 H          -2.9878    0.0960    1.7249 H       1  UNL1        0.0514
     39 H          -1.4217    0.9460    2.1540 H       1  UNL1        0.0514
     40 H          -3.2450   -0.8133   -0.5268 H       1  UNL1        0.0478
     41 H          -1.7657   -1.4043   -1.3448 H       1  UNL1        0.0478
     42 H          -1.2881   -2.7655    0.6964 H       1  UNL1        0.0442
     43 H          -2.7862   -2.1751    1.4556 H       1  UNL1        0.0442
     44 H          -1.3872   -4.0226   -1.2578 H       1  UNL1        0.0426
     45 H          -2.8222   -3.4862   -2.2238 H       1  UNL1        0.0426
     46 H          -4.0457   -5.4049   -1.6556 H       1  UNL1        0.0278
     47 H          -2.3574   -6.0862   -1.9747 H       1  UNL1        0.0278
     48 H          -1.8327   -6.0431    0.3605 H       1  UNL1        0.0278
     49 H          -3.5231   -6.6595    0.4125 H       1  UNL1        0.0278
     50 H          -4.3668   -4.5632    1.1093 H       1  UNL1        0.0426
     51 H          -2.6977   -4.3949    1.7324 H       1  UNL1        0.0426
     52 H           0.4751    1.1660    1.5934 H       1  UNL1        0.1564
     53 H           2.5368   -0.9051   -0.8733 H       1  UNL1        0.0636
     54 H           4.9256   -0.7500   -1.0611 H       1  UNL1        0.0624
     55 H           7.1550    2.8370    0.7478 H       1  UNL1        0.0854
     56 H           9.4510   -0.4670   -0.4046 H       1  UNL1        0.1882
     57 H           6.9768   -1.3096   -0.3230 H       1  UNL1        0.0830
     58 H           5.0246    2.1694    1.9580 H       1  UNL1        0.0624
     59 H           2.5729    2.0449    2.1885 H       1  UNL1        0.0636
     60 H          -0.7426    3.0128    0.8728 H       1  UNL1        0.0657
@<TRIPOS>BOND
     1     1     2    1
     2     2     3    1
     3     3     4   ar
     4     4     5   ar
     5     5     6   ar
     6     6     7   ar
     7     7     8    1
     8     8     9    1
     9     9    10    1
    10    10    11    1
    11    11    12    1
    12    12    13    1
    13    13    14    1
    14    14    15    1
    15    15    16    1
    16     9    17   am
    17    17    18    2
    18    17    19   am
    19    19    20    1
    20    20    21   ar
    21    21    22   ar
    22    22    23   ar
    23    23    24    1
    24    24    25   ar
    25    25    26   ar
    26    26    27   ar
    27    27    28   ar
    28    23    29   ar
    29    29    30   ar
    30     7    31   ar
    31    31     3   ar
    32    16    12    1
    33    30    20   ar
    34    28    24   ar
    35     1    32    1
    36     1    33    1
    37     1    34    1
    38     4    35    1
    39     5    36    1
    40     6    37    1
    41     8    38    1
    42     8    39    1
    43    10    40    1
    44    10    41    1
    45    11    42    1
    46    11    43    1
    47    13    44    1
    48    13    45    1
    49    14    46    1
    50    14    47    1
    51    15    48    1
    52    15    49    1
    53    16    50    1
    54    16    51    1
    55    19    52    1
    56    21    53    1
    57    22    54    1
    58    25    55    1
    59    27    56    1
    60    28    57    1
    61    29    58    1
    62    30    59    1
    63    31    60    1
