@<TRIPOS>MOLECULE
*****
 43 46 0 0 0
SMALL
GASTEIGER

@<TRIPOS>ATOM
      1 C           3.8884   -2.9341   -0.0753 C.3     1  UNL1       -0.0046
      2 C           3.8445   -1.4648   -0.2570 C.ar    1  UNL1        0.1280
      3 N           4.7465   -0.7050   -0.9047 N.ar    1  UNL1       -0.1345
      4 N           4.3400    0.5407   -0.8362 N.ar    1  UNL1       -0.1293
      5 C           3.1933    0.6247   -0.1608 C.ar    1  UNL1        0.1642
      6 C           2.4644    1.8685    0.1257 C.ar    1  UNL1        0.0504
      7 C           2.8589    3.1117   -0.2067 C.ar    1  UNL1       -0.0309
      8 C           4.1610    3.3183   -0.9990 C.3     1  UNL1       -0.0385
      9 C           2.1345    4.1977    0.1345 C.ar    1  UNL1       -0.0189
     10 S           0.7435    3.4318    1.0165 S.2     1  UNL1       -0.0809
     11 C           1.2589    1.8137    0.8401 C.ar    1  UNL1        0.0827
     12 N           0.5360    0.6635    1.3488 N.am    1  UNL1       -0.2792
     13 C          -0.5009    0.0649    0.5806 C.2     1  UNL1        0.2219
     14 O          -0.7738    0.5547   -0.5423 O.2     1  UNL1       -0.2751
     15 C          -1.2315   -1.1020    1.0992 C.3     1  UNL1        0.0500
     16 C          -2.2533   -1.5169    0.1050 C.ar    1  UNL1       -0.0295
     17 C          -2.1105   -2.6056   -0.7043 C.ar    1  UNL1       -0.0574
     18 C          -3.0781   -2.9712   -1.6222 C.ar    1  UNL1       -0.0594
     19 C          -4.2223   -2.2079   -1.7189 C.ar    1  UNL1       -0.0357
     20 C          -4.4038   -1.1034   -0.9210 C.ar    1  UNL1        0.0712
     21 N          -5.5272   -0.3783   -1.0359 N.ar    1  UNL1       -0.2550
     22 C          -5.7043    0.6882   -0.2669 C.ar    1  UNL1        0.0283
     23 C          -4.7498    1.0636    0.6503 C.ar    1  UNL1       -0.0430
     24 C          -3.5907    0.3271    0.7787 C.ar    1  UNL1       -0.0509
     25 C          -3.4167   -0.7715   -0.0188 C.ar    1  UNL1        0.0040
     26 N           2.8853   -0.6167    0.1988 N.ar    1  UNL1       -0.3253
     27 H           4.5765   -3.3899   -0.8133 H       1  UNL1        0.0308
     28 H           2.8724   -3.3597   -0.2699 H       1  UNL1        0.0308
     29 H           4.2026   -3.2016    0.9709 H       1  UNL1        0.0308
     30 H           4.2349    4.3275   -1.3788 H       1  UNL1        0.0278
     31 H           5.0043    3.1104   -0.3239 H       1  UNL1        0.0278
     32 H           4.1509    2.6465   -1.8941 H       1  UNL1        0.0278
     33 H           2.2616    5.2459   -0.0238 H       1  UNL1        0.0697
     34 H           0.7485    0.2543    2.2736 H       1  UNL1        0.1553
     35 H          -1.6474   -0.9279    2.1087 H       1  UNL1        0.0407
     36 H          -0.5017   -1.9528    1.2422 H       1  UNL1        0.0407
     37 H          -1.2013   -3.2041   -0.6214 H       1  UNL1        0.0621
     38 H          -2.9549   -3.8499   -2.2702 H       1  UNL1        0.0618
     39 H          -4.9869   -2.4819   -2.4319 H       1  UNL1        0.0639
     40 H          -6.5957    1.3277   -0.3053 H       1  UNL1        0.0830
     41 H          -4.9020    1.9471    1.2840 H       1  UNL1        0.0633
     42 H          -2.8372    0.5968    1.4803 H       1  UNL1        0.0625
     43 H           2.0831   -0.9801    0.7396 H       1  UNL1        0.1685
@<TRIPOS>BOND
     1     1     2    1
     2     2     3   ar
     3     3     4   ar
     4     4     5   ar
     5     5     6    1
     6     6     7   ar
     7     7     8    1
     8     7     9   ar
     9     9    10   ar
    10    10    11   ar
    11    11    12    1
    12    12    13   am
    13    13    14    2
    14    13    15    1
    15    15    16    1
    16    16    17   ar
    17    17    18   ar
    18    18    19   ar
    19    19    20   ar
    20    20    21   ar
    21    21    22   ar
    22    22    23   ar
    23    23    24   ar
    24    24    25   ar
    25     5    26   ar
    26    26     2   ar
    27    11     6   ar
    28    25    16   ar
    29    25    20   ar
    30     1    27    1
    31     1    28    1
    32     1    29    1
    33     8    30    1
    34     8    31    1
    35     8    32    1
    36     9    33    1
    37    12    34    1
    38    15    35    1
    39    15    36    1
    40    17    37    1
    41    18    38    1
    42    19    39    1
    43    22    40    1
    44    23    41    1
    45    24    42    1
    46    26    43    1
