
     RDKit          3D

 40 40  0  0  0  0  0  0  0  0999 V2000
    5.3663    1.7622    0.6047 C   0  0  0  0  0  0  0  0  0  0  0  0
    4.4202    1.8550   -0.5566 C   0  0  0  0  0  0  0  0  0  0  0  0
    3.7779    0.5927   -0.8505 N   0  0  0  0  0  0  0  0  0  0  0  0
    4.3539   -0.3629   -1.7757 C   0  0  0  0  0  0  0  0  0  0  0  0
    2.5527    0.2923   -0.2111 C   0  0  0  0  0  0  0  0  0  0  0  0
    2.0491    1.1152    0.5904 O   0  0  0  0  0  0  0  0  0  0  0  0
    1.8530   -0.8876   -0.4202 O   0  0  0  0  0  0  0  0  0  0  0  0
    0.6529   -1.1774    0.2086 C   0  0  0  0  0  0  0  0  0  0  0  0
    0.7024   -1.8346    1.4193 C   0  0  0  0  0  0  0  0  0  0  0  0
   -0.4832   -2.1311    2.0591 C   0  0  0  0  0  0  0  0  0  0  0  0
   -1.7156   -1.7783    1.5026 C   0  0  0  0  0  0  0  0  0  0  0  0
   -1.7650   -1.1207    0.2909 C   0  0  0  0  0  0  0  0  0  0  0  0
   -3.0541   -0.7406   -0.3119 C   0  0  2  0  0  0  0  0  0  0  0  0
   -2.8360    0.0902   -1.5495 C   0  0  0  0  0  0  0  0  0  0  0  0
   -3.9640   -0.1497    0.6255 N   0  0  0  0  0  0  0  0  0  0  0  0
   -3.5626    1.1252    1.1202 C   0  0  0  0  0  0  0  0  0  0  0  0
   -5.3188   -0.1571    0.1708 C   0  0  0  0  0  0  0  0  0  0  0  0
   -0.5816   -0.8288   -0.3403 C   0  0  0  0  0  0  0  0  0  0  0  0
    5.0694    0.9428    1.2860 H   0  0  0  0  0  0  0  0  0  0  0  0
    5.3863    2.7540    1.1059 H   0  0  0  0  0  0  0  0  0  0  0  0
    6.3955    1.5760    0.2245 H   0  0  0  0  0  0  0  0  0  0  0  0
    4.9987    2.1691   -1.4612 H   0  0  0  0  0  0  0  0  0  0  0  0
    3.6751    2.6469   -0.3789 H   0  0  0  0  0  0  0  0  0  0  0  0
    5.0586   -1.0162   -1.2296 H   0  0  0  0  0  0  0  0  0  0  0  0
    4.9205    0.2313   -2.5337 H   0  0  0  0  0  0  0  0  0  0  0  0
    3.5712   -0.9666   -2.2818 H   0  0  0  0  0  0  0  0  0  0  0  0
    1.6526   -2.1131    1.8604 H   0  0  0  0  0  0  0  0  0  0  0  0
   -0.4592   -2.6450    3.0069 H   0  0  0  0  0  0  0  0  0  0  0  0
   -2.6555   -2.0092    2.0021 H   0  0  0  0  0  0  0  0  0  0  0  0
   -3.5336   -1.6981   -0.6622 H   0  0  0  0  0  0  0  0  0  0  0  0
   -2.3490   -0.5991   -2.3010 H   0  0  0  0  0  0  0  0  0  0  0  0
   -2.2039    0.9843   -1.3677 H   0  0  0  0  0  0  0  0  0  0  0  0
   -3.8035    0.3683   -2.0031 H   0  0  0  0  0  0  0  0  0  0  0  0
   -2.7313    1.0688    1.8705 H   0  0  0  0  0  0  0  0  0  0  0  0
   -4.4280    1.5600    1.6779 H   0  0  0  0  0  0  0  0  0  0  0  0
   -3.3216    1.8611    0.3265 H   0  0  0  0  0  0  0  0  0  0  0  0
   -5.8912    0.5492    0.8331 H   0  0  0  0  0  0  0  0  0  0  0  0
   -5.7177   -1.1914    0.2607 H   0  0  0  0  0  0  0  0  0  0  0  0
   -5.4771    0.1803   -0.8522 H   0  0  0  0  0  0  0  0  0  0  0  0
   -0.6036   -0.3177   -1.2831 H   0  0  0  0  0  0  0  0  0  0  0  0
  1  2  1  0
  2  3  1  0
  3  4  1  0
  3  5  1  0
  5  6  2  0
  5  7  1  0
  7  8  1  0
  8  9  2  0
  9 10  1  0
 10 11  2  0
 11 12  1  0
 12 13  1  0
 13 14  1  0
 13 15  1  0
 15 16  1  0
 15 17  1  0
 12 18  2  0
 18  8  1  0
  1 19  1  0
  1 20  1  0
  1 21  1  0
  2 22  1  0
  2 23  1  0
  4 24  1  0
  4 25  1  0
  4 26  1  0
  9 27  1  0
 10 28  1  0
 11 29  1  0
 13 30  1  6
 14 31  1  0
 14 32  1  0
 14 33  1  0
 16 34  1  0
 16 35  1  0
 16 36  1  0
 17 37  1  0
 17 38  1  0
 17 39  1  0
 18 40  1  0
M  END
$$$$
