@<TRIPOS>MOLECULE
*****
 40 40 0 0 0
SMALL
GASTEIGER

@<TRIPOS>ATOM
      1 C           5.3663    1.7622    0.6047 C.3     1  UNL1       -0.0492
      2 C           4.4202    1.8550   -0.5566 C.3     1  UNL1        0.0147
      3 N           3.7779    0.5927   -0.8505 N.am    1  UNL1       -0.2704
      4 C           4.3539   -0.3629   -1.7757 C.3     1  UNL1        0.0063
      5 C           2.5527    0.2923   -0.2111 C.2     1  UNL1        0.4079
      6 O           2.0491    1.1152    0.5904 O.2     1  UNL1       -0.2258
      7 O           1.8530   -0.8876   -0.4202 O.3     1  UNL1       -0.4114
      8 C           0.6529   -1.1774    0.2086 C.ar    1  UNL1        0.1335
      9 C           0.7024   -1.8346    1.4193 C.ar    1  UNL1       -0.0192
     10 C          -0.4832   -2.1311    2.0591 C.ar    1  UNL1       -0.0580
     11 C          -1.7156   -1.7783    1.5026 C.ar    1  UNL1       -0.0569
     12 C          -1.7650   -1.1207    0.2909 C.ar    1  UNL1       -0.0271
     13 C          -3.0541   -0.7406   -0.3119 C.3     1  UNL1        0.0323
     14 C          -2.8360    0.0902   -1.5495 C.3     1  UNL1       -0.0454
     15 N          -3.9640   -0.1497    0.6255 N.3     1  UNL1       -0.3017
     16 C          -3.5626    1.1252    1.1202 C.3     1  UNL1       -0.0125
     17 C          -5.3188   -0.1571    0.1708 C.3     1  UNL1       -0.0125
     18 C          -0.5816   -0.8288   -0.3403 C.ar    1  UNL1       -0.0145
     19 H           5.0694    0.9428    1.2860 H       1  UNL1        0.0245
     20 H           5.3863    2.7540    1.1059 H       1  UNL1        0.0245
     21 H           6.3955    1.5760    0.2245 H       1  UNL1        0.0245
     22 H           4.9987    2.1691   -1.4612 H       1  UNL1        0.0463
     23 H           3.6751    2.6469   -0.3789 H       1  UNL1        0.0463
     24 H           5.0586   -1.0162   -1.2296 H       1  UNL1        0.0429
     25 H           4.9205    0.2313   -2.5337 H       1  UNL1        0.0429
     26 H           3.5712   -0.9666   -2.2818 H       1  UNL1        0.0429
     27 H           1.6526   -2.1131    1.8604 H       1  UNL1        0.0654
     28 H          -0.4592   -2.6450    3.0069 H       1  UNL1        0.0619
     29 H          -2.6555   -2.0092    2.0021 H       1  UNL1        0.0621
     30 H          -3.5336   -1.6981   -0.6622 H       1  UNL1        0.0509
     31 H          -2.3490   -0.5991   -2.3010 H       1  UNL1        0.0248
     32 H          -2.2039    0.9843   -1.3677 H       1  UNL1        0.0248
     33 H          -3.8035    0.3683   -2.0031 H       1  UNL1        0.0248
     34 H          -2.7313    1.0688    1.8705 H       1  UNL1        0.0391
     35 H          -4.4280    1.5600    1.6779 H       1  UNL1        0.0391
     36 H          -3.3216    1.8611    0.3265 H       1  UNL1        0.0391
     37 H          -5.8912    0.5492    0.8331 H       1  UNL1        0.0391
     38 H          -5.7177   -1.1914    0.2607 H       1  UNL1        0.0391
     39 H          -5.4771    0.1803   -0.8522 H       1  UNL1        0.0391
     40 H          -0.6036   -0.3177   -1.2831 H       1  UNL1        0.0657
@<TRIPOS>BOND
     1     1     2    1
     2     2     3    1
     3     3     4    1
     4     3     5   am
     5     5     6    2
     6     5     7    1
     7     7     8    1
     8     8     9   ar
     9     9    10   ar
    10    10    11   ar
    11    11    12   ar
    12    12    13    1
    13    13    14    1
    14    13    15    1
    15    15    16    1
    16    15    17    1
    17    12    18   ar
    18    18     8   ar
    19     1    19    1
    20     1    20    1
    21     1    21    1
    22     2    22    1
    23     2    23    1
    24     4    24    1
    25     4    25    1
    26     4    26    1
    27     9    27    1
    28    10    28    1
    29    11    29    1
    30    13    30    1
    31    14    31    1
    32    14    32    1
    33    14    33    1
    34    16    34    1
    35    16    35    1
    36    16    36    1
    37    17    37    1
    38    17    38    1
    39    17    39    1
    40    18    40    1
