
     RDKit          3D

 21 22  0  0  0  0  0  0  0  0999 V2000
   -1.1098    0.6038    1.5940 O   0  0  0  0  0  0  0  0  0  0  0  0
   -1.9407    0.0900    0.7565 C   0  0  0  0  0  0  0  0  0  0  0  0
   -3.2980    0.0853    1.0091 N   0  0  0  0  0  0  0  0  0  0  0  0
   -4.0804   -0.4299    0.1768 C   0  0  0  0  0  0  0  0  0  0  0  0
   -5.4469   -0.5026    0.2934 O   0  0  0  0  0  0  0  0  0  0  0  0
   -3.1162   -1.0556   -1.1741 S   0  0  0  0  0  0  0  0  0  0  0  0
   -1.5207   -0.5151   -0.4914 C   0  0  0  0  0  0  0  0  0  0  0  0
   -0.3547   -0.6622   -1.0819 C   0  0  0  0  0  0  0  0  0  0  0  0
    0.9242   -0.2095   -0.5910 C   0  0  0  0  0  0  0  0  0  0  0  0
    2.0056   -1.0789   -0.5207 C   0  0  0  0  0  0  0  0  0  0  0  0
    3.2529   -0.6487   -0.0699 C   0  0  0  0  0  0  0  0  0  0  0  0
    3.4521    0.6583    0.3220 C   0  0  0  0  0  0  0  0  0  0  0  0
    5.1614    1.2267    0.9355 Br  0  0  0  0  0  0  0  0  0  0  0  0
    2.3925    1.5259    0.2570 C   0  0  0  0  0  0  0  0  0  0  0  0
    1.1486    1.0898   -0.1954 C   0  0  0  0  0  0  0  0  0  0  0  0
   -5.9958    0.0659    0.9264 H   0  0  0  0  0  0  0  0  0  0  0  0
   -0.3381   -1.1822   -2.0546 H   0  0  0  0  0  0  0  0  0  0  0  0
    1.9205   -2.1171   -0.8133 H   0  0  0  0  0  0  0  0  0  0  0  0
    4.1159   -1.3063   -0.0066 H   0  0  0  0  0  0  0  0  0  0  0  0
    2.5026    2.5615    0.5578 H   0  0  0  0  0  0  0  0  0  0  0  0
    0.3249    1.8011   -0.2607 H   0  0  0  0  0  0  0  0  0  0  0  0
  1  2  2  0
  2  3  1  0
  3  4  2  0
  4  5  1  0
  4  6  1  0
  6  7  1  0
  7  8  2  3
  8  9  1  0
  9 10  2  0
 10 11  1  0
 11 12  2  0
 12 13  1  0
 12 14  1  0
 14 15  2  0
  7  2  1  0
 15  9  1  0
  5 16  1  0
  8 17  1  0
 10 18  1  0
 11 19  1  0
 14 20  1  0
 15 21  1  0
M  END
$$$$
