@<TRIPOS>MOLECULE
*****
 21 22 0 0 0
SMALL
GASTEIGER

@<TRIPOS>ATOM
      1 O          -1.1098    0.6038    1.5940 O.2     1  UNL1       -0.2674
      2 C          -1.9407    0.0900    0.7565 C.2     1  UNL1        0.2774
      3 N          -3.2980    0.0853    1.0091 N.am    1  UNL1       -0.1348
      4 C          -4.0804   -0.4299    0.1768 C.2     1  UNL1        0.2466
      5 O          -5.4469   -0.5026    0.2934 O.2     1  UNL1       -0.4890
      6 S          -3.1162   -1.0556   -1.1741 S.3     1  UNL1       -0.0290
      7 C          -1.5207   -0.5151   -0.4914 C.2     1  UNL1        0.0812
      8 C          -0.3547   -0.6622   -1.0819 C.2     1  UNL1       -0.0356
      9 C           0.9242   -0.2095   -0.5910 C.ar    1  UNL1       -0.0238
     10 C           2.0056   -1.0789   -0.5207 C.ar    1  UNL1       -0.0535
     11 C           3.2529   -0.6487   -0.0699 C.ar    1  UNL1       -0.0472
     12 C           3.4521    0.6583    0.3220 C.ar    1  UNL1        0.0179
     13 BR          5.1614    1.2267    0.9355 Br      1  UNL1       -0.0503
     14 C           2.3925    1.5259    0.2570 C.ar    1  UNL1       -0.0472
     15 C           1.1486    1.0898   -0.1954 C.ar    1  UNL1       -0.0535
     16 H          -5.9958    0.0659    0.9264 H       1  UNL1        0.2941
     17 H          -0.3381   -1.1822   -2.0546 H       1  UNL1        0.0636
     18 H           1.9205   -2.1171   -0.8133 H       1  UNL1        0.0624
     19 H           4.1159   -1.3063   -0.0066 H       1  UNL1        0.0629
     20 H           2.5026    2.5615    0.5578 H       1  UNL1        0.0629
     21 H           0.3249    1.8011   -0.2607 H       1  UNL1        0.0624
@<TRIPOS>BOND
     1     1     2    2
     2     2     3    1
     3     3     4    2
     4     4     5    1
     5     4     6    1
     6     6     7    1
     7     7     8    2
     8     8     9    1
     9     9    10   ar
    10    10    11   ar
    11    11    12   ar
    12    12    13    1
    13    12    14   ar
    14    14    15   ar
    15     7     2    1
    16    15     9   ar
    17     5    16    1
    18     8    17    1
    19    10    18    1
    20    11    19    1
    21    14    20    1
    22    15    21    1
