@<TRIPOS>MOLECULE
*****
 60 63 0 0 0
SMALL
GASTEIGER

@<TRIPOS>ATOM
      1 C           6.0963    1.6401   -1.2269 C.3     1  UNL1        0.0121
      2 C           4.8725    1.0375   -0.5897 C.2     1  UNL1        0.2099
      3 O           4.3344    0.0942   -1.1955 O.2     1  UNL1       -0.2761
      4 N           4.3726    1.5283    0.6337 N.am    1  UNL1       -0.3152
      5 C           3.2489    1.0614    1.3846 C.3     1  UNL1        0.0156
      6 C           3.3176   -0.2760    2.0272 C.3     1  UNL1       -0.0114
      7 C           3.4975   -1.3936    1.1191 C.ar    1  UNL1       -0.0351
      8 C           4.8062   -1.9236    1.0233 C.ar    1  UNL1       -0.0578
      9 C           5.0414   -2.9746    0.1719 C.ar    1  UNL1       -0.0615
     10 C           4.0303   -3.5053   -0.5746 C.ar    1  UNL1       -0.0611
     11 C           2.7448   -2.9676   -0.4634 C.ar    1  UNL1       -0.0507
     12 C           2.4515   -1.9050    0.3829 C.ar    1  UNL1        0.0243
     13 C           1.1121   -1.3880    0.5849 C.ar    1  UNL1        0.1816
     14 O           0.6810   -0.5991    1.5484 O.2     1  UNL1       -0.3532
     15 N          -0.5685   -0.3202    1.4397 N.ar    1  UNL1       -0.0811
     16 C          -1.0920   -0.9030    0.3831 C.ar    1  UNL1        0.1037
     17 C          -2.4352   -0.9401   -0.2280 C.3     1  UNL1        0.0362
     18 C          -3.1905   -2.1905    0.1471 C.3     1  UNL1        0.0056
     19 N          -4.2561   -2.3451   -0.8435 N.3     1  UNL1       -0.3153
     20 C          -5.2134   -1.2609   -0.7134 C.3     1  UNL1       -0.0028
     21 C          -4.5997    0.0787   -0.7384 C.3     1  UNL1       -0.0217
     22 C          -3.2945    0.2386    0.0180 C.3     1  UNL1        0.0823
     23 C          -3.6443    0.3309    1.4511 C.2     1  UNL1        0.2217
     24 N          -4.6807    1.1667    1.9691 N.am    1  UNL1       -0.3286
     25 O          -3.0270   -0.3463    2.3183 O.2     1  UNL1       -0.2750
     26 C          -2.7176    1.5109   -0.5053 C.ar    1  UNL1       -0.0289
     27 C          -1.5988    1.5614   -1.2948 C.ar    1  UNL1       -0.0547
     28 C          -1.1317    2.7798   -1.7426 C.ar    1  UNL1       -0.0233
     29 C          -1.7343    3.9794   -1.4389 C.ar    1  UNL1        0.1584
     30 F          -1.2351    5.1707   -1.9066 F       1  UNL1       -0.2025
     31 C          -2.8561    3.9325   -0.6481 C.ar    1  UNL1        0.1587
     32 F          -3.4749    5.0907   -0.3294 F       1  UNL1       -0.2025
     33 C          -3.3332    2.6943   -0.1914 C.ar    1  UNL1       -0.0194
     34 C          -0.0058   -1.6048   -0.1876 C.ar    1  UNL1        0.0880
     35 BR         -0.1584   -2.6395   -1.8000 Br      1  UNL1       -0.0444
     36 H           5.8968    2.5987   -1.7058 H       1  UNL1        0.0322
     37 H           6.8899    1.8004   -0.4658 H       1  UNL1        0.0322
     38 H           6.5294    0.9456   -1.9744 H       1  UNL1        0.0322
     39 H           4.9491    2.3658    1.0109 H       1  UNL1        0.1487
     40 H           2.3649    1.1265    0.6542 H       1  UNL1        0.0465
     41 H           2.9738    1.8667    2.1215 H       1  UNL1        0.0465
     42 H           4.2469   -0.2245    2.7065 H       1  UNL1        0.0328
     43 H           2.4575   -0.4007    2.7429 H       1  UNL1        0.0328
     44 H           5.5966   -1.4930    1.6189 H       1  UNL1        0.0620
     45 H           6.0709   -3.3561    0.1274 H       1  UNL1        0.0618
     46 H           4.1869   -4.3142   -1.2384 H       1  UNL1        0.0618
     47 H           1.9610   -3.4168   -1.0550 H       1  UNL1        0.0625
     48 H          -2.3221   -1.0101   -1.3611 H       1  UNL1        0.0391
     49 H          -2.5625   -3.1026    0.0548 H       1  UNL1        0.0431
     50 H          -3.6173   -2.1509    1.1459 H       1  UNL1        0.0431
     51 H          -4.7737   -3.2361   -0.6225 H       1  UNL1        0.1220
     52 H          -5.9113   -1.3464   -1.5712 H       1  UNL1        0.0424
     53 H          -5.8299   -1.4405    0.2030 H       1  UNL1        0.0424
     54 H          -4.3775    0.3393   -1.8144 H       1  UNL1        0.0291
     55 H          -5.3483    0.8162   -0.3247 H       1  UNL1        0.0291
     56 H          -5.6752    1.0576    1.6952 H       1  UNL1        0.1450
     57 H          -4.4581    1.9296    2.6553 H       1  UNL1        0.1450
     58 H          -1.1230    0.6271   -1.5447 H       1  UNL1        0.0621
     59 H          -0.2487    2.8260   -2.3666 H       1  UNL1        0.0647
     60 H          -4.2355    2.7794    0.4225 H       1  UNL1        0.0650
@<TRIPOS>BOND
     1     1     2    1
     2     2     3    2
     3     2     4   am
     4     4     5    1
     5     5     6    1
     6     6     7    1
     7     7     8   ar
     8     8     9   ar
     9     9    10   ar
    10    10    11   ar
    11    11    12   ar
    12    12    13    1
    13    13    14   ar
    14    14    15   ar
    15    15    16   ar
    16    16    17    1
    17    17    18    1
    18    18    19    1
    19    19    20    1
    20    20    21    1
    21    21    22    1
    22    22    23    1
    23    23    24   am
    24    23    25    2
    25    22    26    1
    26    26    27   ar
    27    27    28   ar
    28    28    29   ar
    29    29    30    1
    30    29    31   ar
    31    31    32    1
    32    31    33   ar
    33    16    34   ar
    34    34    35    1
    35    12     7   ar
    36    34    13   ar
    37    22    17    1
    38    33    26   ar
    39     1    36    1
    40     1    37    1
    41     1    38    1
    42     4    39    1
    43     5    40    1
    44     5    41    1
    45     6    42    1
    46     6    43    1
    47     8    44    1
    48     9    45    1
    49    10    46    1
    50    11    47    1
    51    17    48    1
    52    18    49    1
    53    18    50    1
    54    19    51    1
    55    20    52    1
    56    20    53    1
    57    21    54    1
    58    21    55    1
    59    24    56    1
    60    24    57    1
    61    27    58    1
    62    28    59    1
    63    33    60    1
