
     RDKit          3D

 61 64  0  0  0  0  0  0  0  0999 V2000
    6.9712    2.4395    1.4734 C   0  0  0  0  0  0  0  0  0  0  0  0
    5.6584    1.7207    1.5661 C   0  0  0  0  0  0  0  0  0  0  0  0
    5.7174    0.3290    0.9232 C   0  0  2  0  0  0  0  0  0  0  0  0
    4.4675   -0.2376    1.0636 O   0  0  0  0  0  0  0  0  0  0  0  0
    3.6506   -0.7105    0.0462 C   0  0  0  0  0  0  0  0  0  0  0  0
    3.9942   -0.6746   -1.2863 C   0  0  0  0  0  0  0  0  0  0  0  0
    3.1169   -1.1687   -2.2317 C   0  0  0  0  0  0  0  0  0  0  0  0
    1.8917   -1.7060   -1.9028 C   0  0  0  0  0  0  0  0  0  0  0  0
    1.5296   -1.7513   -0.5812 C   0  0  0  0  0  0  0  0  0  0  0  0
    0.2372   -2.3145   -0.2087 C   0  0  0  0  0  0  0  0  0  0  0  0
   -0.8447   -1.3581   -0.1600 N   0  0  0  0  0  0  0  0  0  0  0  0
   -1.1821   -0.6677    0.9259 C   0  0  0  0  0  0  0  0  0  0  0  0
   -0.5507   -0.7193    2.2876 C   0  0  0  0  0  0  0  0  0  0  0  0
   -2.2614    0.1624    0.6365 C   0  0  0  0  0  0  0  0  0  0  0  0
   -2.8879    1.0901    1.5538 C   0  0  0  0  0  0  0  0  0  0  0  0
   -2.1102    1.5210    2.4901 O   0  0  0  0  0  0  0  0  0  0  0  0
   -4.2309    1.5857    1.5705 C   0  0  0  0  0  0  0  0  0  0  0  0
   -4.4651    2.8838    2.0454 C   0  0  0  0  0  0  0  0  0  0  0  0
   -5.7319    3.4159    2.1396 C   0  0  0  0  0  0  0  0  0  0  0  0
   -6.8344    2.6837    1.7658 C   0  0  0  0  0  0  0  0  0  0  0  0
   -8.4252    3.3804    1.8950 Cl  0  0  0  0  0  0  0  0  0  0  0  0
   -6.6409    1.4060    1.2952 C   0  0  0  0  0  0  0  0  0  0  0  0
   -5.3699    0.8980    1.2105 C   0  0  0  0  0  0  0  0  0  0  0  0
   -2.5789   -0.0424   -0.6820 C   0  0  0  0  0  0  0  0  0  0  0  0
   -3.5177    0.4784   -1.5470 C   0  0  0  0  0  0  0  0  0  0  0  0
   -3.6111    0.0935   -2.8662 C   0  0  0  0  0  0  0  0  0  0  0  0
   -2.7268   -0.8494   -3.3324 C   0  0  0  0  0  0  0  0  0  0  0  0
   -2.7787   -1.2754   -4.6604 O   0  0  0  0  0  0  0  0  0  0  0  0
   -3.5658   -2.3704   -5.0760 C   0  0  0  0  0  0  0  0  0  0  0  0
   -3.1918   -3.5359   -4.4328 F   0  0  0  0  0  0  0  0  0  0  0  0
   -3.3779   -2.5383   -6.4353 F   0  0  0  0  0  0  0  0  0  0  0  0
   -4.9105   -2.0961   -4.8255 F   0  0  0  0  0  0  0  0  0  0  0  0
   -1.7825   -1.3785   -2.4853 C   0  0  0  0  0  0  0  0  0  0  0  0
   -1.6726   -1.0038   -1.1564 C   0  0  0  0  0  0  0  0  0  0  0  0
    2.3993   -1.2619    0.3527 C   0  0  0  0  0  0  0  0  0  0  0  0
    6.7808   -0.3943    1.6836 C   0  0  0  0  0  0  0  0  0  0  0  0
    7.9482    0.0635    1.6035 O   0  0  0  0  0  0  0  0  0  0  0  0
    6.5649   -1.5118    2.4531 O   0  0  0  0  0  0  0  0  0  0  0  0
    7.5490    2.1259    0.5824 H   0  0  0  0  0  0  0  0  0  0  0  0
    6.7328    3.5425    1.4204 H   0  0  0  0  0  0  0  0  0  0  0  0
    7.5172    2.2591    2.4159 H   0  0  0  0  0  0  0  0  0  0  0  0
    4.9164    2.2927    0.9508 H   0  0  0  0  0  0  0  0  0  0  0  0
    5.2883    1.6338    2.5998 H   0  0  0  0  0  0  0  0  0  0  0  0
    6.0877    0.4034   -0.1124 H   0  0  0  0  0  0  0  0  0  0  0  0
    4.9469   -0.2620   -1.5981 H   0  0  0  0  0  0  0  0  0  0  0  0
    3.4028   -1.1341   -3.2880 H   0  0  0  0  0  0  0  0  0  0  0  0
    1.2703   -2.0689   -2.7058 H   0  0  0  0  0  0  0  0  0  0  0  0
   -0.1052   -3.1275   -0.9058 H   0  0  0  0  0  0  0  0  0  0  0  0
    0.3375   -2.8094    0.7901 H   0  0  0  0  0  0  0  0  0  0  0  0
    0.2651    0.0252    2.3553 H   0  0  0  0  0  0  0  0  0  0  0  0
   -0.0838   -1.7115    2.4555 H   0  0  0  0  0  0  0  0  0  0  0  0
   -1.3150   -0.6035    3.0827 H   0  0  0  0  0  0  0  0  0  0  0  0
   -3.6150    3.4758    2.3440 H   0  0  0  0  0  0  0  0  0  0  0  0
   -5.9045    4.4210    2.5082 H   0  0  0  0  0  0  0  0  0  0  0  0
   -7.5241    0.8306    1.0000 H   0  0  0  0  0  0  0  0  0  0  0  0
   -5.2394   -0.1212    0.8330 H   0  0  0  0  0  0  0  0  0  0  0  0
   -4.2115    1.2402   -1.2146 H   0  0  0  0  0  0  0  0  0  0  0  0
   -4.3544    0.5101   -3.5360 H   0  0  0  0  0  0  0  0  0  0  0  0
   -1.1151   -2.1075   -2.8837 H   0  0  0  0  0  0  0  0  0  0  0  0
    2.1537   -1.2776    1.4226 H   0  0  0  0  0  0  0  0  0  0  0  0
    7.3220   -2.1224    2.7295 H   0  0  0  0  0  0  0  0  0  0  0  0
  1  2  1  0
  2  3  1  0
  3  4  1  0
  4  5  1  0
  5  6  2  0
  6  7  1  0
  7  8  2  0
  8  9  1  0
  9 10  1  0
 10 11  1  0
 11 12  1  0
 12 13  1  0
 12 14  2  0
 14 15  1  0
 15 16  2  0
 15 17  1  0
 17 18  2  0
 18 19  1  0
 19 20  2  0
 20 21  1  0
 20 22  1  0
 22 23  2  0
 14 24  1  0
 24 25  2  0
 25 26  1  0
 26 27  2  0
 27 28  1  0
 28 29  1  0
 29 30  1  0
 29 31  1  0
 29 32  1  0
 27 33  1  0
 33 34  2  0
  9 35  2  0
  3 36  1  0
 36 37  2  0
 36 38  1  0
 35  5  1  0
 34 11  1  0
 23 17  1  0
 34 24  1  0
  1 39  1  0
  1 40  1  0
  1 41  1  0
  2 42  1  0
  2 43  1  0
  3 44  1  6
  6 45  1  0
  7 46  1  0
  8 47  1  0
 10 48  1  0
 10 49  1  0
 13 50  1  0
 13 51  1  0
 13 52  1  0
 18 53  1  0
 19 54  1  0
 22 55  1  0
 23 56  1  0
 25 57  1  0
 26 58  1  0
 33 59  1  0
 35 60  1  0
 38 61  1  0
M  END
$$$$
