@<TRIPOS>MOLECULE
*****
 61 64 0 0 0
SMALL
GASTEIGER

@<TRIPOS>ATOM
      1 C           6.9712    2.4395    1.4734 C.3     1  UNL1       -0.0614
      2 C           5.6584    1.7207    1.5661 C.3     1  UNL1       -0.0080
      3 C           5.7174    0.3290    0.9232 C.3     1  UNL1        0.1956
      4 O           4.4675   -0.2376    1.0636 O.3     1  UNL1       -0.4776
      5 C           3.6506   -0.7105    0.0462 C.ar    1  UNL1        0.1220
      6 C           3.9942   -0.6746   -1.2863 C.ar    1  UNL1       -0.0199
      7 C           3.1169   -1.1687   -2.2317 C.ar    1  UNL1       -0.0580
      8 C           1.8917   -1.7060   -1.9028 C.ar    1  UNL1       -0.0566
      9 C           1.5296   -1.7513   -0.5812 C.ar    1  UNL1       -0.0243
     10 C           0.2372   -2.3145   -0.2087 C.3     1  UNL1        0.0487
     11 N          -0.8447   -1.3581   -0.1600 N.ar    1  UNL1       -0.3389
     12 C          -1.1821   -0.6677    0.9259 C.ar    1  UNL1        0.0279
     13 C          -0.5507   -0.7193    2.2876 C.3     1  UNL1       -0.0235
     14 C          -2.2614    0.1624    0.6365 C.ar    1  UNL1        0.0504
     15 C          -2.8879    1.0901    1.5538 C.2     1  UNL1        0.1954
     16 O          -2.1102    1.5210    2.4901 O.2     1  UNL1       -0.2866
     17 C          -4.2309    1.5857    1.5705 C.ar    1  UNL1        0.0224
     18 C          -4.4651    2.8838    2.0454 C.ar    1  UNL1       -0.0495
     19 C          -5.7319    3.4159    2.1396 C.ar    1  UNL1       -0.0427
     20 C          -6.8344    2.6837    1.7658 C.ar    1  UNL1        0.0410
     21 CL         -8.4252    3.3804    1.8950 Cl      1  UNL1       -0.0835
     22 C          -6.6409    1.4060    1.2952 C.ar    1  UNL1       -0.0427
     23 C          -5.3699    0.8980    1.2105 C.ar    1  UNL1       -0.0495
     24 C          -2.5789   -0.0424   -0.6820 C.ar    1  UNL1        0.0112
     25 C          -3.5177    0.4784   -1.5470 C.ar    1  UNL1       -0.0484
     26 C          -3.6111    0.0935   -2.8662 C.ar    1  UNL1       -0.0189
     27 C          -2.7268   -0.8494   -3.3324 C.ar    1  UNL1        0.1320
     28 O          -2.7787   -1.2754   -4.6604 O.3     1  UNL1       -0.4057
     29 C          -3.5658   -2.3704   -5.0760 C.3     1  UNL1        0.5752
     30 F          -3.1918   -3.5359   -4.4328 F       1  UNL1       -0.1328
     31 F          -3.3779   -2.5383   -6.4353 F       1  UNL1       -0.1328
     32 F          -4.9105   -2.0961   -4.8255 F       1  UNL1       -0.1328
     33 C          -1.7825   -1.3785   -2.4853 C.ar    1  UNL1        0.0045
     34 C          -1.6726   -1.0038   -1.1564 C.ar    1  UNL1        0.0537
     35 C           2.3993   -1.2619    0.3527 C.ar    1  UNL1       -0.0150
     36 C           6.7808   -0.3943    1.6836 C.2     1  UNL1        0.3459
     37 O           7.9482    0.0635    1.6035 O.2     1  UNL1       -0.2468
     38 O           6.5649   -1.5118    2.4531 O.3     1  UNL1       -0.4781
     39 H           7.5490    2.1259    0.5824 H       1  UNL1        0.0231
     40 H           6.7328    3.5425    1.4204 H       1  UNL1        0.0231
     41 H           7.5172    2.2591    2.4159 H       1  UNL1        0.0231
     42 H           4.9164    2.2927    0.9508 H       1  UNL1        0.0304
     43 H           5.2883    1.6338    2.5998 H       1  UNL1        0.0304
     44 H           6.0877    0.4034   -0.1124 H       1  UNL1        0.0851
     45 H           4.9469   -0.2620   -1.5981 H       1  UNL1        0.0654
     46 H           3.4028   -1.1341   -3.2880 H       1  UNL1        0.0619
     47 H           1.2703   -2.0689   -2.7058 H       1  UNL1        0.0621
     48 H          -0.1052   -3.1275   -0.9058 H       1  UNL1        0.0541
     49 H           0.3375   -2.8094    0.7901 H       1  UNL1        0.0541
     50 H           0.2651    0.0252    2.3553 H       1  UNL1        0.0292
     51 H          -0.0838   -1.7115    2.4555 H       1  UNL1        0.0292
     52 H          -1.3150   -0.6035    3.0827 H       1  UNL1        0.0292
     53 H          -3.6150    3.4758    2.3440 H       1  UNL1        0.0625
     54 H          -5.9045    4.4210    2.5082 H       1  UNL1        0.0632
     55 H          -7.5241    0.8306    1.0000 H       1  UNL1        0.0632
     56 H          -5.2394   -0.1212    0.8330 H       1  UNL1        0.0625
     57 H          -4.2115    1.2402   -1.2146 H       1  UNL1        0.0625
     58 H          -4.3544    0.5101   -3.5360 H       1  UNL1        0.0654
     59 H          -1.1151   -2.1075   -2.8837 H       1  UNL1        0.0675
     60 H           2.1537   -1.2776    1.4226 H       1  UNL1        0.0657
     61 H           7.3220   -2.1224    2.7295 H       1  UNL1        0.2952
@<TRIPOS>BOND
     1     1     2    1
     2     2     3    1
     3     3     4    1
     4     4     5    1
     5     5     6   ar
     6     6     7   ar
     7     7     8   ar
     8     8     9   ar
     9     9    10    1
    10    10    11    1
    11    11    12   ar
    12    12    13    1
    13    12    14   ar
    14    14    15    1
    15    15    16    2
    16    15    17    1
    17    17    18   ar
    18    18    19   ar
    19    19    20   ar
    20    20    21    1
    21    20    22   ar
    22    22    23   ar
    23    14    24   ar
    24    24    25   ar
    25    25    26   ar
    26    26    27   ar
    27    27    28    1
    28    28    29    1
    29    29    30    1
    30    29    31    1
    31    29    32    1
    32    27    33   ar
    33    33    34   ar
    34     9    35   ar
    35     3    36    1
    36    36    37    2
    37    36    38    1
    38    35     5   ar
    39    34    11   ar
    40    23    17   ar
    41    34    24   ar
    42     1    39    1
    43     1    40    1
    44     1    41    1
    45     2    42    1
    46     2    43    1
    47     3    44    1
    48     6    45    1
    49     7    46    1
    50     8    47    1
    51    10    48    1
    52    10    49    1
    53    13    50    1
    54    13    51    1
    55    13    52    1
    56    18    53    1
    57    19    54    1
    58    22    55    1
    59    23    56    1
    60    25    57    1
    61    26    58    1
    62    33    59    1
    63    35    60    1
    64    38    61    1
