@<TRIPOS>MOLECULE
*****
 46 49 0 0 0
SMALL
GASTEIGER

@<TRIPOS>ATOM
      1 O          -1.7962   -1.3514    1.1822 O.2     1  UNL1       -0.2755
      2 C          -1.6575   -0.2347    0.7396 C.2     1  UNL1        0.2173
      3 C          -0.2026    0.2490    0.7353 C.3     1  UNL1        0.0297
      4 C           0.6944   -0.8235    1.2988 C.3     1  UNL1       -0.0006
      5 C           2.1046   -0.3072    1.2750 C.ar    1  UNL1        0.0611
      6 C           3.0176   -0.4372    0.2576 C.ar    1  UNL1        0.0336
      7 N           4.2188    0.1733    0.6058 N.ar    1  UNL1       -0.2929
      8 C           3.9545    0.6290    1.8027 C.ar    1  UNL1        0.1785
      9 N           2.7204    0.3730    2.2462 N.ar    1  UNL1       -0.2263
     10 S           5.4947    1.4272    2.2827 S.2     1  UNL1       -0.0491
     11 C           6.3506    1.0463    0.7696 C.ar    1  UNL1        0.0429
     12 C           7.6343    1.3278    0.3413 C.ar    1  UNL1       -0.0043
     13 C           8.0424    0.8943   -0.9237 C.ar    1  UNL1        0.1180
     14 O           9.2973    1.1279   -1.4320 O.3     1  UNL1       -0.5067
     15 C           7.1289    0.2089   -1.6658 C.ar    1  UNL1       -0.0182
     16 C           5.8713   -0.0510   -1.2120 C.ar    1  UNL1       -0.0332
     17 C           5.4089    0.3665    0.0624 C.ar    1  UNL1        0.0625
     18 N          -2.6660    0.5590    0.2762 N.am    1  UNL1       -0.2886
     19 C          -3.9970    0.5669    0.0913 C.2     1  UNL1        0.0204
     20 C          -4.9940   -0.2293    0.2795 C.2     1  UNL1        0.0534
     21 C          -4.8626   -1.5312    0.8262 C.2     1  UNL1        0.3342
     22 O          -3.9086   -2.1743    1.1917 O.2     1  UNL1       -0.2454
     23 O          -6.0963   -2.2586    0.9961 O.3     1  UNL1       -0.4773
     24 C          -6.3773    0.2821   -0.1273 C.3     1  UNL1       -0.0194
     25 C          -6.3884    0.7320   -1.5635 C.3     1  UNL1       -0.0485
     26 C          -5.1022    1.5171   -1.8470 C.3     1  UNL1       -0.0476
     27 C          -4.5400    1.9288   -0.5132 C.3     1  UNL1       -0.0140
     28 H          -0.0959    1.1605    1.3270 H       1  UNL1        0.0362
     29 H           0.1221    0.4545   -0.3034 H       1  UNL1        0.0362
     30 H           0.3916   -1.1427    2.3038 H       1  UNL1        0.0333
     31 H           0.6059   -1.7268    0.6295 H       1  UNL1        0.0333
     32 H           2.7635   -0.9530   -0.6507 H       1  UNL1        0.0832
     33 H           8.2966    1.8712    0.9798 H       1  UNL1        0.0666
     34 H          10.1567    1.1063   -0.9354 H       1  UNL1        0.2921
     35 H           7.4170   -0.1377   -2.6463 H       1  UNL1        0.0655
     36 H           5.1982   -0.6131   -1.8819 H       1  UNL1        0.0640
     37 H          -2.2102    1.5486   -0.0620 H       1  UNL1        0.1545
     38 H          -6.0989   -2.8556    1.8418 H       1  UNL1        0.2954
     39 H          -7.0544   -0.5930    0.0142 H       1  UNL1        0.0316
     40 H          -6.6596    1.0399    0.6088 H       1  UNL1        0.0316
     41 H          -7.2736    1.3766   -1.7246 H       1  UNL1        0.0269
     42 H          -6.4013   -0.1636   -2.2150 H       1  UNL1        0.0269
     43 H          -5.2611    2.4030   -2.4527 H       1  UNL1        0.0269
     44 H          -4.3574    0.8135   -2.3034 H       1  UNL1        0.0269
     45 H          -5.2318    2.3167    0.2064 H       1  UNL1        0.0326
     46 H          -3.6574    2.5554   -0.7113 H       1  UNL1        0.0326
@<TRIPOS>BOND
     1     1     2    2
     2     2     3    1
     3     3     4    1
     4     4     5    1
     5     5     6   ar
     6     6     7   ar
     7     7     8   ar
     8     8     9   ar
     9     8    10   ar
    10    10    11   ar
    11    11    12   ar
    12    12    13   ar
    13    13    14    1
    14    13    15   ar
    15    15    16   ar
    16    16    17   ar
    17     2    18   am
    18    18    19    1
    19    19    20    2
    20    20    21    1
    21    21    22    2
    22    21    23    1
    23    20    24    1
    24    24    25    1
    25    25    26    1
    26    26    27    1
    27     9     5   ar
    28    17    11   ar
    29    27    19    1
    30    17     7   ar
    31     3    28    1
    32     3    29    1
    33     4    30    1
    34     4    31    1
    35     6    32    1
    36    12    33    1
    37    14    34    1
    38    15    35    1
    39    16    36    1
    40    18    37    1
    41    23    38    1
    42    24    39    1
    43    24    40    1
    44    25    41    1
    45    25    42    1
    46    26    43    1
    47    26    44    1
    48    27    45    1
    49    27    46    1
