
     RDKit          3D

 42 45  0  0  0  0  0  0  0  0999 V2000
    1.1302   -2.0464    0.1078 O   0  0  0  0  0  0  0  0  0  0  0  0
    1.1600   -0.8121    0.0250 C   0  0  0  0  0  0  0  0  0  0  0  0
   -0.1398   -0.2315    0.0010 O   0  0  0  0  0  0  0  0  0  0  0  0
   -1.2951   -1.0792    0.0708 C   0  0  0  0  0  0  0  0  0  0  0  0
   -2.5552   -0.3121    0.0340 C   0  0  0  0  0  0  0  0  0  0  0  0
   -2.7650    0.5166   -1.1877 C   0  0  0  0  0  0  0  0  0  0  0  0
   -4.2393    0.9421   -1.1935 C   0  0  0  0  0  0  0  0  0  0  0  0
   -4.8070    0.8158    0.1348 N   0  0  0  0  0  0  0  0  0  0  0  0
   -3.9456    1.3487    1.1551 C   0  0  0  0  0  0  0  0  0  0  0  0
   -2.6119    0.6397    1.2357 C   0  0  0  0  0  0  0  0  0  0  0  0
   -5.0166   -0.6012    0.4191 C   0  0  0  0  0  0  0  0  0  0  0  0
   -3.7092   -1.3020    0.1326 C   0  0  0  0  0  0  0  0  0  0  0  0
    2.3100    0.0616   -0.0464 C   0  0  0  0  0  0  0  0  0  0  0  0
    2.2815    1.4609   -0.1395 C   0  0  0  0  0  0  0  0  0  0  0  0
    3.5126    1.9532   -0.1864 N   0  0  0  0  0  0  0  0  0  0  0  0
    4.3721    0.9110   -0.1266 C   0  0  0  0  0  0  0  0  0  0  0  0
    5.7538    0.8654   -0.1393 C   0  0  0  0  0  0  0  0  0  0  0  0
    6.4681   -0.3020   -0.0694 C   0  0  0  0  0  0  0  0  0  0  0  0
    7.8659   -0.3201   -0.0841 O   0  0  0  0  0  0  0  0  0  0  0  0
    5.7405   -1.4603    0.0162 C   0  0  0  0  0  0  0  0  0  0  0  0
    4.3393   -1.4453    0.0311 C   0  0  0  0  0  0  0  0  0  0  0  0
    3.4994   -2.9723    0.1426 Cl  0  0  0  0  0  0  0  0  0  0  0  0
    3.6278   -0.2734   -0.0391 C   0  0  0  0  0  0  0  0  0  0  0  0
   -1.2058   -1.6098    1.0408 H   0  0  0  0  0  0  0  0  0  0  0  0
   -1.1976   -1.8155   -0.7195 H   0  0  0  0  0  0  0  0  0  0  0  0
   -2.5097   -0.0261   -2.1309 H   0  0  0  0  0  0  0  0  0  0  0  0
   -2.1511    1.4391   -1.0999 H   0  0  0  0  0  0  0  0  0  0  0  0
   -4.3741    1.9528   -1.5968 H   0  0  0  0  0  0  0  0  0  0  0  0
   -4.7553    0.1724   -1.8268 H   0  0  0  0  0  0  0  0  0  0  0  0
   -3.8098    2.4389    0.9721 H   0  0  0  0  0  0  0  0  0  0  0  0
   -4.4522    1.1924    2.1287 H   0  0  0  0  0  0  0  0  0  0  0  0
   -1.8054    1.3849    1.0836 H   0  0  0  0  0  0  0  0  0  0  0  0
   -2.4860    0.0892    2.1827 H   0  0  0  0  0  0  0  0  0  0  0  0
   -5.8427   -1.0009   -0.2224 H   0  0  0  0  0  0  0  0  0  0  0  0
   -5.2626   -0.7156    1.4891 H   0  0  0  0  0  0  0  0  0  0  0  0
   -3.7694   -1.7890   -0.8786 H   0  0  0  0  0  0  0  0  0  0  0  0
   -3.4894   -2.1023    0.8608 H   0  0  0  0  0  0  0  0  0  0  0  0
    1.3761    2.0210   -0.1666 H   0  0  0  0  0  0  0  0  0  0  0  0
    3.8201    2.9697   -0.2578 H   0  0  0  0  0  0  0  0  0  0  0  0
    6.3107    1.7927   -0.2075 H   0  0  0  0  0  0  0  0  0  0  0  0
    8.3462   -0.3454   -0.9970 H   0  0  0  0  0  0  0  0  0  0  0  0
    6.2813   -2.4058    0.0732 H   0  0  0  0  0  0  0  0  0  0  0  0
  1  2  2  0
  2  3  1  0
  3  4  1  0
  4  5  1  0
  5  6  1  0
  6  7  1  0
  7  8  1  0
  8  9  1  0
  9 10  1  0
  8 11  1  0
 11 12  1  0
  2 13  1  0
 13 14  2  0
 14 15  1  0
 15 16  1  0
 16 17  2  0
 17 18  1  0
 18 19  1  0
 18 20  2  0
 20 21  1  0
 21 22  1  0
 21 23  2  0
 10  5  1  0
 23 13  1  0
 12  5  1  0
 23 16  1  0
  4 24  1  0
  4 25  1  0
  6 26  1  0
  6 27  1  0
  7 28  1  0
  7 29  1  0
  9 30  1  0
  9 31  1  0
 10 32  1  0
 10 33  1  0
 11 34  1  0
 11 35  1  0
 12 36  1  0
 12 37  1  0
 14 38  1  0
 15 39  1  0
 17 40  1  0
 19 41  1  0
 20 42  1  0
M  END
$$$$
