@<TRIPOS>MOLECULE
*****
 42 45 0 0 0
SMALL
GASTEIGER

@<TRIPOS>ATOM
      1 O           1.1302   -2.0464    0.1078 O.2     1  UNL1       -0.2449
      2 C           1.1600   -0.8121    0.0250 C.2     1  UNL1        0.3413
      3 O          -0.1398   -0.2315    0.0010 O.3     1  UNL1       -0.4605
      4 C          -1.2951   -1.0792    0.0708 C.3     1  UNL1        0.0985
      5 C          -2.5552   -0.3121    0.0340 C.3     1  UNL1        0.0084
      6 C          -2.7650    0.5166   -1.1877 C.3     1  UNL1       -0.0313
      7 C          -4.2393    0.9421   -1.1935 C.3     1  UNL1       -0.0005
      8 N          -4.8070    0.8158    0.1348 N.3     1  UNL1       -0.3023
      9 C          -3.9456    1.3487    1.1551 C.3     1  UNL1       -0.0005
     10 C          -2.6119    0.6397    1.2357 C.3     1  UNL1       -0.0313
     11 C          -5.0166   -0.6012    0.4191 C.3     1  UNL1       -0.0005
     12 C          -3.7092   -1.3020    0.1326 C.3     1  UNL1       -0.0313
     13 C           2.3100    0.0616   -0.0464 C.ar    1  UNL1        0.0853
     14 C           2.2815    1.4609   -0.1395 C.ar    1  UNL1        0.0168
     15 N           3.5126    1.9532   -0.1864 N.ar    1  UNL1       -0.3597
     16 C           4.3721    0.9110   -0.1266 C.ar    1  UNL1        0.0522
     17 C           5.7538    0.8654   -0.1393 C.ar    1  UNL1        0.0038
     18 C           6.4681   -0.3020   -0.0694 C.ar    1  UNL1        0.1202
     19 O           7.8659   -0.3201   -0.0841 O.3     1  UNL1       -0.5067
     20 C           5.7405   -1.4603    0.0162 C.ar    1  UNL1       -0.0011
     21 C           4.3393   -1.4453    0.0311 C.ar    1  UNL1        0.0543
     22 CL          3.4994   -2.9723    0.1426 Cl      1  UNL1       -0.0827
     23 C           3.6278   -0.2734   -0.0391 C.ar    1  UNL1        0.0322
     24 H          -1.2058   -1.6098    1.0408 H       1  UNL1        0.0703
     25 H          -1.1976   -1.8155   -0.7195 H       1  UNL1        0.0703
     26 H          -2.5097   -0.0261   -2.1309 H       1  UNL1        0.0284
     27 H          -2.1511    1.4391   -1.0999 H       1  UNL1        0.0284
     28 H          -4.3741    1.9528   -1.5968 H       1  UNL1        0.0427
     29 H          -4.7553    0.1724   -1.8268 H       1  UNL1        0.0427
     30 H          -3.8098    2.4389    0.9721 H       1  UNL1        0.0427
     31 H          -4.4522    1.1924    2.1287 H       1  UNL1        0.0427
     32 H          -1.8054    1.3849    1.0836 H       1  UNL1        0.0284
     33 H          -2.4860    0.0892    2.1827 H       1  UNL1        0.0284
     34 H          -5.8427   -1.0009   -0.2224 H       1  UNL1        0.0427
     35 H          -5.2626   -0.7156    1.4891 H       1  UNL1        0.0427
     36 H          -3.7694   -1.7890   -0.8786 H       1  UNL1        0.0284
     37 H          -3.4894   -2.1023    0.8608 H       1  UNL1        0.0284
     38 H           1.3761    2.0210   -0.1666 H       1  UNL1        0.0815
     39 H           3.8201    2.9697   -0.2578 H       1  UNL1        0.1654
     40 H           6.3107    1.7927   -0.2075 H       1  UNL1        0.0675
     41 H           8.3462   -0.3454   -0.9970 H       1  UNL1        0.2921
     42 H           6.2813   -2.4058    0.0732 H       1  UNL1        0.0669
@<TRIPOS>BOND
     1     1     2    2
     2     2     3    1
     3     3     4    1
     4     4     5    1
     5     5     6    1
     6     6     7    1
     7     7     8    1
     8     8     9    1
     9     9    10    1
    10     8    11    1
    11    11    12    1
    12     2    13    1
    13    13    14   ar
    14    14    15   ar
    15    15    16   ar
    16    16    17   ar
    17    17    18   ar
    18    18    19    1
    19    18    20   ar
    20    20    21   ar
    21    21    22    1
    22    21    23   ar
    23    10     5    1
    24    23    13   ar
    25    12     5    1
    26    23    16   ar
    27     4    24    1
    28     4    25    1
    29     6    26    1
    30     6    27    1
    31     7    28    1
    32     7    29    1
    33     9    30    1
    34     9    31    1
    35    10    32    1
    36    10    33    1
    37    11    34    1
    38    11    35    1
    39    12    36    1
    40    12    37    1
    41    14    38    1
    42    15    39    1
    43    17    40    1
    44    19    41    1
    45    20    42    1
