
     RDKit          3D

 40 42  0  0  0  0  0  0  0  0999 V2000
   -0.5947   -3.2484   -3.0125 N   0  0  0  0  0  0  0  0  0  0  0  0
    0.0417   -2.7534   -2.2004 C   0  0  0  0  0  0  0  0  0  0  0  0
    0.8555   -2.0902   -1.1376 C   0  0  1  0  0  0  0  0  0  0  0  0
    0.1288   -1.8388    0.0636 N   0  0  0  0  0  0  0  0  0  0  0  0
   -1.0395   -0.9718    0.0894 C   0  0  0  0  0  0  0  0  0  0  0  0
   -1.2989   -0.4956   -1.0519 O   0  0  0  0  0  0  0  0  0  0  0  0
   -1.7941   -0.7086    1.3057 C   0  0  1  0  0  0  0  0  0  0  0  0
   -1.1588   -1.4382    2.4093 N   0  0  0  0  0  4  0  0  0  0  0  0
   -2.1158    0.6767    1.6681 C   0  0  0  0  0  0  0  0  0  0  0  0
   -3.0003    1.3314    0.6603 C   0  0  0  0  0  0  0  0  0  0  0  0
   -3.4588    2.5978    0.6536 C   0  0  0  0  0  0  0  0  0  0  0  0
   -4.2509    3.0040   -0.3465 C   0  0  0  0  0  0  0  0  0  0  0  0
   -4.5786    2.1432   -1.3313 C   0  0  0  0  0  0  0  0  0  0  0  0
   -3.6825    0.6270   -0.7858 S   0  0  0  0  0  0  0  0  0  0  0  0
    2.2336   -2.6964   -0.9775 C   0  0  0  0  0  0  0  0  0  0  0  0
    2.0327   -1.3510   -1.5987 C   0  0  2  0  0  0  0  0  0  0  0  0
    2.6493   -0.2171   -0.9417 C   0  0  0  0  0  0  0  0  0  0  0  0
    2.7111   -0.1159    0.4305 C   0  0  0  0  0  0  0  0  0  0  0  0
    3.2970    0.9799    1.0789 C   0  0  0  0  0  0  0  0  0  0  0  0
    3.8276    1.9876    0.3023 C   0  0  0  0  0  0  0  0  0  0  0  0
    3.7886    1.9290   -1.0680 C   0  0  0  0  0  0  0  0  0  0  0  0
    3.2026    0.8322   -1.6712 C   0  0  0  0  0  0  0  0  0  0  0  0
    0.3978   -2.2650    0.9670 H   0  0  0  0  0  0  0  0  0  0  0  0
   -2.7810   -1.2779    1.1761 H   0  0  0  0  0  0  0  0  0  0  0  0
   -0.1744   -1.1836    2.5487 H   0  0  0  0  0  0  0  0  0  0  0  0
   -1.2086   -2.4473    2.1546 H   0  0  0  0  0  0  0  0  0  0  0  0
   -1.7231   -1.3307    3.2887 H   0  0  0  0  0  0  0  0  0  0  0  0
   -1.2410    1.3345    1.8484 H   0  0  0  0  0  0  0  0  0  0  0  0
   -2.7053    0.6617    2.6124 H   0  0  0  0  0  0  0  0  0  0  0  0
   -3.1677    3.2863    1.4869 H   0  0  0  0  0  0  0  0  0  0  0  0
   -4.6695    4.0561   -0.4106 H   0  0  0  0  0  0  0  0  0  0  0  0
   -5.1747    2.1813   -2.2314 H   0  0  0  0  0  0  0  0  0  0  0  0
    2.5375   -3.5678   -1.5786 H   0  0  0  0  0  0  0  0  0  0  0  0
    2.6493   -2.7496    0.0731 H   0  0  0  0  0  0  0  0  0  0  0  0
    2.1777   -1.3582   -2.7215 H   0  0  0  0  0  0  0  0  0  0  0  0
    2.3124   -0.8783    1.0921 H   0  0  0  0  0  0  0  0  0  0  0  0
    3.3381    1.0473    2.1580 H   0  0  0  0  0  0  0  0  0  0  0  0
    4.2799    2.8345    0.8182 H   0  0  0  0  0  0  0  0  0  0  0  0
    4.2096    2.7320   -1.6931 H   0  0  0  0  0  0  0  0  0  0  0  0
    3.1472    0.7414   -2.7409 H   0  0  0  0  0  0  0  0  0  0  0  0
  1  2  3  0
  3  2  1  6
  3  4  1  0
  4  5  1  0
  5  6  2  0
  5  7  1  0
  7  8  1  0
  7  9  1  0
  9 10  1  0
 10 11  2  0
 11 12  1  0
 12 13  2  0
 13 14  1  0
  3 15  1  0
 15 16  1  0
 16 17  1  0
 17 18  2  0
 18 19  1  0
 19 20  2  0
 20 21  1  0
 21 22  2  0
 16  3  1  0
 22 17  1  0
 14 10  1  0
  4 23  1  0
  7 24  1  6
  8 25  1  0
  8 26  1  0
  8 27  1  0
  9 28  1  0
  9 29  1  0
 11 30  1  0
 12 31  1  0
 13 32  1  0
 15 33  1  0
 15 34  1  0
 16 35  1  6
 18 36  1  0
 19 37  1  0
 20 38  1  0
 21 39  1  0
 22 40  1  0
M  CHG  1   8   1
M  END
$$$$
