@<TRIPOS>MOLECULE
*****
 40 42 0 0 0
SMALL
GASTEIGER

@<TRIPOS>ATOM
      1 N          -0.5947   -3.2484   -3.0125 N.1     1  UNL1       -0.1943
      2 C           0.0417   -2.7534   -2.2004 C.1     1  UNL1        0.0890
      3 C           0.8555   -2.0902   -1.1376 C.3     1  UNL1        0.1289
      4 N           0.1288   -1.8388    0.0636 N.am    1  UNL1       -0.2922
      5 C          -1.0395   -0.9718    0.0894 C.2     1  UNL1        0.2627
      6 O          -1.2989   -0.4956   -1.0519 O.2     1  UNL1       -0.2696
      7 C          -1.7941   -0.7086    1.3057 C.3     1  UNL1        0.0577
      8 N          -1.1588   -1.4382    2.4093 N.4     1  UNL1        0.2276
      9 C          -2.1158    0.6767    1.6681 C.3     1  UNL1        0.0303
     10 C          -3.0003    1.3314    0.6603 C.ar    1  UNL1       -0.0044
     11 C          -3.4588    2.5978    0.6536 C.ar    1  UNL1       -0.0513
     12 C          -4.2509    3.0040   -0.3465 C.ar    1  UNL1       -0.0545
     13 C          -4.5786    2.1432   -1.3313 C.ar    1  UNL1       -0.0241
     14 S          -3.6825    0.6270   -0.7858 S.2     1  UNL1       -0.1014
     15 C           2.2336   -2.6964   -0.9775 C.3     1  UNL1       -0.0079
     16 C           2.0327   -1.3510   -1.5987 C.3     1  UNL1        0.0216
     17 C           2.6493   -0.2171   -0.9417 C.ar    1  UNL1       -0.0411
     18 C           2.7111   -0.1159    0.4305 C.ar    1  UNL1       -0.0582
     19 C           3.2970    0.9799    1.0789 C.ar    1  UNL1       -0.0615
     20 C           3.8276    1.9876    0.3023 C.ar    1  UNL1       -0.0617
     21 C           3.7886    1.9290   -1.0680 C.ar    1  UNL1       -0.0615
     22 C           3.2026    0.8322   -1.6712 C.ar    1  UNL1       -0.0582
     23 H           0.3978   -2.2650    0.9670 H       1  UNL1        0.1504
     24 H          -2.7810   -1.2779    1.1761 H       1  UNL1        0.0952
     25 H          -0.1744   -1.1836    2.5487 H       1  UNL1        0.2002
     26 H          -1.2086   -2.4473    2.1546 H       1  UNL1        0.2002
     27 H          -1.7231   -1.3307    3.2887 H       1  UNL1        0.2002
     28 H          -1.2410    1.3345    1.8484 H       1  UNL1        0.0378
     29 H          -2.7053    0.6617    2.6124 H       1  UNL1        0.0378
     30 H          -3.1677    3.2863    1.4869 H       1  UNL1        0.0626
     31 H          -4.6695    4.0561   -0.4106 H       1  UNL1        0.0623
     32 H          -5.1747    2.1813   -2.2314 H       1  UNL1        0.0693
     33 H           2.5375   -3.5678   -1.5786 H       1  UNL1        0.0303
     34 H           2.6493   -2.7496    0.0731 H       1  UNL1        0.0303
     35 H           2.1777   -1.3582   -2.7215 H       1  UNL1        0.0381
     36 H           2.3124   -0.8783    1.0921 H       1  UNL1        0.0620
     37 H           3.3381    1.0473    2.1580 H       1  UNL1        0.0618
     38 H           4.2799    2.8345    0.8182 H       1  UNL1        0.0618
     39 H           4.2096    2.7320   -1.6931 H       1  UNL1        0.0618
     40 H           3.1472    0.7414   -2.7409 H       1  UNL1        0.0620
@<TRIPOS>UNITY_ATOM_ATTR
8 1
charge 1
@<TRIPOS>BOND
     1     1     2    3
     2     3     2    1
     3     3     4    1
     4     4     5   am
     5     5     6    2
     6     5     7    1
     7     7     8    1
     8     7     9    1
     9     9    10    1
    10    10    11   ar
    11    11    12   ar
    12    12    13   ar
    13    13    14   ar
    14     3    15    1
    15    15    16    1
    16    16    17    1
    17    17    18   ar
    18    18    19   ar
    19    19    20   ar
    20    20    21   ar
    21    21    22   ar
    22    16     3    1
    23    22    17   ar
    24    14    10   ar
    25     4    23    1
    26     7    24    1
    27     8    25    1
    28     8    26    1
    29     8    27    1
    30     9    28    1
    31     9    29    1
    32    11    30    1
    33    12    31    1
    34    13    32    1
    35    15    33    1
    36    15    34    1
    37    16    35    1
    38    18    36    1
    39    19    37    1
    40    20    38    1
    41    21    39    1
    42    22    40    1
