
     RDKit          3D

 55 59  0  0  0  0  0  0  0  0999 V2000
    4.3066   -3.3716   -1.1343 C   0  0  0  0  0  0  0  0  0  0  0  0
    5.0889   -2.2659   -0.5283 C   0  0  0  0  0  0  0  0  0  0  0  0
    6.4015   -2.2606   -0.2549 N   0  0  0  0  0  0  0  0  0  0  0  0
    6.7291   -1.0804    0.2871 N   0  0  0  0  0  0  0  0  0  0  0  0
    5.6298   -0.3367    0.3587 C   0  0  0  0  0  0  0  0  0  0  0  0
    5.5309    1.0449    0.8935 C   0  0  0  0  0  0  0  0  0  0  0  0
    4.6180   -1.0682   -0.1444 N   0  0  0  0  0  0  0  0  0  0  0  0
    3.2858   -0.6011   -0.2320 C   0  0  0  0  0  0  0  0  0  0  0  0
    2.5795   -0.2335    0.8934 C   0  0  0  0  0  0  0  0  0  0  0  0
    1.2696    0.2217    0.7671 C   0  0  0  0  0  0  0  0  0  0  0  0
    0.7285    0.2868   -0.4882 C   0  0  0  0  0  0  0  0  0  0  0  0
   -0.5466    0.7221   -0.6877 O   0  0  0  0  0  0  0  0  0  0  0  0
   -1.4833    1.1511    0.2419 C   0  0  1  0  0  0  0  0  0  0  0  0
   -1.8711    2.5942   -0.0086 C   0  0  0  0  0  0  0  0  0  0  0  0
   -1.0773    3.6367   -0.3852 C   0  0  0  0  0  0  0  0  0  0  0  0
   -1.6082    4.9165   -0.5754 C   0  0  0  0  0  0  0  0  0  0  0  0
   -0.5784    6.2478   -1.0593 Cl  0  0  0  0  0  0  0  0  0  0  0  0
   -2.9645    5.0796   -0.3666 C   0  0  0  0  0  0  0  0  0  0  0  0
   -3.7626    4.0033    0.0185 C   0  0  0  0  0  0  0  0  0  0  0  0
   -5.4667    4.3262    0.2544 Cl  0  0  0  0  0  0  0  0  0  0  0  0
   -3.2198    2.7494    0.2007 C   0  0  0  0  0  0  0  0  0  0  0  0
   -3.7837    1.4397    0.5974 C   0  0  0  0  0  0  0  0  0  0  0  0
   -2.8010    0.4725   -0.0268 C   0  0  2  0  0  0  0  0  0  0  0  0
   -2.8319   -0.8191    0.5532 N   0  0  0  0  0  0  0  0  0  0  0  0
   -1.8618   -1.6774   -0.0319 C   0  0  0  0  0  0  0  0  0  0  0  0
   -2.5314   -3.0486   -0.2171 C   0  0  0  0  0  0  0  0  0  0  0  0
   -3.6721   -2.9512    0.7616 C   0  0  1  0  0  0  0  0  0  0  0  0
   -3.1276   -3.1092    2.0451 O   0  0  0  0  0  0  0  0  0  0  0  0
   -4.0904   -1.4855    0.5796 C   0  0  0  0  0  0  0  0  0  0  0  0
    1.4442   -0.0860   -1.6322 C   0  0  0  0  0  0  0  0  0  0  0  0
    0.8533   -0.0009   -2.8645 F   0  0  0  0  0  0  0  0  0  0  0  0
    2.7283   -0.5313   -1.4988 C   0  0  0  0  0  0  0  0  0  0  0  0
    4.4496   -3.4415   -2.2374 H   0  0  0  0  0  0  0  0  0  0  0  0
    4.6395   -4.3158   -0.6304 H   0  0  0  0  0  0  0  0  0  0  0  0
    3.2287   -3.2693   -0.8856 H   0  0  0  0  0  0  0  0  0  0  0  0
    5.4269    0.9804    1.9978 H   0  0  0  0  0  0  0  0  0  0  0  0
    4.6361    1.5708    0.4864 H   0  0  0  0  0  0  0  0  0  0  0  0
    6.4666    1.5705    0.6478 H   0  0  0  0  0  0  0  0  0  0  0  0
    3.0091   -0.2855    1.8867 H   0  0  0  0  0  0  0  0  0  0  0  0
    0.7391    0.5031    1.6631 H   0  0  0  0  0  0  0  0  0  0  0  0
   -1.1737    1.0558    1.3025 H   0  0  0  0  0  0  0  0  0  0  0  0
   -0.0193    3.5378   -0.5545 H   0  0  0  0  0  0  0  0  0  0  0  0
   -3.3643    6.0672   -0.5152 H   0  0  0  0  0  0  0  0  0  0  0  0
   -3.7541    1.3923    1.7149 H   0  0  0  0  0  0  0  0  0  0  0  0
   -4.8053    1.2714    0.2169 H   0  0  0  0  0  0  0  0  0  0  0  0
   -3.0165    0.4750   -1.1155 H   0  0  0  0  0  0  0  0  0  0  0  0
   -1.5726   -1.3360   -1.0666 H   0  0  0  0  0  0  0  0  0  0  0  0
   -0.9630   -1.7855    0.5753 H   0  0  0  0  0  0  0  0  0  0  0  0
   -1.8104   -3.8422    0.0175 H   0  0  0  0  0  0  0  0  0  0  0  0
   -2.9197   -3.1382   -1.2705 H   0  0  0  0  0  0  0  0  0  0  0  0
   -4.4967   -3.6404    0.5582 H   0  0  0  0  0  0  0  0  0  0  0  0
   -2.5626   -3.9109    2.1044 H   0  0  0  0  0  0  0  0  0  0  0  0
   -4.6392   -1.2208    1.5019 H   0  0  0  0  0  0  0  0  0  0  0  0
   -4.6978   -1.3824   -0.3218 H   0  0  0  0  0  0  0  0  0  0  0  0
    3.2839   -0.8212   -2.3915 H   0  0  0  0  0  0  0  0  0  0  0  0
  1  2  1  0
  2  3  2  0
  3  4  1  0
  4  5  2  0
  5  6  1  0
  5  7  1  0
  7  8  1  0
  8  9  2  0
  9 10  1  0
 10 11  2  0
 11 12  1  0
 12 13  1  0
 13 14  1  0
 14 15  2  0
 15 16  1  0
 16 17  1  0
 16 18  2  0
 18 19  1  0
 19 20  1  0
 19 21  2  0
 21 22  1  0
 22 23  1  0
 23 24  1  0
 24 25  1  0
 25 26  1  0
 26 27  1  0
 27 28  1  0
 27 29  1  0
 11 30  1  0
 30 31  1  0
 30 32  2  0
  7  2  1  0
 32  8  1  0
 23 13  1  0
 29 24  1  0
 21 14  1  0
  1 33  1  0
  1 34  1  0
  1 35  1  0
  6 36  1  0
  6 37  1  0
  6 38  1  0
  9 39  1  0
 10 40  1  0
 13 41  1  1
 15 42  1  0
 18 43  1  0
 22 44  1  0
 22 45  1  0
 23 46  1  6
 25 47  1  0
 25 48  1  0
 26 49  1  0
 26 50  1  0
 27 51  1  6
 28 52  1  0
 29 53  1  0
 29 54  1  0
 32 55  1  0
M  END
$$$$
