@<TRIPOS>MOLECULE
*****
 55 59 0 0 0
SMALL
GASTEIGER

@<TRIPOS>ATOM
      1 C           4.3066   -3.3716   -1.1343 C.3     1  UNL1       -0.0041
      2 C           5.0889   -2.2659   -0.5283 C.ar    1  UNL1        0.1348
      3 N           6.4015   -2.2606   -0.2549 N.ar    1  UNL1       -0.1343
      4 N           6.7291   -1.0804    0.2871 N.ar    1  UNL1       -0.1343
      5 C           5.6298   -0.3367    0.3587 C.ar    1  UNL1        0.1348
      6 C           5.5309    1.0449    0.8935 C.3     1  UNL1       -0.0041
      7 N           4.6180   -1.0682   -0.1444 N.ar    1  UNL1       -0.2833
      8 C           3.2858   -0.6011   -0.2320 C.ar    1  UNL1        0.0524
      9 C           2.5795   -0.2335    0.8934 C.ar    1  UNL1       -0.0341
     10 C           1.2696    0.2217    0.7671 C.ar    1  UNL1       -0.0151
     11 C           0.7285    0.2868   -0.4882 C.ar    1  UNL1        0.1566
     12 O          -0.5466    0.7221   -0.6877 O.3     1  UNL1       -0.4798
     13 C          -1.4833    1.1511    0.2419 C.3     1  UNL1        0.1413
     14 C          -1.8711    2.5942   -0.0086 C.ar    1  UNL1        0.0001
     15 C          -1.0773    3.6367   -0.3852 C.ar    1  UNL1       -0.0363
     16 C          -1.6082    4.9165   -0.5754 C.ar    1  UNL1        0.0427
     17 CL         -0.5784    6.2478   -1.0593 Cl      1  UNL1       -0.0835
     18 C          -2.9645    5.0796   -0.3666 C.ar    1  UNL1       -0.0247
     19 C          -3.7626    4.0033    0.0185 C.ar    1  UNL1        0.0459
     20 CL         -5.4667    4.3262    0.2544 Cl      1  UNL1       -0.0832
     21 C          -3.2198    2.7494    0.2007 C.ar    1  UNL1       -0.0207
     22 C          -3.7837    1.4397    0.5974 C.3     1  UNL1       -0.0065
     23 C          -2.8010    0.4725   -0.0268 C.3     1  UNL1        0.0557
     24 N          -2.8319   -0.8191    0.5532 N.3     1  UNL1       -0.2927
     25 C          -1.8618   -1.6774   -0.0319 C.3     1  UNL1        0.0018
     26 C          -2.5314   -3.0486   -0.2171 C.3     1  UNL1       -0.0128
     27 C          -3.6721   -2.9512    0.7616 C.3     1  UNL1        0.0691
     28 O          -3.1276   -3.1092    2.0451 O.3     1  UNL1       -0.3905
     29 C          -4.0904   -1.4855    0.5796 C.3     1  UNL1        0.0254
     30 C           1.4442   -0.0860   -1.6322 C.ar    1  UNL1        0.1668
     31 F           0.8533   -0.0009   -2.8645 F       1  UNL1       -0.2016
     32 C           2.7283   -0.5313   -1.4988 C.ar    1  UNL1        0.0012
     33 H           4.4496   -3.4415   -2.2374 H       1  UNL1        0.0308
     34 H           4.6395   -4.3158   -0.6304 H       1  UNL1        0.0308
     35 H           3.2287   -3.2693   -0.8856 H       1  UNL1        0.0308
     36 H           5.4269    0.9804    1.9978 H       1  UNL1        0.0308
     37 H           4.6361    1.5708    0.4864 H       1  UNL1        0.0308
     38 H           6.4666    1.5705    0.6478 H       1  UNL1        0.0308
     39 H           3.0091   -0.2855    1.8867 H       1  UNL1        0.0639
     40 H           0.7391    0.5031    1.6631 H       1  UNL1        0.0656
     41 H          -1.1737    1.0558    1.3025 H       1  UNL1        0.0800
     42 H          -0.0193    3.5378   -0.5545 H       1  UNL1        0.0636
     43 H          -3.3643    6.0672   -0.5152 H       1  UNL1        0.0647
     44 H          -3.7541    1.3923    1.7149 H       1  UNL1        0.0330
     45 H          -4.8053    1.2714    0.2169 H       1  UNL1        0.0330
     46 H          -3.0165    0.4750   -1.1155 H       1  UNL1        0.0506
     47 H          -1.5726   -1.3360   -1.0666 H       1  UNL1        0.0427
     48 H          -0.9630   -1.7855    0.5753 H       1  UNL1        0.0427
     49 H          -1.8104   -3.8422    0.0175 H       1  UNL1        0.0303
     50 H          -2.9197   -3.1382   -1.2705 H       1  UNL1        0.0303
     51 H          -4.4967   -3.6404    0.5582 H       1  UNL1        0.0606
     52 H          -2.5626   -3.9109    2.1044 H       1  UNL1        0.2098
     53 H          -4.6392   -1.2208    1.5019 H       1  UNL1        0.0452
     54 H          -4.6978   -1.3824   -0.3218 H       1  UNL1        0.0452
     55 H           3.2839   -0.8212   -2.3915 H       1  UNL1        0.0668
@<TRIPOS>BOND
     1     1     2    1
     2     2     3   ar
     3     3     4   ar
     4     4     5   ar
     5     5     6    1
     6     5     7   ar
     7     7     8    1
     8     8     9   ar
     9     9    10   ar
    10    10    11   ar
    11    11    12    1
    12    12    13    1
    13    13    14    1
    14    14    15   ar
    15    15    16   ar
    16    16    17    1
    17    16    18   ar
    18    18    19   ar
    19    19    20    1
    20    19    21   ar
    21    21    22    1
    22    22    23    1
    23    23    24    1
    24    24    25    1
    25    25    26    1
    26    26    27    1
    27    27    28    1
    28    27    29    1
    29    11    30   ar
    30    30    31    1
    31    30    32   ar
    32     7     2   ar
    33    32     8   ar
    34    23    13    1
    35    29    24    1
    36    21    14   ar
    37     1    33    1
    38     1    34    1
    39     1    35    1
    40     6    36    1
    41     6    37    1
    42     6    38    1
    43     9    39    1
    44    10    40    1
    45    13    41    1
    46    15    42    1
    47    18    43    1
    48    22    44    1
    49    22    45    1
    50    23    46    1
    51    25    47    1
    52    25    48    1
    53    26    49    1
    54    26    50    1
    55    27    51    1
    56    28    52    1
    57    29    53    1
    58    29    54    1
    59    32    55    1
