
     RDKit          3D

 47 47  0  0  0  0  0  0  0  0999 V2000
   -0.5096   -0.6018   -0.1838 C   0  0  2  0  0  0  0  0  0  0  0  0
    0.2806   -1.0522    1.0152 C   0  0  0  0  0  0  0  0  0  0  0  0
    1.7425   -0.9418    0.7937 C   0  0  0  0  0  0  0  0  0  0  0  0
    2.5851   -1.9387    0.2947 C   0  0  0  0  0  0  0  0  0  0  0  0
    3.9274   -1.7129    0.1283 C   0  0  0  0  0  0  0  0  0  0  0  0
    4.5119   -0.5020    0.4417 C   0  0  0  0  0  0  0  0  0  0  0  0
    5.9522   -0.2129    0.2795 C   0  0  0  0  0  0  0  0  0  0  0  0
    6.8233   -0.7054    1.9583 Se  0  0  0  0  0  4  0  0  0  0  0  0
    6.9970    0.7096    3.0875 O   0  0  0  0  0  0  0  0  0  0  0  0
    8.3068   -1.3427    1.5707 O   0  0  0  0  0  0  0  0  0  0  0  0
    3.6692    0.4777    0.9350 C   0  0  0  0  0  0  0  0  0  0  0  0
    2.3269    0.2847    1.1126 C   0  0  0  0  0  0  0  0  0  0  0  0
   -1.9442   -0.7201    0.0481 N   0  0  0  0  0  0  0  0  0  0  0  0
   -2.7662    0.4495    0.0726 C   0  0  0  0  0  0  0  0  0  0  0  0
   -2.2420    1.5917   -0.1085 O   0  0  0  0  0  0  0  0  0  0  0  0
   -4.1209    0.3375    0.2916 O   0  0  0  0  0  0  0  0  0  0  0  0
   -5.0295    1.4182    0.3372 C   0  0  0  0  0  0  0  0  0  0  0  0
   -4.6803    2.4013    1.4313 C   0  0  0  0  0  0  0  0  0  0  0  0
   -6.4011    0.8578    0.6519 C   0  0  0  0  0  0  0  0  0  0  0  0
   -5.1335    2.1071   -1.0124 C   0  0  0  0  0  0  0  0  0  0  0  0
   -0.1094   -1.2767   -1.4372 C   0  0  0  0  0  0  0  0  0  0  0  0
   -1.1086   -1.8116   -1.9876 O   0  0  0  0  0  0  0  0  0  0  0  0
    1.1408   -1.3508   -1.9821 O   0  0  0  0  0  0  0  0  0  0  0  0
    1.4418   -2.0192   -3.1929 C   0  0  0  0  0  0  0  0  0  0  0  0
   -0.3008    0.4931   -0.3123 H   0  0  0  0  0  0  0  0  0  0  0  0
    0.0697   -2.1356    1.2412 H   0  0  0  0  0  0  0  0  0  0  0  0
    0.0111   -0.4666    1.9073 H   0  0  0  0  0  0  0  0  0  0  0  0
    2.1016   -2.8830    0.0600 H   0  0  0  0  0  0  0  0  0  0  0  0
    4.5567   -2.5144   -0.2643 H   0  0  0  0  0  0  0  0  0  0  0  0
    6.0835    0.8895    0.0866 H   0  0  0  0  0  0  0  0  0  0  0  0
    6.3966   -0.7937   -0.5547 H   0  0  0  0  0  0  0  0  0  0  0  0
    7.0152    1.5938    2.6051 H   0  0  0  0  0  0  0  0  0  0  0  0
    4.1017    1.4356    1.1885 H   0  0  0  0  0  0  0  0  0  0  0  0
    1.7345    1.1089    1.5064 H   0  0  0  0  0  0  0  0  0  0  0  0
   -2.4096   -1.6455    0.2011 H   0  0  0  0  0  0  0  0  0  0  0  0
   -4.9829    3.4348    1.1109 H   0  0  0  0  0  0  0  0  0  0  0  0
   -3.5947    2.4323    1.6530 H   0  0  0  0  0  0  0  0  0  0  0  0
   -5.2061    2.1884    2.3720 H   0  0  0  0  0  0  0  0  0  0  0  0
   -6.9698    1.6513    1.1800 H   0  0  0  0  0  0  0  0  0  0  0  0
   -6.9598    0.6671   -0.2855 H   0  0  0  0  0  0  0  0  0  0  0  0
   -6.3515   -0.0531    1.2959 H   0  0  0  0  0  0  0  0  0  0  0  0
   -4.2469    1.9133   -1.6549 H   0  0  0  0  0  0  0  0  0  0  0  0
   -6.0015    1.6893   -1.6014 H   0  0  0  0  0  0  0  0  0  0  0  0
   -5.3674    3.1828   -0.9108 H   0  0  0  0  0  0  0  0  0  0  0  0
    0.9854   -1.5356   -4.0801 H   0  0  0  0  0  0  0  0  0  0  0  0
    2.5379   -2.0016   -3.3443 H   0  0  0  0  0  0  0  0  0  0  0  0
    1.1367   -3.0974   -3.1226 H   0  0  0  0  0  0  0  0  0  0  0  0
  1  2  1  0
  2  3  1  0
  3  4  2  0
  4  5  1  0
  5  6  2  0
  6  7  1  0
  7  8  1  0
  8  9  1  0
  8 10  2  0
  6 11  1  0
 11 12  2  0
  1 13  1  0
 13 14  1  0
 14 15  2  0
 14 16  1  0
 16 17  1  0
 17 18  1  0
 17 19  1  0
 17 20  1  0
  1 21  1  0
 21 22  2  0
 21 23  1  0
 23 24  1  0
 12  3  1  0
  1 25  1  6
  2 26  1  0
  2 27  1  0
  4 28  1  0
  5 29  1  0
  7 30  1  0
  7 31  1  0
  9 32  1  0
 11 33  1  0
 12 34  1  0
 13 35  1  0
 18 36  1  0
 18 37  1  0
 18 38  1  0
 19 39  1  0
 19 40  1  0
 19 41  1  0
 20 42  1  0
 20 43  1  0
 20 44  1  0
 24 45  1  0
 24 46  1  0
 24 47  1  0
M  END
$$$$
