@<TRIPOS>MOLECULE
*****
 47 47 0 0 0
SMALL
GASTEIGER

@<TRIPOS>ATOM
      1 C          -0.5096   -0.6018   -0.1838 C.3     1  UNL1        0.0000
      2 C           0.2806   -1.0522    1.0152 C.3     1  UNL1        0.0000
      3 C           1.7425   -0.9418    0.7937 C.ar    1  UNL1        0.0000
      4 C           2.5851   -1.9387    0.2947 C.ar    1  UNL1        0.0000
      5 C           3.9274   -1.7129    0.1283 C.ar    1  UNL1        0.0000
      6 C           4.5119   -0.5020    0.4417 C.ar    1  UNL1        0.0000
      7 C           5.9522   -0.2129    0.2795 C.3     1  UNL1        0.0000
      8 SE          6.8233   -0.7054    1.9583 Se      1  UNL1        0.0000
      9 O           6.9970    0.7096    3.0875 O.3     1  UNL1        0.0000
     10 O           8.3068   -1.3427    1.5707 O.2     1  UNL1        0.0000
     11 C           3.6692    0.4777    0.9350 C.ar    1  UNL1        0.0000
     12 C           2.3269    0.2847    1.1126 C.ar    1  UNL1        0.0000
     13 N          -1.9442   -0.7201    0.0481 N.am    1  UNL1        0.0000
     14 C          -2.7662    0.4495    0.0726 C.2     1  UNL1        0.0000
     15 O          -2.2420    1.5917   -0.1085 O.2     1  UNL1        0.0000
     16 O          -4.1209    0.3375    0.2916 O.3     1  UNL1        0.0000
     17 C          -5.0295    1.4182    0.3372 C.3     1  UNL1        0.0000
     18 C          -4.6803    2.4013    1.4313 C.3     1  UNL1        0.0000
     19 C          -6.4011    0.8578    0.6519 C.3     1  UNL1        0.0000
     20 C          -5.1335    2.1071   -1.0124 C.3     1  UNL1        0.0000
     21 C          -0.1094   -1.2767   -1.4372 C.2     1  UNL1        0.0000
     22 O          -1.1086   -1.8116   -1.9876 O.2     1  UNL1        0.0000
     23 O           1.1408   -1.3508   -1.9821 O.3     1  UNL1        0.0000
     24 C           1.4418   -2.0192   -3.1929 C.3     1  UNL1        0.0000
     25 H          -0.3008    0.4931   -0.3123 H       1  UNL1        0.0000
     26 H           0.0697   -2.1356    1.2412 H       1  UNL1        0.0000
     27 H           0.0111   -0.4666    1.9073 H       1  UNL1        0.0000
     28 H           2.1016   -2.8830    0.0600 H       1  UNL1        0.0000
     29 H           4.5567   -2.5144   -0.2643 H       1  UNL1        0.0000
     30 H           6.0835    0.8895    0.0866 H       1  UNL1        0.0000
     31 H           6.3966   -0.7937   -0.5547 H       1  UNL1        0.0000
     32 H           7.0152    1.5938    2.6051 H       1  UNL1        0.0000
     33 H           4.1017    1.4356    1.1885 H       1  UNL1        0.0000
     34 H           1.7345    1.1089    1.5064 H       1  UNL1        0.0000
     35 H          -2.4096   -1.6455    0.2011 H       1  UNL1        0.0000
     36 H          -4.9829    3.4348    1.1109 H       1  UNL1        0.0000
     37 H          -3.5947    2.4323    1.6530 H       1  UNL1        0.0000
     38 H          -5.2061    2.1884    2.3720 H       1  UNL1        0.0000
     39 H          -6.9698    1.6513    1.1800 H       1  UNL1        0.0000
     40 H          -6.9598    0.6671   -0.2855 H       1  UNL1        0.0000
     41 H          -6.3515   -0.0531    1.2959 H       1  UNL1        0.0000
     42 H          -4.2469    1.9133   -1.6549 H       1  UNL1        0.0000
     43 H          -6.0015    1.6893   -1.6014 H       1  UNL1        0.0000
     44 H          -5.3674    3.1828   -0.9108 H       1  UNL1        0.0000
     45 H           0.9854   -1.5356   -4.0801 H       1  UNL1        0.0000
     46 H           2.5379   -2.0016   -3.3443 H       1  UNL1        0.0000
     47 H           1.1367   -3.0974   -3.1226 H       1  UNL1        0.0000
@<TRIPOS>BOND
     1     1     2    1
     2     2     3    1
     3     3     4   ar
     4     4     5   ar
     5     5     6   ar
     6     6     7    1
     7     7     8    1
     8     8     9    1
     9     8    10    2
    10     6    11   ar
    11    11    12   ar
    12     1    13    1
    13    13    14   am
    14    14    15    2
    15    14    16    1
    16    16    17    1
    17    17    18    1
    18    17    19    1
    19    17    20    1
    20     1    21    1
    21    21    22    2
    22    21    23    1
    23    23    24    1
    24    12     3   ar
    25     1    25    1
    26     2    26    1
    27     2    27    1
    28     4    28    1
    29     5    29    1
    30     7    30    1
    31     7    31    1
    32     9    32    1
    33    11    33    1
    34    12    34    1
    35    13    35    1
    36    18    36    1
    37    18    37    1
    38    18    38    1
    39    19    39    1
    40    19    40    1
    41    19    41    1
    42    20    42    1
    43    20    43    1
    44    20    44    1
    45    24    45    1
    46    24    46    1
    47    24    47    1
