@<TRIPOS>MOLECULE
*****
 52 51 0 0 0
SMALL
GASTEIGER

@<TRIPOS>ATOM
      1 C          -6.9208   -0.8374    1.2158 C.3     1  UNL1       -0.0440
      2 C          -7.2045   -0.0414   -0.0013 C.2     1  UNL1       -0.0796
      3 C          -8.6041    0.3351   -0.3819 C.3     1  UNL1       -0.0440
      4 C          -6.1898    0.3604   -0.7944 C.2     1  UNL1       -0.0850
      5 C          -4.8001    0.0038   -0.4437 C.3     1  UNL1       -0.0308
      6 C          -3.9145    1.2356   -0.2273 C.3     1  UNL1       -0.0286
      7 C          -2.5531    0.7372    0.1170 C.2     1  UNL1       -0.0762
      8 C          -2.3631   -0.1071    1.3144 C.3     1  UNL1       -0.0438
      9 C          -1.5316    1.0594   -0.6574 C.2     1  UNL1       -0.0847
     10 C          -0.2024    0.5453   -0.2806 C.3     1  UNL1       -0.0308
     11 C           0.7305    1.7090   -0.0377 C.3     1  UNL1       -0.0285
     12 C           2.0513    1.1093    0.3381 C.2     1  UNL1       -0.0741
     13 C           2.1084    0.2422    1.5477 C.3     1  UNL1       -0.0437
     14 C           3.1771    1.2998   -0.3371 C.2     1  UNL1       -0.0591
     15 C           4.4898    0.7021    0.0387 C.3     1  UNL1        0.0775
     16 O           4.9003   -0.0902   -1.0371 O.3     1  UNL1       -0.2823
     17 P           6.3864   -0.8293   -0.7368 P.3     1  UNL1        0.4837
     18 O           6.1809   -2.0432    0.4311 O.3     1  UNL1       -0.3022
     19 O           7.4192    0.1358   -0.2157 O.2     1  UNL1       -0.2269
     20 O           6.8767   -1.5833   -2.1702 O.3     1  UNL1       -0.1862
     21 P           8.5134   -2.0134   -1.9174 P.3     1  UNL1        0.4808
     22 O           9.4113   -0.5692   -2.0394 O.3     1  UNL1       -0.3023
     23 O           8.5869   -2.6033   -0.3269 O.3     1  UNL1       -0.3023
     24 O           8.9603   -3.0456   -2.9112 O.2     1  UNL1       -0.2271
     25 H          -7.9014   -1.1672    1.6400 H       1  UNL1        0.0274
     26 H          -6.3537   -0.2502    1.9926 H       1  UNL1        0.0274
     27 H          -6.3596   -1.7861    0.9995 H       1  UNL1        0.0274
     28 H          -8.6166    0.8023   -1.3660 H       1  UNL1        0.0274
     29 H          -9.0664    1.0432    0.3409 H       1  UNL1        0.0274
     30 H          -9.2494   -0.5891   -0.4006 H       1  UNL1        0.0274
     31 H          -6.3805    0.9346   -1.6744 H       1  UNL1        0.0572
     32 H          -4.7444   -0.6780    0.4298 H       1  UNL1        0.0310
     33 H          -4.3728   -0.5582   -1.3047 H       1  UNL1        0.0310
     34 H          -3.9232    1.8289   -1.1446 H       1  UNL1        0.0313
     35 H          -4.2862    1.7858    0.6603 H       1  UNL1        0.0313
     36 H          -2.0147   -1.1305    1.0330 H       1  UNL1        0.0274
     37 H          -1.5847    0.3191    1.9969 H       1  UNL1        0.0274
     38 H          -3.3000   -0.1610    1.8981 H       1  UNL1        0.0274
     39 H          -1.6017    1.6733   -1.5479 H       1  UNL1        0.0572
     40 H           0.2304   -0.0105   -1.1593 H       1  UNL1        0.0310
     41 H          -0.2303   -0.1839    0.5446 H       1  UNL1        0.0310
     42 H           0.7896    2.2762   -0.9658 H       1  UNL1        0.0313
     43 H           0.3979    2.3783    0.7669 H       1  UNL1        0.0313
     44 H           2.4628   -0.7683    1.2403 H       1  UNL1        0.0274
     45 H           2.8426    0.6497    2.3012 H       1  UNL1        0.0274
     46 H           1.1394    0.1928    2.0614 H       1  UNL1        0.0274
     47 H           3.1466    1.9295   -1.2196 H       1  UNL1        0.0594
     48 H           5.2160    1.5360    0.2371 H       1  UNL1        0.0610
     49 H           4.4383    0.1425    0.9809 H       1  UNL1        0.0610
     50 H           5.7036   -2.8363    0.0811 H       1  UNL1        0.2220
     51 H           8.8499    0.2130   -2.2369 H       1  UNL1        0.2220
     52 H           9.2602   -3.2970   -0.2375 H       1  UNL1        0.2220
@<TRIPOS>BOND
     1     1     2    1
     2     2     3    1
     3     2     4    2
     4     4     5    1
     5     5     6    1
     6     6     7    1
     7     7     8    1
     8     7     9    2
     9     9    10    1
    10    10    11    1
    11    11    12    1
    12    12    13    1
    13    12    14    2
    14    14    15    1
    15    15    16    1
    16    16    17    1
    17    17    18    1
    18    17    19    2
    19    17    20    1
    20    20    21    1
    21    21    22    1
    22    21    23    1
    23    21    24    2
    24     1    25    1
    25     1    26    1
    26     1    27    1
    27     3    28    1
    28     3    29    1
    29     3    30    1
    30     4    31    1
    31     5    32    1
    32     5    33    1
    33     6    34    1
    34     6    35    1
    35     8    36    1
    36     8    37    1
    37     8    38    1
    38     9    39    1
    39    10    40    1
    40    10    41    1
    41    11    42    1
    42    11    43    1
    43    13    44    1
    44    13    45    1
    45    13    46    1
    46    14    47    1
    47    15    48    1
    48    15    49    1
    49    18    50    1
    50    22    51    1
    51    23    52    1
