
     RDKit          3D

 45 47  0  0  0  0  0  0  0  0999 V2000
   -6.1056   -0.7933    2.8376 O   0  0  0  0  0  0  0  0  0  0  0  0
   -5.8849   -0.3855    1.5544 C   0  0  0  0  0  0  0  0  0  0  0  0
   -7.0669   -0.2133    1.2157 O   0  0  0  0  0  0  0  0  0  0  0  0
   -4.5629   -0.2620    0.9659 C   0  0  0  0  0  0  0  0  0  0  0  0
   -4.3819    0.1570   -0.3215 C   0  0  0  0  0  0  0  0  0  0  0  0
   -3.0781    0.2226   -0.7498 C   0  0  0  0  0  0  0  0  0  0  0  0
   -1.9865   -0.0981    0.0169 C   0  0  0  0  0  0  0  0  0  0  0  0
   -0.7095    0.0030   -0.5130 O   0  0  0  0  0  0  0  0  0  0  0  0
   -0.1904   -1.1235   -1.1490 C   0  0  0  0  0  0  0  0  0  0  0  0
    1.0779   -1.0589   -1.6881 C   0  0  0  0  0  0  0  0  0  0  0  0
    1.8995    0.1253   -1.6259 N   0  0  0  0  0  0  0  0  0  0  0  0
    2.6720    0.0874   -0.4538 C   0  0  0  0  0  0  0  0  0  0  0  0
    2.4842   -0.9433    0.2670 O   0  0  0  0  0  0  0  0  0  0  0  0
    3.6329    1.0930   -0.0143 C   0  0  0  0  0  0  0  0  0  0  0  0
    4.2812    0.8447    1.1793 C   0  0  0  0  0  0  0  0  0  0  0  0
    5.2068    1.7518    1.6623 C   0  0  0  0  0  0  0  0  0  0  0  0
    5.4403    2.8796    0.9141 C   0  0  0  0  0  0  0  0  0  0  0  0
    4.7925    3.1368   -0.2873 C   0  0  0  0  0  0  0  0  0  0  0  0
    3.8585    2.2138   -0.7673 C   0  0  0  0  0  0  0  0  0  0  0  0
    5.8885    1.5193    2.8896 N   0  0  0  0  0  4  0  0  0  0  0  0
    6.7927    2.4499    3.3184 O   0  0  0  0  0  1  0  0  0  0  0  0
    5.6478    0.4858    3.5359 O   0  0  0  0  0  0  0  0  0  0  0  0
    1.6809   -2.1334   -2.3425 C   0  0  0  0  0  0  0  0  0  0  0  0
    0.9918   -3.3207   -2.4646 C   0  0  0  0  0  0  0  0  0  0  0  0
   -0.2742   -3.3556   -1.9158 C   0  0  0  0  0  0  0  0  0  0  0  0
   -0.8889   -2.3080   -1.2659 C   0  0  0  0  0  0  0  0  0  0  0  0
   -2.1974   -0.5171    1.3098 C   0  0  0  0  0  0  0  0  0  0  0  0
   -3.4917   -0.5877    1.7515 C   0  0  0  0  0  0  0  0  0  0  0  0
   -5.4390    0.5228   -1.2390 C   0  0  0  0  0  0  0  0  0  0  0  0
   -5.1602    0.9377   -2.5167 O   0  0  0  0  0  0  0  0  0  0  0  0
   -6.6790    0.5574   -1.1439 O   0  0  0  0  0  0  0  0  0  0  0  0
   -6.7092   -0.4179    3.5416 H   0  0  0  0  0  0  0  0  0  0  0  0
   -2.8769    0.5546   -1.7802 H   0  0  0  0  0  0  0  0  0  0  0  0
    2.0278    0.9676   -2.2520 H   0  0  0  0  0  0  0  0  0  0  0  0
    4.1032   -0.0431    1.7768 H   0  0  0  0  0  0  0  0  0  0  0  0
    6.1780    3.5741    1.3265 H   0  0  0  0  0  0  0  0  0  0  0  0
    5.0343    4.0385   -0.8046 H   0  0  0  0  0  0  0  0  0  0  0  0
    3.3554    2.4157   -1.7024 H   0  0  0  0  0  0  0  0  0  0  0  0
    2.6717   -2.0843   -2.7642 H   0  0  0  0  0  0  0  0  0  0  0  0
    1.3822   -4.2118   -2.9587 H   0  0  0  0  0  0  0  0  0  0  0  0
   -0.8660   -4.2676   -1.9819 H   0  0  0  0  0  0  0  0  0  0  0  0
   -1.8702   -2.3889   -0.8599 H   0  0  0  0  0  0  0  0  0  0  0  0
   -1.3737   -0.7849    1.9657 H   0  0  0  0  0  0  0  0  0  0  0  0
   -3.6448   -0.9235    2.7848 H   0  0  0  0  0  0  0  0  0  0  0  0
   -5.6624    1.6841   -2.9623 H   0  0  0  0  0  0  0  0  0  0  0  0
  1  2  1  0
  2  3  2  0
  2  4  1  0
  4  5  2  0
  5  6  1  0
  6  7  2  0
  7  8  1  0
  8  9  1  0
  9 10  1  0
 10 11  1  0
 11 12  1  0
 12 13  2  0
 12 14  1  0
 14 15  2  0
 15 16  1  0
 16 17  2  0
 17 18  1  0
 18 19  2  0
 16 20  1  0
 20 21  1  0
 20 22  2  0
 10 23  2  0
 23 24  1  0
 24 25  2  0
 25 26  1  0
  7 27  1  0
 27 28  2  0
  5 29  1  0
 29 30  1  0
 29 31  2  0
 28  4  1  0
 26  9  2  0
 19 14  1  0
  1 32  1  0
  6 33  1  0
 11 34  1  0
 15 35  1  0
 17 36  1  0
 18 37  1  0
 19 38  1  0
 23 39  1  0
 24 40  1  0
 25 41  1  0
 26 42  1  0
 27 43  1  0
 28 44  1  0
 30 45  1  0
M  CHG  2  20   1  21  -1
M  END
$$$$
