@<TRIPOS>MOLECULE
*****
 56 61 0 0 0
SMALL
GASTEIGER

@<TRIPOS>ATOM
      1 C           6.0184   -0.7707    1.3210 C.3     1  UNL1        0.0043
      2 N           5.8430    0.4343    0.5926 N.am    1  UNL1       -0.2916
      3 C           6.9244    1.4427    0.7377 C.3     1  UNL1        0.0043
      4 C           4.7692    0.7552   -0.2342 C.2     1  UNL1        0.3046
      5 O           4.8282    1.9445   -0.8119 O.2     1  UNL1       -0.2524
      6 N           3.6117    0.0543   -0.5851 N.am    1  UNL1       -0.2794
      7 C           3.4036   -1.2555   -0.0380 C.3     1  UNL1        0.0345
      8 C           2.3054   -2.0112   -0.7962 C.3     1  UNL1        0.0392
      9 N           1.0261   -1.5031   -0.3173 N.ar    1  UNL1       -0.3443
     10 C           0.0264   -2.1467    0.2551 C.ar    1  UNL1        0.0137
     11 C          -1.0241   -1.2698    0.5617 C.ar    1  UNL1        0.0131
     12 C          -2.2672   -1.6273    1.2185 C.2     1  UNL1        0.0604
     13 C          -3.5032   -1.3607    0.8337 C.2     1  UNL1        0.0751
     14 C          -3.7972   -0.6234   -0.3928 C.ar    1  UNL1        0.0789
     15 C          -3.2196   -0.8722   -1.6474 C.ar    1  UNL1        0.0545
     16 N          -3.7256    0.0170   -2.5090 N.ar    1  UNL1       -0.2355
     17 C          -4.6077    0.8323   -1.8627 C.ar    1  UNL1        0.1380
     18 C          -5.3779    1.8956   -2.2925 C.ar    1  UNL1       -0.0188
     19 C          -6.1818    2.5422   -1.3807 C.ar    1  UNL1       -0.0569
     20 C          -6.2219    2.1358   -0.0452 C.ar    1  UNL1       -0.0450
     21 C          -5.4220    1.0644    0.3028 C.ar    1  UNL1        0.0118
     22 N          -4.6218    0.4151   -0.5933 N.ar    1  UNL1       -0.2991
     23 C          -4.4514   -1.9268    1.7971 C.2     1  UNL1        0.2533
     24 O          -5.7121   -1.8528    1.7215 O.2     1  UNL1       -0.2697
     25 N          -3.7100   -2.5841    2.8445 N.am    1  UNL1       -0.2482
     26 C          -2.3528   -2.3966    2.4828 C.2     1  UNL1        0.2519
     27 O          -1.3433   -2.8022    3.1075 O.2     1  UNL1       -0.2697
     28 C          -0.5961   -0.0340    0.1358 C.ar    1  UNL1        0.0081
     29 C          -1.1530    1.2268    0.1615 C.ar    1  UNL1       -0.0520
     30 C          -0.4274    2.2785   -0.3547 C.ar    1  UNL1       -0.0607
     31 C           0.8354    2.1301   -0.8976 C.ar    1  UNL1       -0.0551
     32 C           1.3688    0.8741   -0.9119 C.ar    1  UNL1       -0.0060
     33 C           0.6743   -0.2003   -0.4054 C.ar    1  UNL1        0.0544
     34 C           2.7298    0.8018   -1.5094 C.3     1  UNL1        0.0432
     35 H           6.4304   -1.5706    0.6324 H       1  UNL1        0.0429
     36 H           6.8732   -0.6337    2.0866 H       1  UNL1        0.0429
     37 H           5.1556   -1.1279    1.9056 H       1  UNL1        0.0429
     38 H           7.8559    0.8936    0.8369 H       1  UNL1        0.0429
     39 H           6.7031    1.9715    1.6786 H       1  UNL1        0.0429
     40 H           6.9334    2.1051   -0.1581 H       1  UNL1        0.0429
     41 H           3.0648   -1.2512    1.0103 H       1  UNL1        0.0483
     42 H           4.2969   -1.8836   -0.1481 H       1  UNL1        0.0483
     43 H           2.4108   -1.8046   -1.8770 H       1  UNL1        0.0507
     44 H           2.4278   -3.0783   -0.6159 H       1  UNL1        0.0507
     45 H           0.0320   -3.2152    0.4554 H       1  UNL1        0.0815
     46 H          -2.5113   -1.6350   -1.8492 H       1  UNL1        0.0852
     47 H          -5.3642    2.2270   -3.3152 H       1  UNL1        0.0654
     48 H          -6.8034    3.3797   -1.6660 H       1  UNL1        0.0619
     49 H          -6.8540    2.6467    0.6680 H       1  UNL1        0.0632
     50 H          -5.4620    0.7729    1.3582 H       1  UNL1        0.0813
     51 H          -4.1250   -3.0711    3.6584 H       1  UNL1        0.1581
     52 H          -2.1364    1.3704    0.5973 H       1  UNL1        0.0624
     53 H          -0.8586    3.2659   -0.3372 H       1  UNL1        0.0618
     54 H           1.4160    2.9381   -1.3056 H       1  UNL1        0.0621
     55 H           3.1091    1.8294   -1.6294 H       1  UNL1        0.0515
     56 H           2.7575    0.2629   -2.4742 H       1  UNL1        0.0515
@<TRIPOS>BOND
     1     1     2    1
     2     2     3    1
     3     2     4   am
     4     4     5    2
     5     4     6   am
     6     6     7    1
     7     7     8    1
     8     8     9    1
     9     9    10   ar
    10    10    11   ar
    11    11    12    1
    12    12    13    2
    13    13    14    1
    14    14    15   ar
    15    15    16   ar
    16    16    17   ar
    17    17    18   ar
    18    18    19   ar
    19    19    20   ar
    20    20    21   ar
    21    21    22   ar
    22    13    23    1
    23    23    24    2
    24    23    25   am
    25    25    26   am
    26    26    27    2
    27    11    28   ar
    28    28    29   ar
    29    29    30   ar
    30    30    31   ar
    31    31    32   ar
    32    32    33   ar
    33    32    34    1
    34    34     6    1
    35    33     9   ar
    36    26    12    1
    37    33    28   ar
    38    22    14   ar
    39    22    17   ar
    40     1    35    1
    41     1    36    1
    42     1    37    1
    43     3    38    1
    44     3    39    1
    45     3    40    1
    46     7    41    1
    47     7    42    1
    48     8    43    1
    49     8    44    1
    50    10    45    1
    51    15    46    1
    52    18    47    1
    53    19    48    1
    54    20    49    1
    55    21    50    1
    56    25    51    1
    57    29    52    1
    58    30    53    1
    59    31    54    1
    60    34    55    1
    61    34    56    1
