
     RDKit          3D

 59 64  0  0  0  0  0  0  0  0999 V2000
    1.8311   -6.4694    0.1055 C   0  0  0  0  0  0  0  0  0  0  0  0
    1.4238   -5.0726    0.1057 N   0  0  0  0  0  0  0  0  0  0  0  0
    2.1494   -3.9800    0.3201 C   0  0  0  0  0  0  0  0  0  0  0  0
    3.3970   -3.9808    0.5743 O   0  0  0  0  0  0  0  0  0  0  0  0
    1.3456   -2.8731    0.2244 N   0  0  0  0  0  0  0  0  0  0  0  0
    1.8585   -1.5871    0.4039 C   0  0  0  0  0  0  0  0  0  0  0  0
    2.3850   -0.8479   -0.6654 C   0  0  0  0  0  0  0  0  0  0  0  0
    2.9077    0.4154   -0.4580 C   0  0  0  0  0  0  0  0  0  0  0  0
    2.9376    0.9988    0.7777 C   0  0  0  0  0  0  0  0  0  0  0  0
    3.5138    2.3589    0.9331 C   0  0  0  0  0  0  0  0  0  0  0  0
    4.0995    2.8336   -0.4022 C   0  0  0  0  0  0  0  0  0  0  0  0
    2.3983    3.3397    1.3137 C   0  0  0  0  0  0  0  0  0  0  0  0
    4.5715    2.4285    1.8958 C   0  0  0  0  0  0  0  0  0  0  0  0
    5.4454    2.4969    2.7160 N   0  0  0  0  0  0  0  0  0  0  0  0
    2.4253    0.2862    1.8338 C   0  0  0  0  0  0  0  0  0  0  0  0
    1.8936   -0.9850    1.6546 C   0  0  0  0  0  0  0  0  0  0  0  0
    0.1231   -3.2696   -0.0479 C   0  0  0  0  0  0  0  0  0  0  0  0
   -1.0771   -2.6392   -0.2534 C   0  0  0  0  0  0  0  0  0  0  0  0
   -1.1371   -1.2772   -0.1782 C   0  0  0  0  0  0  0  0  0  0  0  0
   -2.3695   -0.6435   -0.3850 C   0  0  0  0  0  0  0  0  0  0  0  0
   -2.5046    0.8098   -0.3055 C   0  0  0  0  0  0  0  0  0  0  0  0
   -1.7067    1.5194    0.5611 C   0  0  0  0  0  0  0  0  0  0  0  0
   -1.8065    2.8745    0.6803 N   0  0  0  0  0  0  0  0  0  0  0  0
   -2.7202    3.5059   -0.0840 C   0  0  0  0  0  0  0  0  0  0  0  0
   -2.7873    4.8896    0.0781 C   0  0  0  0  0  0  0  0  0  0  0  0
   -3.7155    5.6071   -0.6808 C   0  0  0  0  0  0  0  0  0  0  0  0
   -4.5246    4.9060   -1.5591 C   0  0  0  0  0  0  0  0  0  0  0  0
   -4.4564    3.5416   -1.7165 C   0  0  0  0  0  0  0  0  0  0  0  0
   -3.5410    2.8375   -0.9667 C   0  0  0  0  0  0  0  0  0  0  0  0
   -3.4356    1.4465   -1.0867 C   0  0  0  0  0  0  0  0  0  0  0  0
   -3.4750   -1.4326   -0.6583 C   0  0  0  0  0  0  0  0  0  0  0  0
   -3.4317   -2.7994   -0.7380 C   0  0  0  0  0  0  0  0  0  0  0  0
   -2.1894   -3.4037   -0.5267 C   0  0  0  0  0  0  0  0  0  0  0  0
   -2.1624   -4.7577   -0.6043 N   0  0  0  0  0  0  0  0  0  0  0  0
   -0.9888   -5.3654   -0.4030 C   0  0  0  0  0  0  0  0  0  0  0  0
    0.1627   -4.6601   -0.1252 C   0  0  0  0  0  0  0  0  0  0  0  0
    1.0640   -7.0102    0.7010 H   0  0  0  0  0  0  0  0  0  0  0  0
    2.7927   -6.6116    0.6006 H   0  0  0  0  0  0  0  0  0  0  0  0
    1.7964   -6.9264   -0.9141 H   0  0  0  0  0  0  0  0  0  0  0  0
    2.3486   -1.3336   -1.6306 H   0  0  0  0  0  0  0  0  0  0  0  0
    3.2907    0.9201   -1.3288 H   0  0  0  0  0  0  0  0  0  0  0  0
    3.3115    2.9433   -1.1532 H   0  0  0  0  0  0  0  0  0  0  0  0
    4.6239    3.8097   -0.2611 H   0  0  0  0  0  0  0  0  0  0  0  0
    4.8352    2.0975   -0.7594 H   0  0  0  0  0  0  0  0  0  0  0  0
    2.0477    3.0714    2.3216 H   0  0  0  0  0  0  0  0  0  0  0  0
    1.5770    3.2861    0.5614 H   0  0  0  0  0  0  0  0  0  0  0  0
    2.8330    4.3545    1.3654 H   0  0  0  0  0  0  0  0  0  0  0  0
    2.4638    0.7782    2.8112 H   0  0  0  0  0  0  0  0  0  0  0  0
    1.5048   -1.4943    2.5232 H   0  0  0  0  0  0  0  0  0  0  0  0
   -0.3419   -0.6243    0.0223 H   0  0  0  0  0  0  0  0  0  0  0  0
   -0.9986    0.9631    1.1414 H   0  0  0  0  0  0  0  0  0  0  0  0
   -2.1301    5.3840    0.7797 H   0  0  0  0  0  0  0  0  0  0  0  0
   -3.7745    6.6894   -0.5561 H   0  0  0  0  0  0  0  0  0  0  0  0
   -5.2342    5.4937   -2.1346 H   0  0  0  0  0  0  0  0  0  0  0  0
   -5.1087    3.0137   -2.4195 H   0  0  0  0  0  0  0  0  0  0  0  0
   -4.0702    0.9251   -1.7703 H   0  0  0  0  0  0  0  0  0  0  0  0
   -4.4237   -0.9117   -0.8177 H   0  0  0  0  0  0  0  0  0  0  0  0
   -4.3134   -3.4052   -0.9551 H   0  0  0  0  0  0  0  0  0  0  0  0
   -0.9335   -6.4643   -0.4606 H   0  0  0  0  0  0  0  0  0  0  0  0
  1  2  1  0
  2  3  1  0
  3  4  2  0
  3  5  1  0
  5  6  1  0
  6  7  2  0
  7  8  1  0
  8  9  2  0
  9 10  1  0
 10 11  1  0
 10 12  1  0
 10 13  1  0
 13 14  3  0
  9 15  1  0
 15 16  2  0
  5 17  1  0
 17 18  2  0
 18 19  1  0
 19 20  2  0
 20 21  1  0
 21 22  2  0
 22 23  1  0
 23 24  2  0
 24 25  1  0
 25 26  2  0
 26 27  1  0
 27 28  2  0
 28 29  1  0
 29 30  2  0
 20 31  1  0
 31 32  2  0
 32 33  1  0
 33 34  2  0
 34 35  1  0
 35 36  2  0
 36  2  1  0
 16  6  1  0
 36 17  1  0
 33 18  1  0
 30 21  1  0
 29 24  1  0
  1 37  1  0
  1 38  1  0
  1 39  1  0
  7 40  1  0
  8 41  1  0
 11 42  1  0
 11 43  1  0
 11 44  1  0
 12 45  1  0
 12 46  1  0
 12 47  1  0
 15 48  1  0
 16 49  1  0
 19 50  1  0
 22 51  1  0
 25 52  1  0
 26 53  1  0
 27 54  1  0
 28 55  1  0
 30 56  1  0
 31 57  1  0
 32 58  1  0
 35 59  1  0
M  END
$$$$
