@<TRIPOS>MOLECULE
*****
 59 64 0 0 0
SMALL
GASTEIGER

@<TRIPOS>ATOM
      1 C           1.8311   -6.4694    0.1055 C.3     1  UNL1        0.0168
      2 N           1.4238   -5.0726    0.1057 N.ar    1  UNL1       -0.2934
      3 C           2.1494   -3.9800    0.3201 C.ar    1  UNL1        0.3345
      4 O           3.3970   -3.9808    0.5743 O.2     1  UNL1       -0.2459
      5 N           1.3456   -2.8731    0.2244 N.ar    1  UNL1       -0.2601
      6 C           1.8585   -1.5871    0.4039 C.ar    1  UNL1        0.0515
      7 C           2.3850   -0.8479   -0.6654 C.ar    1  UNL1       -0.0374
      8 C           2.9077    0.4154   -0.4580 C.ar    1  UNL1       -0.0551
      9 C           2.9376    0.9988    0.7777 C.ar    1  UNL1       -0.0279
     10 C           3.5138    2.3589    0.9331 C.3     1  UNL1        0.0766
     11 C           4.0995    2.8336   -0.4022 C.3     1  UNL1       -0.0428
     12 C           2.3983    3.3397    1.3137 C.3     1  UNL1       -0.0428
     13 C           4.5715    2.4285    1.8958 C.1     1  UNL1        0.0734
     14 N           5.4454    2.4969    2.7160 N.1     1  UNL1       -0.1957
     15 C           2.4253    0.2862    1.8338 C.ar    1  UNL1       -0.0551
     16 C           1.8936   -0.9850    1.6546 C.ar    1  UNL1       -0.0374
     17 C           0.1231   -3.2696   -0.0479 C.ar    1  UNL1        0.0856
     18 C          -1.0771   -2.6392   -0.2534 C.ar    1  UNL1        0.0269
     19 C          -1.1371   -1.2772   -0.1782 C.ar    1  UNL1       -0.0427
     20 C          -2.3695   -0.6435   -0.3850 C.ar    1  UNL1       -0.0157
     21 C          -2.5046    0.8098   -0.3055 C.ar    1  UNL1        0.0008
     22 C          -1.7067    1.5194    0.5611 C.ar    1  UNL1        0.0360
     23 N          -1.8065    2.8745    0.6803 N.ar    1  UNL1       -0.2544
     24 C          -2.7202    3.5059   -0.0840 C.ar    1  UNL1        0.0710
     25 C          -2.7873    4.8896    0.0781 C.ar    1  UNL1       -0.0357
     26 C          -3.7155    5.6071   -0.6808 C.ar    1  UNL1       -0.0597
     27 C          -4.5246    4.9060   -1.5591 C.ar    1  UNL1       -0.0611
     28 C          -4.4564    3.5416   -1.7165 C.ar    1  UNL1       -0.0525
     29 C          -3.5410    2.8375   -0.9667 C.ar    1  UNL1        0.0010
     30 C          -3.4356    1.4465   -1.0867 C.ar    1  UNL1       -0.0434
     31 C          -3.4750   -1.4326   -0.6583 C.ar    1  UNL1       -0.0519
     32 C          -3.4317   -2.7994   -0.7380 C.ar    1  UNL1       -0.0351
     33 C          -2.1894   -3.4037   -0.5267 C.ar    1  UNL1        0.0731
     34 N          -2.1624   -4.7577   -0.6043 N.ar    1  UNL1       -0.2528
     35 C          -0.9888   -5.3654   -0.4030 C.ar    1  UNL1        0.0539
     36 C           0.1627   -4.6601   -0.1252 C.ar    1  UNL1        0.0886
     37 H           1.0640   -7.0102    0.7010 H       1  UNL1        0.0457
     38 H           2.7927   -6.6116    0.6006 H       1  UNL1        0.0457
     39 H           1.7964   -6.9264   -0.9141 H       1  UNL1        0.0457
     40 H           2.3486   -1.3336   -1.6306 H       1  UNL1        0.0638
     41 H           3.2907    0.9201   -1.3288 H       1  UNL1        0.0621
     42 H           3.3115    2.9433   -1.1532 H       1  UNL1        0.0248
     43 H           4.6239    3.8097   -0.2611 H       1  UNL1        0.0248
     44 H           4.8352    2.0975   -0.7594 H       1  UNL1        0.0248
     45 H           2.0477    3.0714    2.3216 H       1  UNL1        0.0248
     46 H           1.5770    3.2861    0.5614 H       1  UNL1        0.0248
     47 H           2.8330    4.3545    1.3654 H       1  UNL1        0.0248
     48 H           2.4638    0.7782    2.8112 H       1  UNL1        0.0621
     49 H           1.5048   -1.4943    2.5232 H       1  UNL1        0.0638
     50 H          -0.3419   -0.6243    0.0223 H       1  UNL1        0.0631
     51 H          -0.9986    0.9631    1.1414 H       1  UNL1        0.0836
     52 H          -2.1301    5.3840    0.7797 H       1  UNL1        0.0639
     53 H          -3.7745    6.6894   -0.5561 H       1  UNL1        0.0618
     54 H          -5.2342    5.4937   -2.1346 H       1  UNL1        0.0618
     55 H          -5.1087    3.0137   -2.4195 H       1  UNL1        0.0624
     56 H          -4.0702    0.9251   -1.7703 H       1  UNL1        0.0631
     57 H          -4.4237   -0.9117   -0.8177 H       1  UNL1        0.0624
     58 H          -4.3134   -3.4052   -0.9551 H       1  UNL1        0.0639
     59 H          -0.9335   -6.4643   -0.4606 H       1  UNL1        0.0851
@<TRIPOS>BOND
     1     1     2    1
     2     2     3   ar
     3     3     4    2
     4     3     5   ar
     5     5     6    1
     6     6     7   ar
     7     7     8   ar
     8     8     9   ar
     9     9    10    1
    10    10    11    1
    11    10    12    1
    12    10    13    1
    13    13    14    3
    14     9    15   ar
    15    15    16   ar
    16     5    17   ar
    17    17    18   ar
    18    18    19   ar
    19    19    20   ar
    20    20    21    1
    21    21    22   ar
    22    22    23   ar
    23    23    24   ar
    24    24    25   ar
    25    25    26   ar
    26    26    27   ar
    27    27    28   ar
    28    28    29   ar
    29    29    30   ar
    30    20    31   ar
    31    31    32   ar
    32    32    33   ar
    33    33    34   ar
    34    34    35   ar
    35    35    36   ar
    36    36     2   ar
    37    16     6   ar
    38    36    17   ar
    39    33    18   ar
    40    30    21   ar
    41    29    24   ar
    42     1    37    1
    43     1    38    1
    44     1    39    1
    45     7    40    1
    46     8    41    1
    47    11    42    1
    48    11    43    1
    49    11    44    1
    50    12    45    1
    51    12    46    1
    52    12    47    1
    53    15    48    1
    54    16    49    1
    55    19    50    1
    56    22    51    1
    57    25    52    1
    58    26    53    1
    59    27    54    1
    60    28    55    1
    61    30    56    1
    62    31    57    1
    63    32    58    1
    64    35    59    1
