
     RDKit          3D

 30 31  0  0  0  0  0  0  0  0999 V2000
   -3.6066   -1.9207    0.0942 C   0  0  0  0  0  0  0  0  0  0  0  0
   -3.1524   -0.8045   -0.8200 C   0  0  0  0  0  0  0  0  0  0  0  0
   -4.1439    0.3031   -0.7411 C   0  0  0  0  0  0  0  0  0  0  0  0
   -4.8201    1.2795   -0.0563 O   0  0  0  0  0  0  0  0  0  0  0  0
   -4.7945    0.6453   -1.7847 O   0  0  0  0  0  0  0  0  0  0  0  0
   -1.7989   -0.3504   -0.4662 C   0  0  0  0  0  0  0  0  0  0  0  0
   -0.6989   -0.5245   -1.2940 C   0  0  0  0  0  0  0  0  0  0  0  0
    0.5293   -0.0627   -0.8779 C   0  0  0  0  0  0  0  0  0  0  0  0
    0.7859    0.5717    0.3091 C   0  0  0  0  0  0  0  0  0  0  0  0
   -0.3237    0.7540    1.1533 C   0  0  0  0  0  0  0  0  0  0  0  0
   -1.5660    0.2881    0.7346 C   0  0  0  0  0  0  0  0  0  0  0  0
    2.0132    1.0814    0.8714 C   0  0  0  0  0  0  0  0  0  0  0  0
    2.0353    1.9894    1.7485 O   0  0  0  0  0  0  0  0  0  0  0  0
    3.2798    0.5984    0.4816 C   0  0  0  0  0  0  0  0  0  0  0  0
    4.4872    1.0200    0.8692 C   0  0  0  0  0  0  0  0  0  0  0  0
    5.6811    0.5493    0.5061 C   0  0  0  0  0  0  0  0  0  0  0  0
    5.5118   -0.5880   -0.4557 C   0  0  0  0  0  0  0  0  0  0  0  0
    3.6416   -0.7627   -0.6538 S   0  0  0  0  0  0  0  0  0  0  0  0
   -3.0784   -2.8704   -0.1017 H   0  0  0  0  0  0  0  0  0  0  0  0
   -3.4740   -1.6794    1.1690 H   0  0  0  0  0  0  0  0  0  0  0  0
   -4.6861   -2.1229   -0.0337 H   0  0  0  0  0  0  0  0  0  0  0  0
   -3.1347   -1.2072   -1.8426 H   0  0  0  0  0  0  0  0  0  0  0  0
   -4.3310    2.1222    0.2649 H   0  0  0  0  0  0  0  0  0  0  0  0
   -0.8016   -1.0124   -2.2478 H   0  0  0  0  0  0  0  0  0  0  0  0
    1.3816   -0.1870   -1.5142 H   0  0  0  0  0  0  0  0  0  0  0  0
   -0.2775    1.2408    2.1253 H   0  0  0  0  0  0  0  0  0  0  0  0
   -2.4367    0.4234    1.3848 H   0  0  0  0  0  0  0  0  0  0  0  0
    4.6939    1.8497    1.5697 H   0  0  0  0  0  0  0  0  0  0  0  0
    6.7349    0.6545    0.6237 H   0  0  0  0  0  0  0  0  0  0  0  0
    6.3496   -1.2782   -1.0155 H   0  0  0  0  0  0  0  0  0  0  0  0
  1  2  1  0
  2  3  1  0
  3  4  1  0
  3  5  2  0
  2  6  1  0
  6  7  2  0
  7  8  1  0
  8  9  2  0
  9 10  1  0
 10 11  2  0
  9 12  1  0
 12 13  2  0
 12 14  1  0
 14 15  2  0
 15 16  1  0
 16 17  2  0
 17 18  1  0
 11  6  1  0
 18 14  1  0
  1 19  1  0
  1 20  1  0
  1 21  1  0
  2 22  1  0
  4 23  1  0
  7 24  1  0
  8 25  1  0
 10 26  1  0
 11 27  1  0
 15 28  1  0
 16 29  1  0
 17 30  1  0
M  END
$$$$
