@<TRIPOS>MOLECULE
*****
 45 45 0 0 0
SMALL
GASTEIGER

@<TRIPOS>ATOM
      1 C           4.6017   -0.6372   -1.4159 C.3     1  UNL1       -0.0653
      2 C           4.9472   -0.3275   -0.0158 C.3     1  UNL1       -0.0559
      3 C           4.3314    0.9224    0.5291 C.3     1  UNL1       -0.0533
      4 C           2.8231    0.9122    0.5224 C.3     1  UNL1       -0.0530
      5 C           2.2533   -0.1996    1.3444 C.3     1  UNL1       -0.0519
      6 C           0.7473   -0.2471    1.3704 C.3     1  UNL1       -0.0402
      7 C           0.1444   -0.4343    0.0007 C.3     1  UNL1       -0.0006
      8 N          -1.2473   -0.4862   -0.0354 N.3     1  UNL1       -0.2923
      9 C          -1.9195   -1.5834    0.5383 C.3     1  UNL1        0.0279
     10 C          -3.3286   -1.7073   -0.0237 C.3     1  UNL1        0.0962
     11 O          -3.2588   -2.0870   -1.3652 O.3     1  UNL1       -0.3879
     12 C          -4.1476   -0.4716    0.1693 C.3     1  UNL1        0.1095
     13 O          -4.9420   -0.6764    1.3082 O.3     1  UNL1       -0.3866
     14 C          -3.2462    0.7149    0.3304 C.3     1  UNL1        0.1011
     15 O          -3.8979    1.9070    0.0594 O.3     1  UNL1       -0.3875
     16 C          -2.0366    0.5038   -0.5972 C.3     1  UNL1        0.0621
     17 C          -1.4688    1.8270   -0.8900 C.3     1  UNL1        0.0622
     18 O          -0.9955    2.4312    0.2691 O.3     1  UNL1       -0.3934
     19 H           5.5340   -0.6530   -2.0266 H       1  UNL1        0.0230
     20 H           4.1392   -1.6366   -1.5268 H       1  UNL1        0.0230
     21 H           3.9152    0.0754   -1.9020 H       1  UNL1        0.0230
     22 H           4.5866   -1.1733    0.6319 H       1  UNL1        0.0263
     23 H           6.0463   -0.2895    0.1464 H       1  UNL1        0.0263
     24 H           4.6475    1.1249    1.5686 H       1  UNL1        0.0265
     25 H           4.6574    1.7857   -0.0850 H       1  UNL1        0.0265
     26 H           2.5184    1.8681    1.0244 H       1  UNL1        0.0265
     27 H           2.4093    0.9815   -0.4966 H       1  UNL1        0.0265
     28 H           2.5737   -1.2096    0.9608 H       1  UNL1        0.0266
     29 H           2.6369   -0.1590    2.3817 H       1  UNL1        0.0266
     30 H           0.4160    0.7038    1.8573 H       1  UNL1        0.0278
     31 H           0.4276   -1.0864    2.0235 H       1  UNL1        0.0278
     32 H           0.5521   -1.4169   -0.3804 H       1  UNL1        0.0427
     33 H           0.5153    0.3185   -0.7118 H       1  UNL1        0.0427
     34 H          -1.3850   -2.5151    0.2613 H       1  UNL1        0.0453
     35 H          -2.0188   -1.5462    1.6427 H       1  UNL1        0.0453
     36 H          -3.7883   -2.5888    0.5052 H       1  UNL1        0.0633
     37 H          -4.1750   -1.9778   -1.7489 H       1  UNL1        0.2099
     38 H          -4.8647   -0.3291   -0.6791 H       1  UNL1        0.0646
     39 H          -5.3505   -1.5649    1.1899 H       1  UNL1        0.2100
     40 H          -2.8535    0.7589    1.3708 H       1  UNL1        0.0636
     41 H          -4.2465    2.3415    0.8855 H       1  UNL1        0.2100
     42 H          -2.5025    0.1143   -1.5515 H       1  UNL1        0.0511
     43 H          -2.3047    2.4907   -1.2476 H       1  UNL1        0.0573
     44 H          -0.7316    1.8591   -1.7162 H       1  UNL1        0.0573
     45 H          -0.7142    3.3629    0.0765 H       1  UNL1        0.2095
@<TRIPOS>BOND
     1     1     2    1
     2     2     3    1
     3     3     4    1
     4     4     5    1
     5     5     6    1
     6     6     7    1
     7     7     8    1
     8     8     9    1
     9     9    10    1
    10    10    11    1
    11    10    12    1
    12    12    13    1
    13    12    14    1
    14    14    15    1
    15    14    16    1
    16    16    17    1
    17    17    18    1
    18    16     8    1
    19     1    19    1
    20     1    20    1
    21     1    21    1
    22     2    22    1
    23     2    23    1
    24     3    24    1
    25     3    25    1
    26     4    26    1
    27     4    27    1
    28     5    28    1
    29     5    29    1
    30     6    30    1
    31     6    31    1
    32     7    32    1
    33     7    33    1
    34     9    34    1
    35     9    35    1
    36    10    36    1
    37    11    37    1
    38    12    38    1
    39    13    39    1
    40    14    40    1
    41    15    41    1
    42    16    42    1
    43    17    43    1
    44    17    44    1
    45    18    45    1
