
     RDKit          3D

 45 45  0  0  0  0  0  0  0  0999 V2000
    4.6017   -0.6372   -1.4159 C   0  0  0  0  0  0  0  0  0  0  0  0
    4.9472   -0.3275   -0.0158 C   0  0  0  0  0  0  0  0  0  0  0  0
    4.3314    0.9224    0.5291 C   0  0  0  0  0  0  0  0  0  0  0  0
    2.8231    0.9122    0.5224 C   0  0  0  0  0  0  0  0  0  0  0  0
    2.2533   -0.1996    1.3444 C   0  0  0  0  0  0  0  0  0  0  0  0
    0.7473   -0.2471    1.3704 C   0  0  0  0  0  0  0  0  0  0  0  0
    0.1444   -0.4343    0.0007 C   0  0  0  0  0  0  0  0  0  0  0  0
   -1.2473   -0.4862   -0.0354 N   0  0  0  0  0  0  0  0  0  0  0  0
   -1.9195   -1.5834    0.5383 C   0  0  0  0  0  0  0  0  0  0  0  0
   -3.3286   -1.7073   -0.0237 C   0  0  2  0  0  0  0  0  0  0  0  0
   -3.2588   -2.0870   -1.3652 O   0  0  0  0  0  0  0  0  0  0  0  0
   -4.1476   -0.4716    0.1693 C   0  0  1  0  0  0  0  0  0  0  0  0
   -4.9420   -0.6764    1.3082 O   0  0  0  0  0  0  0  0  0  0  0  0
   -3.2462    0.7149    0.3304 C   0  0  2  0  0  0  0  0  0  0  0  0
   -3.8979    1.9070    0.0594 O   0  0  0  0  0  0  0  0  0  0  0  0
   -2.0366    0.5038   -0.5972 C   0  0  1  0  0  0  0  0  0  0  0  0
   -1.4688    1.8270   -0.8900 C   0  0  0  0  0  0  0  0  0  0  0  0
   -0.9955    2.4312    0.2691 O   0  0  0  0  0  0  0  0  0  0  0  0
    5.5340   -0.6530   -2.0266 H   0  0  0  0  0  0  0  0  0  0  0  0
    4.1392   -1.6366   -1.5268 H   0  0  0  0  0  0  0  0  0  0  0  0
    3.9152    0.0754   -1.9020 H   0  0  0  0  0  0  0  0  0  0  0  0
    4.5866   -1.1733    0.6319 H   0  0  0  0  0  0  0  0  0  0  0  0
    6.0463   -0.2895    0.1464 H   0  0  0  0  0  0  0  0  0  0  0  0
    4.6475    1.1249    1.5686 H   0  0  0  0  0  0  0  0  0  0  0  0
    4.6574    1.7857   -0.0850 H   0  0  0  0  0  0  0  0  0  0  0  0
    2.5184    1.8681    1.0244 H   0  0  0  0  0  0  0  0  0  0  0  0
    2.4093    0.9815   -0.4966 H   0  0  0  0  0  0  0  0  0  0  0  0
    2.5737   -1.2096    0.9608 H   0  0  0  0  0  0  0  0  0  0  0  0
    2.6369   -0.1590    2.3817 H   0  0  0  0  0  0  0  0  0  0  0  0
    0.4160    0.7038    1.8573 H   0  0  0  0  0  0  0  0  0  0  0  0
    0.4276   -1.0864    2.0235 H   0  0  0  0  0  0  0  0  0  0  0  0
    0.5521   -1.4169   -0.3804 H   0  0  0  0  0  0  0  0  0  0  0  0
    0.5153    0.3185   -0.7118 H   0  0  0  0  0  0  0  0  0  0  0  0
   -1.3850   -2.5151    0.2613 H   0  0  0  0  0  0  0  0  0  0  0  0
   -2.0188   -1.5462    1.6427 H   0  0  0  0  0  0  0  0  0  0  0  0
   -3.7883   -2.5888    0.5052 H   0  0  0  0  0  0  0  0  0  0  0  0
   -4.1750   -1.9778   -1.7489 H   0  0  0  0  0  0  0  0  0  0  0  0
   -4.8647   -0.3291   -0.6791 H   0  0  0  0  0  0  0  0  0  0  0  0
   -5.3505   -1.5649    1.1899 H   0  0  0  0  0  0  0  0  0  0  0  0
   -2.8535    0.7589    1.3708 H   0  0  0  0  0  0  0  0  0  0  0  0
   -4.2465    2.3415    0.8855 H   0  0  0  0  0  0  0  0  0  0  0  0
   -2.5025    0.1143   -1.5515 H   0  0  0  0  0  0  0  0  0  0  0  0
   -2.3047    2.4907   -1.2476 H   0  0  0  0  0  0  0  0  0  0  0  0
   -0.7316    1.8591   -1.7162 H   0  0  0  0  0  0  0  0  0  0  0  0
   -0.7142    3.3629    0.0765 H   0  0  0  0  0  0  0  0  0  0  0  0
  1  2  1  0
  2  3  1  0
  3  4  1  0
  4  5  1  0
  5  6  1  0
  6  7  1  0
  7  8  1  0
  8  9  1  0
  9 10  1  0
 10 11  1  0
 10 12  1  0
 12 13  1  0
 12 14  1  0
 14 15  1  0
 14 16  1  0
 16 17  1  0
 17 18  1  0
 16  8  1  0
  1 19  1  0
  1 20  1  0
  1 21  1  0
  2 22  1  0
  2 23  1  0
  3 24  1  0
  3 25  1  0
  4 26  1  0
  4 27  1  0
  5 28  1  0
  5 29  1  0
  6 30  1  0
  6 31  1  0
  7 32  1  0
  7 33  1  0
  9 34  1  0
  9 35  1  0
 10 36  1  1
 11 37  1  0
 12 38  1  6
 13 39  1  0
 14 40  1  1
 15 41  1  0
 16 42  1  6
 17 43  1  0
 17 44  1  0
 18 45  1  0
M  END
$$$$
