@<TRIPOS>MOLECULE
*****
 60 62 0 0 0
SMALL
GASTEIGER

@<TRIPOS>ATOM
      1 C          -3.2493    3.5557   -3.2743 C.3     1  UNL1       -0.0306
      2 C          -2.6244    2.2308   -3.6696 C.3     1  UNL1        0.0897
      3 O          -1.8511    1.7037   -2.6065 O.3     1  UNL1       -0.4638
      4 C          -2.4377    1.4108   -1.3837 C.2     1  UNL1        0.3243
      5 O          -3.5668    1.7661   -1.7242 O.2     1  UNL1       -0.2491
      6 C          -1.6734    0.8572   -0.2349 C.3     1  UNL1        0.1067
      7 C          -1.9800    1.6317    0.9763 C.3     1  UNL1       -0.0232
      8 C          -3.4517    1.5851    1.3351 C.3     1  UNL1       -0.0258
      9 C          -3.9300    0.1938    1.6034 C.ar    1  UNL1       -0.0473
     10 C          -3.8395   -0.2667    2.9237 C.ar    1  UNL1       -0.0586
     11 C          -4.2454   -1.5333    3.3167 C.ar    1  UNL1       -0.0615
     12 C          -4.7632   -2.3856    2.3704 C.ar    1  UNL1       -0.0617
     13 C          -4.8589   -1.9488    1.0693 C.ar    1  UNL1       -0.0615
     14 C          -4.4500   -0.6903    0.7067 C.ar    1  UNL1       -0.0586
     15 N          -0.3450    0.7214   -0.6380 N.3     1  UNL1       -0.2929
     16 C           0.6199    0.2185    0.2389 C.3     1  UNL1        0.0946
     17 C           0.3684   -1.1766    0.7515 C.3     1  UNL1        0.0183
     18 S           1.7195   -1.7096    1.8629 S.3     1  UNL1       -0.1486
     19 C           3.1203   -2.3458    0.9111 C.3     1  UNL1        0.0522
     20 C           3.0075   -1.9567   -0.5386 C.3     1  UNL1        0.0317
     21 N           3.0263   -0.5424   -0.7742 N.am    1  UNL1       -0.2881
     22 C           4.1745    0.1044   -1.4290 C.3     1  UNL1        0.1117
     23 C           3.8374    0.0565   -2.8972 C.2     1  UNL1        0.3223
     24 O           2.6853   -0.4851   -3.4957 O.3     1  UNL1       -0.4795
     25 O           4.6180    0.5342   -3.7856 O.2     1  UNL1       -0.2492
     26 C           1.9600    0.3121   -0.4007 C.2     1  UNL1        0.2339
     27 O           2.1685    1.5425   -0.6775 O.2     1  UNL1       -0.2738
     28 C           4.3540   -1.9427    1.5558 C.ar    1  UNL1        0.0042
     29 C           4.7845   -0.6196    1.7814 C.ar    1  UNL1       -0.0504
     30 C           5.9698   -0.3906    2.3995 C.ar    1  UNL1       -0.0544
     31 C           6.7189   -1.6446    2.7889 C.ar    1  UNL1       -0.0240
     32 S           5.5836   -3.0359    2.1959 S.2     1  UNL1       -0.1004
     33 H          -2.9988    4.3414   -4.0355 H       1  UNL1        0.0262
     34 H          -2.8389    3.9064   -2.3079 H       1  UNL1        0.0262
     35 H          -4.3406    3.4400   -3.1551 H       1  UNL1        0.0262
     36 H          -3.4283    1.4761   -3.9155 H       1  UNL1        0.0694
     37 H          -2.0458    2.3387   -4.5937 H       1  UNL1        0.0694
     38 H          -2.0911   -0.1830   -0.0896 H       1  UNL1        0.0576
     39 H          -1.7002    2.6818    0.9710 H       1  UNL1        0.0289
     40 H          -1.4723    1.1237    1.8488 H       1  UNL1        0.0289
     41 H          -4.0846    2.0301    0.5397 H       1  UNL1        0.0314
     42 H          -3.6740    2.1786    2.2450 H       1  UNL1        0.0314
     43 H          -3.4364    0.3562    3.7377 H       1  UNL1        0.0620
     44 H          -4.1595   -1.8520    4.3463 H       1  UNL1        0.0618
     45 H          -5.0949   -3.3912    2.6361 H       1  UNL1        0.0618
     46 H          -5.2674   -2.6002    0.2834 H       1  UNL1        0.0618
     47 H          -4.5281   -0.3630   -0.2982 H       1  UNL1        0.0620
     48 H          -0.2264    0.3041   -1.5859 H       1  UNL1        0.1234
     49 H           0.7190    0.8590    1.1646 H       1  UNL1        0.0565
     50 H           0.1518   -1.9219   -0.0204 H       1  UNL1        0.0396
     51 H          -0.5319   -1.1391    1.4157 H       1  UNL1        0.0396
     52 H           3.0718   -3.4548    0.9283 H       1  UNL1        0.0482
     53 H           3.9329   -2.3763   -1.0320 H       1  UNL1        0.0479
     54 H           2.1695   -2.4769   -1.0117 H       1  UNL1        0.0479
     55 H           5.0991   -0.4576   -1.3098 H       1  UNL1        0.0580
     56 H           4.2232    1.1626   -1.1083 H       1  UNL1        0.0580
     57 H           2.7659   -1.0816   -4.3324 H       1  UNL1        0.2951
     58 H           4.1741    0.2097    1.4648 H       1  UNL1        0.0626
     59 H           6.3929    0.5689    2.6208 H       1  UNL1        0.0623
     60 H           7.7688   -1.4303    3.3364 H       1  UNL1        0.0693
@<TRIPOS>BOND
     1     1     2    1
     2     2     3    1
     3     3     4    1
     4     4     5    2
     5     4     6    1
     6     6     7    1
     7     7     8    1
     8     8     9    1
     9     9    10   ar
    10    10    11   ar
    11    11    12   ar
    12    12    13   ar
    13    13    14   ar
    14     6    15    1
    15    15    16    1
    16    16    17    1
    17    17    18    1
    18    18    19    1
    19    19    20    1
    20    20    21    1
    21    21    22    1
    22    22    23    1
    23    23    24    1
    24    23    25    2
    25    21    26   am
    26    26    27    2
    27    19    28    1
    28    28    29   ar
    29    29    30   ar
    30    30    31   ar
    31    31    32   ar
    32    14     9   ar
    33    26    16    1
    34    32    28   ar
    35     1    33    1
    36     1    34    1
    37     1    35    1
    38     2    36    1
    39     2    37    1
    40     6    38    1
    41     7    39    1
    42     7    40    1
    43     8    41    1
    44     8    42    1
    45    10    43    1
    46    11    44    1
    47    12    45    1
    48    13    46    1
    49    14    47    1
    50    15    48    1
    51    16    49    1
    52    17    50    1
    53    17    51    1
    54    19    52    1
    55    20    53    1
    56    20    54    1
    57    22    55    1
    58    22    56    1
    59    24    57    1
    60    29    58    1
    61    30    59    1
    62    31    60    1
