
     RDKit          3D

 60 62  0  0  0  0  0  0  0  0999 V2000
   -3.2493    3.5557   -3.2743 C   0  0  0  0  0  0  0  0  0  0  0  0
   -2.6244    2.2308   -3.6696 C   0  0  0  0  0  0  0  0  0  0  0  0
   -1.8511    1.7037   -2.6065 O   0  0  0  0  0  0  0  0  0  0  0  0
   -2.4377    1.4108   -1.3837 C   0  0  0  0  0  0  0  0  0  0  0  0
   -3.5668    1.7661   -1.7242 O   0  0  0  0  0  0  0  0  0  0  0  0
   -1.6734    0.8572   -0.2349 C   0  0  2  0  0  0  0  0  0  0  0  0
   -1.9800    1.6317    0.9763 C   0  0  0  0  0  0  0  0  0  0  0  0
   -3.4517    1.5851    1.3351 C   0  0  0  0  0  0  0  0  0  0  0  0
   -3.9300    0.1938    1.6034 C   0  0  0  0  0  0  0  0  0  0  0  0
   -3.8395   -0.2667    2.9237 C   0  0  0  0  0  0  0  0  0  0  0  0
   -4.2454   -1.5333    3.3167 C   0  0  0  0  0  0  0  0  0  0  0  0
   -4.7632   -2.3856    2.3704 C   0  0  0  0  0  0  0  0  0  0  0  0
   -4.8589   -1.9488    1.0693 C   0  0  0  0  0  0  0  0  0  0  0  0
   -4.4500   -0.6903    0.7067 C   0  0  0  0  0  0  0  0  0  0  0  0
   -0.3450    0.7214   -0.6380 N   0  0  0  0  0  0  0  0  0  0  0  0
    0.6199    0.2185    0.2389 C   0  0  1  0  0  0  0  0  0  0  0  0
    0.3684   -1.1766    0.7515 C   0  0  0  0  0  0  0  0  0  0  0  0
    1.7195   -1.7096    1.8629 S   0  0  0  0  0  0  0  0  0  0  0  0
    3.1203   -2.3458    0.9111 C   0  0  1  0  0  0  0  0  0  0  0  0
    3.0075   -1.9567   -0.5386 C   0  0  0  0  0  0  0  0  0  0  0  0
    3.0263   -0.5424   -0.7742 N   0  0  0  0  0  0  0  0  0  0  0  0
    4.1745    0.1044   -1.4290 C   0  0  0  0  0  0  0  0  0  0  0  0
    3.8374    0.0565   -2.8972 C   0  0  0  0  0  0  0  0  0  0  0  0
    2.6853   -0.4851   -3.4957 O   0  0  0  0  0  0  0  0  0  0  0  0
    4.6180    0.5342   -3.7856 O   0  0  0  0  0  0  0  0  0  0  0  0
    1.9600    0.3121   -0.4007 C   0  0  0  0  0  0  0  0  0  0  0  0
    2.1685    1.5425   -0.6775 O   0  0  0  0  0  0  0  0  0  0  0  0
    4.3540   -1.9427    1.5558 C   0  0  0  0  0  0  0  0  0  0  0  0
    4.7845   -0.6196    1.7814 C   0  0  0  0  0  0  0  0  0  0  0  0
    5.9698   -0.3906    2.3995 C   0  0  0  0  0  0  0  0  0  0  0  0
    6.7189   -1.6446    2.7889 C   0  0  0  0  0  0  0  0  0  0  0  0
    5.5836   -3.0359    2.1959 S   0  0  0  0  0  0  0  0  0  0  0  0
   -2.9988    4.3414   -4.0355 H   0  0  0  0  0  0  0  0  0  0  0  0
   -2.8389    3.9064   -2.3079 H   0  0  0  0  0  0  0  0  0  0  0  0
   -4.3406    3.4400   -3.1551 H   0  0  0  0  0  0  0  0  0  0  0  0
   -3.4283    1.4761   -3.9155 H   0  0  0  0  0  0  0  0  0  0  0  0
   -2.0458    2.3387   -4.5937 H   0  0  0  0  0  0  0  0  0  0  0  0
   -2.0911   -0.1830   -0.0896 H   0  0  0  0  0  0  0  0  0  0  0  0
   -1.7002    2.6818    0.9710 H   0  0  0  0  0  0  0  0  0  0  0  0
   -1.4723    1.1237    1.8488 H   0  0  0  0  0  0  0  0  0  0  0  0
   -4.0846    2.0301    0.5397 H   0  0  0  0  0  0  0  0  0  0  0  0
   -3.6740    2.1786    2.2450 H   0  0  0  0  0  0  0  0  0  0  0  0
   -3.4364    0.3562    3.7377 H   0  0  0  0  0  0  0  0  0  0  0  0
   -4.1595   -1.8520    4.3463 H   0  0  0  0  0  0  0  0  0  0  0  0
   -5.0949   -3.3912    2.6361 H   0  0  0  0  0  0  0  0  0  0  0  0
   -5.2674   -2.6002    0.2834 H   0  0  0  0  0  0  0  0  0  0  0  0
   -4.5281   -0.3630   -0.2982 H   0  0  0  0  0  0  0  0  0  0  0  0
   -0.2264    0.3041   -1.5859 H   0  0  0  0  0  0  0  0  0  0  0  0
    0.7190    0.8590    1.1646 H   0  0  0  0  0  0  0  0  0  0  0  0
    0.1518   -1.9219   -0.0204 H   0  0  0  0  0  0  0  0  0  0  0  0
   -0.5319   -1.1391    1.4157 H   0  0  0  0  0  0  0  0  0  0  0  0
    3.0718   -3.4548    0.9283 H   0  0  0  0  0  0  0  0  0  0  0  0
    3.9329   -2.3763   -1.0320 H   0  0  0  0  0  0  0  0  0  0  0  0
    2.1695   -2.4769   -1.0117 H   0  0  0  0  0  0  0  0  0  0  0  0
    5.0991   -0.4576   -1.3098 H   0  0  0  0  0  0  0  0  0  0  0  0
    4.2232    1.1626   -1.1083 H   0  0  0  0  0  0  0  0  0  0  0  0
    2.7659   -1.0816   -4.3324 H   0  0  0  0  0  0  0  0  0  0  0  0
    4.1741    0.2097    1.4648 H   0  0  0  0  0  0  0  0  0  0  0  0
    6.3929    0.5689    2.6208 H   0  0  0  0  0  0  0  0  0  0  0  0
    7.7688   -1.4303    3.3364 H   0  0  0  0  0  0  0  0  0  0  0  0
  1  2  1  0
  2  3  1  0
  3  4  1  0
  4  5  2  0
  4  6  1  0
  6  7  1  0
  7  8  1  0
  8  9  1  0
  9 10  2  0
 10 11  1  0
 11 12  2  0
 12 13  1  0
 13 14  2  0
  6 15  1  0
 15 16  1  0
 16 17  1  0
 17 18  1  0
 18 19  1  0
 19 20  1  0
 20 21  1  0
 21 22  1  0
 22 23  1  0
 23 24  1  0
 23 25  2  0
 21 26  1  0
 26 27  2  0
 19 28  1  0
 28 29  2  0
 29 30  1  0
 30 31  2  0
 31 32  1  0
 14  9  1  0
 26 16  1  0
 32 28  1  0
  1 33  1  0
  1 34  1  0
  1 35  1  0
  2 36  1  0
  2 37  1  0
  6 38  1  1
  7 39  1  0
  7 40  1  0
  8 41  1  0
  8 42  1  0
 10 43  1  0
 11 44  1  0
 12 45  1  0
 13 46  1  0
 14 47  1  0
 15 48  1  0
 16 49  1  1
 17 50  1  0
 17 51  1  0
 19 52  1  6
 20 53  1  0
 20 54  1  0
 22 55  1  0
 22 56  1  0
 24 57  1  0
 29 58  1  0
 30 59  1  0
 31 60  1  0
M  END
$$$$
