
     RDKit          3D

 53 53  0  0  0  0  0  0  0  0999 V2000
    5.6875   -1.3831    1.6062 C   0  0  0  0  0  0  0  0  0  0  0  0
    5.1591   -2.2930    0.5546 C   0  0  0  0  0  0  0  0  0  0  0  0
    4.6742   -1.6969   -0.7130 C   0  0  0  0  0  0  0  0  0  0  0  0
    3.5030   -0.7888   -0.7013 C   0  0  0  0  0  0  0  0  0  0  0  0
    3.7069    0.4208    0.1153 C   0  0  0  0  0  0  0  0  0  0  0  0
    2.4799    1.3660    0.0627 C   0  0  0  0  0  0  0  0  0  0  0  0
    1.0419    0.5349    0.6807 P   0  0  0  0  0  0  0  0  0  0  0  0
    1.4873   -0.7629    1.6669 O   0  0  0  0  0  0  0  0  0  0  0  0
    0.3535    1.5309    1.6329 O   0  0  0  0  0  0  0  0  0  0  0  0
   -0.0991    0.0846   -0.3846 O   0  0  0  0  0  0  0  0  0  0  0  0
   -1.3783    0.5148   -0.3150 C   0  0  1  0  0  0  0  0  0  0  0  0
   -1.6839    1.5929   -1.3827 C   0  0  0  0  0  0  0  0  0  0  0  0
   -2.9389    2.2630   -0.8695 C   0  0  1  0  0  0  0  0  0  0  0  0
   -3.1780    3.6026   -1.4913 C   0  0  0  0  0  0  0  0  0  0  0  0
   -4.0586    1.3074   -1.0711 C   0  0  0  0  0  0  0  0  0  0  0  0
   -3.6705   -0.1294   -1.1051 C   0  0  0  0  0  0  0  0  0  0  0  0
   -2.4620   -0.4960   -0.3006 C   0  0  2  0  0  0  0  0  0  0  0  0
   -2.9887   -0.7035    1.1013 C   0  0  0  0  0  0  0  0  0  0  0  0
   -4.1028   -1.7318    1.1081 C   0  0  0  0  0  0  0  0  0  0  0  0
   -1.9437   -1.1180    2.1023 C   0  0  0  0  0  0  0  0  0  0  0  0
    5.0204   -1.2832    2.4941 H   0  0  0  0  0  0  0  0  0  0  0  0
    6.0125   -0.4352    1.1708 H   0  0  0  0  0  0  0  0  0  0  0  0
    6.6612   -1.8520    2.0030 H   0  0  0  0  0  0  0  0  0  0  0  0
    4.3617   -2.9749    0.9956 H   0  0  0  0  0  0  0  0  0  0  0  0
    5.9843   -3.0385    0.3033 H   0  0  0  0  0  0  0  0  0  0  0  0
    4.4656   -2.5321   -1.4473 H   0  0  0  0  0  0  0  0  0  0  0  0
    5.5330   -1.0731   -1.1368 H   0  0  0  0  0  0  0  0  0  0  0  0
    3.2870   -0.5600   -1.7831 H   0  0  0  0  0  0  0  0  0  0  0  0
    2.6394   -1.4257   -0.3135 H   0  0  0  0  0  0  0  0  0  0  0  0
    3.7625    0.0987    1.1874 H   0  0  0  0  0  0  0  0  0  0  0  0
    4.6204    0.9357   -0.1726 H   0  0  0  0  0  0  0  0  0  0  0  0
    2.7967    2.2040    0.7173 H   0  0  0  0  0  0  0  0  0  0  0  0
    2.3743    1.6312   -0.9883 H   0  0  0  0  0  0  0  0  0  0  0  0
    1.0578   -1.6068    1.4662 H   0  0  0  0  0  0  0  0  0  0  0  0
   -1.4566    1.0951    0.6294 H   0  0  0  0  0  0  0  0  0  0  0  0
   -0.8232    2.2597   -1.4977 H   0  0  0  0  0  0  0  0  0  0  0  0
   -1.9915    1.1085   -2.3266 H   0  0  0  0  0  0  0  0  0  0  0  0
   -2.7908    2.4299    0.2379 H   0  0  0  0  0  0  0  0  0  0  0  0
   -4.2524    3.8396   -1.3772 H   0  0  0  0  0  0  0  0  0  0  0  0
   -2.8366    3.6922   -2.5402 H   0  0  0  0  0  0  0  0  0  0  0  0
   -2.6159    4.3594   -0.9021 H   0  0  0  0  0  0  0  0  0  0  0  0
   -4.6327    1.5786   -1.9796 H   0  0  0  0  0  0  0  0  0  0  0  0
   -4.7740    1.4726   -0.2171 H   0  0  0  0  0  0  0  0  0  0  0  0
   -4.5716   -0.7049   -0.8072 H   0  0  0  0  0  0  0  0  0  0  0  0
   -3.4728   -0.3973   -2.1632 H   0  0  0  0  0  0  0  0  0  0  0  0
   -2.0420   -1.4549   -0.6992 H   0  0  0  0  0  0  0  0  0  0  0  0
   -3.4224    0.2552    1.4453 H   0  0  0  0  0  0  0  0  0  0  0  0
   -5.1024   -1.2098    1.1144 H   0  0  0  0  0  0  0  0  0  0  0  0
   -4.0641   -2.4346    0.2592 H   0  0  0  0  0  0  0  0  0  0  0  0
   -4.0476   -2.2918    2.0629 H   0  0  0  0  0  0  0  0  0  0  0  0
   -1.2896   -1.9100    1.7384 H   0  0  0  0  0  0  0  0  0  0  0  0
   -2.5294   -1.6152    2.9343 H   0  0  0  0  0  0  0  0  0  0  0  0
   -1.4499   -0.2747    2.6210 H   0  0  0  0  0  0  0  0  0  0  0  0
  1  2  1  0
  2  3  1  0
  3  4  1  0
  4  5  1  0
  5  6  1  0
  6  7  1  0
  7  8  1  0
  7  9  2  0
  7 10  1  0
 10 11  1  0
 11 12  1  0
 12 13  1  0
 13 14  1  0
 13 15  1  0
 15 16  1  0
 16 17  1  0
 17 18  1  0
 18 19  1  0
 18 20  1  0
 17 11  1  0
  1 21  1  0
  1 22  1  0
  1 23  1  0
  2 24  1  0
  2 25  1  0
  3 26  1  0
  3 27  1  0
  4 28  1  0
  4 29  1  0
  5 30  1  0
  5 31  1  0
  6 32  1  0
  6 33  1  0
  8 34  1  0
 11 35  1  1
 12 36  1  0
 12 37  1  0
 13 38  1  1
 14 39  1  0
 14 40  1  0
 14 41  1  0
 15 42  1  0
 15 43  1  0
 16 44  1  0
 16 45  1  0
 17 46  1  6
 18 47  1  0
 19 48  1  0
 19 49  1  0
 19 50  1  0
 20 51  1  0
 20 52  1  0
 20 53  1  0
M  END
$$$$
