@<TRIPOS>MOLECULE
*****
 53 53 0 0 0
SMALL
GASTEIGER

@<TRIPOS>ATOM
      1 C           5.6875   -1.3831    1.6062 C.3     1  UNL1       -0.0653
      2 C           5.1591   -2.2930    0.5546 C.3     1  UNL1       -0.0559
      3 C           4.6742   -1.6969   -0.7130 C.3     1  UNL1       -0.0533
      4 C           3.5030   -0.7888   -0.7013 C.3     1  UNL1       -0.0525
      5 C           3.7069    0.4208    0.1153 C.3     1  UNL1       -0.0421
      6 C           2.4799    1.3660    0.0627 C.3     1  UNL1        0.0496
      7 P           1.0419    0.5349    0.6807 P.3     1  UNL1        0.3306
      8 O           1.4873   -0.7629    1.6669 O.3     1  UNL1       -0.3239
      9 O           0.3535    1.5309    1.6329 O.2     1  UNL1       -0.2586
     10 O          -0.0991    0.0846   -0.3846 O.3     1  UNL1       -0.3044
     11 C          -1.3783    0.5148   -0.3150 C.3     1  UNL1        0.0712
     12 C          -1.6839    1.5929   -1.3827 C.3     1  UNL1       -0.0232
     13 C          -2.9389    2.2630   -0.8695 C.3     1  UNL1       -0.0415
     14 C          -3.1780    3.6026   -1.4913 C.3     1  UNL1       -0.0623
     15 C          -4.0586    1.3074   -1.0711 C.3     1  UNL1       -0.0500
     16 C          -3.6705   -0.1294   -1.1051 C.3     1  UNL1       -0.0474
     17 C          -2.4620   -0.4960   -0.3006 C.3     1  UNL1       -0.0119
     18 C          -2.9887   -0.7035    1.1013 C.3     1  UNL1       -0.0415
     19 C          -4.1028   -1.7318    1.1081 C.3     1  UNL1       -0.0623
     20 C          -1.9437   -1.1180    2.1023 C.3     1  UNL1       -0.0623
     21 H           5.0204   -1.2832    2.4941 H       1  UNL1        0.0230
     22 H           6.0125   -0.4352    1.1708 H       1  UNL1        0.0230
     23 H           6.6612   -1.8520    2.0030 H       1  UNL1        0.0230
     24 H           4.3617   -2.9749    0.9956 H       1  UNL1        0.0263
     25 H           5.9843   -3.0385    0.3033 H       1  UNL1        0.0263
     26 H           4.4656   -2.5321   -1.4473 H       1  UNL1        0.0265
     27 H           5.5330   -1.0731   -1.1368 H       1  UNL1        0.0265
     28 H           3.2870   -0.5600   -1.7831 H       1  UNL1        0.0265
     29 H           2.6394   -1.4257   -0.3135 H       1  UNL1        0.0265
     30 H           3.7625    0.0987    1.1874 H       1  UNL1        0.0271
     31 H           4.6204    0.9357   -0.1726 H       1  UNL1        0.0271
     32 H           2.7967    2.2040    0.7173 H       1  UNL1        0.0387
     33 H           2.3743    1.6312   -0.9883 H       1  UNL1        0.0387
     34 H           1.0578   -1.6068    1.4662 H       1  UNL1        0.2198
     35 H          -1.4566    1.0951    0.6294 H       1  UNL1        0.0604
     36 H          -0.8232    2.2597   -1.4977 H       1  UNL1        0.0293
     37 H          -1.9915    1.1085   -2.3266 H       1  UNL1        0.0293
     38 H          -2.7908    2.4299    0.2379 H       1  UNL1        0.0299
     39 H          -4.2524    3.8396   -1.3772 H       1  UNL1        0.0232
     40 H          -2.8366    3.6922   -2.5402 H       1  UNL1        0.0232
     41 H          -2.6159    4.3594   -0.9021 H       1  UNL1        0.0232
     42 H          -4.6327    1.5786   -1.9796 H       1  UNL1        0.0268
     43 H          -4.7740    1.4726   -0.2171 H       1  UNL1        0.0268
     44 H          -4.5716   -0.7049   -0.8072 H       1  UNL1        0.0269
     45 H          -3.4728   -0.3973   -2.1632 H       1  UNL1        0.0269
     46 H          -2.0420   -1.4549   -0.6992 H       1  UNL1        0.0328
     47 H          -3.4224    0.2552    1.4453 H       1  UNL1        0.0299
     48 H          -5.1024   -1.2098    1.1144 H       1  UNL1        0.0232
     49 H          -4.0641   -2.4346    0.2592 H       1  UNL1        0.0232
     50 H          -4.0476   -2.2918    2.0629 H       1  UNL1        0.0232
     51 H          -1.2896   -1.9100    1.7384 H       1  UNL1        0.0232
     52 H          -2.5294   -1.6152    2.9343 H       1  UNL1        0.0232
     53 H          -1.4499   -0.2747    2.6210 H       1  UNL1        0.0232
@<TRIPOS>BOND
     1     1     2    1
     2     2     3    1
     3     3     4    1
     4     4     5    1
     5     5     6    1
     6     6     7    1
     7     7     8    1
     8     7     9    2
     9     7    10    1
    10    10    11    1
    11    11    12    1
    12    12    13    1
    13    13    14    1
    14    13    15    1
    15    15    16    1
    16    16    17    1
    17    17    18    1
    18    18    19    1
    19    18    20    1
    20    17    11    1
    21     1    21    1
    22     1    22    1
    23     1    23    1
    24     2    24    1
    25     2    25    1
    26     3    26    1
    27     3    27    1
    28     4    28    1
    29     4    29    1
    30     5    30    1
    31     5    31    1
    32     6    32    1
    33     6    33    1
    34     8    34    1
    35    11    35    1
    36    12    36    1
    37    12    37    1
    38    13    38    1
    39    14    39    1
    40    14    40    1
    41    14    41    1
    42    15    42    1
    43    15    43    1
    44    16    44    1
    45    16    45    1
    46    17    46    1
    47    18    47    1
    48    19    48    1
    49    19    49    1
    50    19    50    1
    51    20    51    1
    52    20    52    1
    53    20    53    1
