@<TRIPOS>MOLECULE
*****
 51 56 0 0 0
SMALL
GASTEIGER

@<TRIPOS>ATOM
      1 C           4.6282    1.3713    1.2632 C.3     1  UNL1       -0.0360
      2 C           3.7179    0.7222    0.3052 C.ar    1  UNL1       -0.0012
      3 C           2.3745    0.5286    0.6205 C.ar    1  UNL1       -0.0131
      4 C           1.5961   -0.0805   -0.3216 C.ar    1  UNL1        0.1499
      5 N           0.2020   -0.3058   -0.0638 N.am    1  UNL1       -0.2374
      6 C          -0.2129   -1.4850    0.5865 C.2     1  UNL1        0.2564
      7 O           0.4999   -2.4433    1.0376 O.2     1  UNL1       -0.2694
      8 C          -1.6544   -1.4226    0.6598 C.ar    1  UNL1        0.0834
      9 C          -2.7717   -2.1375    1.1093 C.ar    1  UNL1        0.0785
     10 C          -2.7348   -3.4463    1.7907 C.3     1  UNL1        0.0039
     11 C          -2.7930   -4.7068    0.9732 C.3     1  UNL1       -0.0441
     12 C          -3.9223   -4.3217    1.8423 C.3     1  UNL1       -0.0441
     13 N          -3.8014   -1.3651    0.7757 N.ar    1  UNL1       -0.1751
     14 N          -3.4545   -0.2646    0.1772 N.ar    1  UNL1       -0.2682
     15 C          -4.3012    0.7897   -0.3163 C.3     1  UNL1        0.0306
     16 C          -2.0973   -0.2659    0.0860 C.ar    1  UNL1        0.0765
     17 C          -0.9322    0.4859   -0.3782 C.3     1  UNL1        0.1002
     18 C          -0.8998    1.8717    0.1182 C.ar    1  UNL1       -0.0207
     19 C          -0.5390    2.1454    1.4162 C.ar    1  UNL1       -0.0550
     20 C          -0.5068    3.4391    1.8932 C.ar    1  UNL1       -0.0431
     21 C          -0.8453    4.4862    1.0466 C.ar    1  UNL1        0.0410
     22 CL         -0.8057    6.1343    1.6495 Cl      1  UNL1       -0.0835
     23 C          -1.2027    4.1993   -0.2439 C.ar    1  UNL1       -0.0431
     24 C          -1.2328    2.9017   -0.7148 C.ar    1  UNL1       -0.0550
     25 N           2.1370   -0.4720   -1.5104 N.ar    1  UNL1       -0.1478
     26 N           3.4062   -0.2970   -1.8260 N.ar    1  UNL1       -0.1953
     27 C           4.1699   -0.5808   -2.8961 C.ar    1  UNL1        0.1521
     28 C           3.6866   -1.2391   -4.1146 C.3     1  UNL1       -0.0027
     29 N           5.4433   -0.1634   -2.6657 N.ar    1  UNL1       -0.1325
     30 N           5.4412    0.3701   -1.4575 N.ar    1  UNL1       -0.1277
     31 C           4.1909    0.2984   -0.9190 C.ar    1  UNL1        0.1809
     32 H           5.4724    1.8952    0.7409 H       1  UNL1        0.0279
     33 H           5.0955    0.5917    1.8886 H       1  UNL1        0.0279
     34 H           4.0658    2.1227    1.8667 H       1  UNL1        0.0279
     35 H           2.0179    0.8627    1.5867 H       1  UNL1        0.0656
     36 H          -2.0453   -3.5241    2.6653 H       1  UNL1        0.0365
     37 H          -2.8623   -4.5592   -0.1345 H       1  UNL1        0.0272
     38 H          -2.1291   -5.5651    1.2304 H       1  UNL1        0.0272
     39 H          -4.8662   -3.9769    1.3940 H       1  UNL1        0.0272
     40 H          -4.0688   -4.9815    2.7435 H       1  UNL1        0.0272
     41 H          -5.3696    0.5077   -0.1641 H       1  UNL1        0.0473
     42 H          -4.1537    1.7478    0.1958 H       1  UNL1        0.0473
     43 H          -4.1961    0.8865   -1.4367 H       1  UNL1        0.0473
     44 H          -0.9379    0.5557   -1.5180 H       1  UNL1        0.0620
     45 H          -0.2620    1.3712    2.1335 H       1  UNL1        0.0621
     46 H          -0.2304    3.7023    2.9031 H       1  UNL1        0.0632
     47 H          -1.4645    5.0290   -0.8933 H       1  UNL1        0.0632
     48 H          -1.5299    2.7621   -1.7596 H       1  UNL1        0.0621
     49 H           2.9056   -2.0048   -3.9228 H       1  UNL1        0.0309
     50 H           4.5282   -1.7022   -4.6686 H       1  UNL1        0.0309
     51 H           3.2441   -0.4670   -4.7743 H       1  UNL1        0.0309
@<TRIPOS>BOND
     1     1     2    1
     2     2     3   ar
     3     3     4   ar
     4     4     5    1
     5     5     6   am
     6     6     7    2
     7     6     8    1
     8     8     9   ar
     9     9    10    1
    10    10    11    1
    11    11    12    1
    12     9    13   ar
    13    13    14   ar
    14    14    15    1
    15    14    16   ar
    16    16    17    1
    17    17    18    1
    18    18    19   ar
    19    19    20   ar
    20    20    21   ar
    21    21    22    1
    22    21    23   ar
    23    23    24   ar
    24     4    25   ar
    25    25    26   ar
    26    26    27   ar
    27    27    28    1
    28    27    29   ar
    29    29    30   ar
    30    30    31   ar
    31    31     2   ar
    32    17     5    1
    33    24    18   ar
    34    31    26   ar
    35    16     8   ar
    36    12    10    1
    37     1    32    1
    38     1    33    1
    39     1    34    1
    40     3    35    1
    41    10    36    1
    42    11    37    1
    43    11    38    1
    44    12    39    1
    45    12    40    1
    46    15    41    1
    47    15    42    1
    48    15    43    1
    49    17    44    1
    50    19    45    1
    51    20    46    1
    52    23    47    1
    53    24    48    1
    54    28    49    1
    55    28    50    1
    56    28    51    1
