
     RDKit          3D

 51 56  0  0  0  0  0  0  0  0999 V2000
    4.6282    1.3713    1.2632 C   0  0  0  0  0  0  0  0  0  0  0  0
    3.7179    0.7222    0.3052 C   0  0  0  0  0  0  0  0  0  0  0  0
    2.3745    0.5286    0.6205 C   0  0  0  0  0  0  0  0  0  0  0  0
    1.5961   -0.0805   -0.3216 C   0  0  0  0  0  0  0  0  0  0  0  0
    0.2020   -0.3058   -0.0638 N   0  0  0  0  0  0  0  0  0  0  0  0
   -0.2129   -1.4850    0.5865 C   0  0  0  0  0  0  0  0  0  0  0  0
    0.4999   -2.4433    1.0376 O   0  0  0  0  0  0  0  0  0  0  0  0
   -1.6544   -1.4226    0.6598 C   0  0  0  0  0  0  0  0  0  0  0  0
   -2.7717   -2.1375    1.1093 C   0  0  0  0  0  0  0  0  0  0  0  0
   -2.7348   -3.4463    1.7907 C   0  0  0  0  0  0  0  0  0  0  0  0
   -2.7930   -4.7068    0.9732 C   0  0  0  0  0  0  0  0  0  0  0  0
   -3.9223   -4.3217    1.8423 C   0  0  0  0  0  0  0  0  0  0  0  0
   -3.8014   -1.3651    0.7757 N   0  0  0  0  0  0  0  0  0  0  0  0
   -3.4545   -0.2646    0.1772 N   0  0  0  0  0  0  0  0  0  0  0  0
   -4.3012    0.7897   -0.3163 C   0  0  0  0  0  0  0  0  0  0  0  0
   -2.0973   -0.2659    0.0860 C   0  0  0  0  0  0  0  0  0  0  0  0
   -0.9322    0.4859   -0.3782 C   0  0  1  0  0  0  0  0  0  0  0  0
   -0.8998    1.8717    0.1182 C   0  0  0  0  0  0  0  0  0  0  0  0
   -0.5390    2.1454    1.4162 C   0  0  0  0  0  0  0  0  0  0  0  0
   -0.5068    3.4391    1.8932 C   0  0  0  0  0  0  0  0  0  0  0  0
   -0.8453    4.4862    1.0466 C   0  0  0  0  0  0  0  0  0  0  0  0
   -0.8057    6.1343    1.6495 Cl  0  0  0  0  0  0  0  0  0  0  0  0
   -1.2027    4.1993   -0.2439 C   0  0  0  0  0  0  0  0  0  0  0  0
   -1.2328    2.9017   -0.7148 C   0  0  0  0  0  0  0  0  0  0  0  0
    2.1370   -0.4720   -1.5104 N   0  0  0  0  0  0  0  0  0  0  0  0
    3.4062   -0.2970   -1.8260 N   0  0  0  0  0  0  0  0  0  0  0  0
    4.1699   -0.5808   -2.8961 C   0  0  0  0  0  0  0  0  0  0  0  0
    3.6866   -1.2391   -4.1146 C   0  0  0  0  0  0  0  0  0  0  0  0
    5.4433   -0.1634   -2.6657 N   0  0  0  0  0  0  0  0  0  0  0  0
    5.4412    0.3701   -1.4575 N   0  0  0  0  0  0  0  0  0  0  0  0
    4.1909    0.2984   -0.9190 C   0  0  0  0  0  0  0  0  0  0  0  0
    5.4724    1.8952    0.7409 H   0  0  0  0  0  0  0  0  0  0  0  0
    5.0955    0.5917    1.8886 H   0  0  0  0  0  0  0  0  0  0  0  0
    4.0658    2.1227    1.8667 H   0  0  0  0  0  0  0  0  0  0  0  0
    2.0179    0.8627    1.5867 H   0  0  0  0  0  0  0  0  0  0  0  0
   -2.0453   -3.5241    2.6653 H   0  0  0  0  0  0  0  0  0  0  0  0
   -2.8623   -4.5592   -0.1345 H   0  0  0  0  0  0  0  0  0  0  0  0
   -2.1291   -5.5651    1.2304 H   0  0  0  0  0  0  0  0  0  0  0  0
   -4.8662   -3.9769    1.3940 H   0  0  0  0  0  0  0  0  0  0  0  0
   -4.0688   -4.9815    2.7435 H   0  0  0  0  0  0  0  0  0  0  0  0
   -5.3696    0.5077   -0.1641 H   0  0  0  0  0  0  0  0  0  0  0  0
   -4.1537    1.7478    0.1958 H   0  0  0  0  0  0  0  0  0  0  0  0
   -4.1961    0.8865   -1.4367 H   0  0  0  0  0  0  0  0  0  0  0  0
   -0.9379    0.5557   -1.5180 H   0  0  0  0  0  0  0  0  0  0  0  0
   -0.2620    1.3712    2.1335 H   0  0  0  0  0  0  0  0  0  0  0  0
   -0.2304    3.7023    2.9031 H   0  0  0  0  0  0  0  0  0  0  0  0
   -1.4645    5.0290   -0.8933 H   0  0  0  0  0  0  0  0  0  0  0  0
   -1.5299    2.7621   -1.7596 H   0  0  0  0  0  0  0  0  0  0  0  0
    2.9056   -2.0048   -3.9228 H   0  0  0  0  0  0  0  0  0  0  0  0
    4.5282   -1.7022   -4.6686 H   0  0  0  0  0  0  0  0  0  0  0  0
    3.2441   -0.4670   -4.7743 H   0  0  0  0  0  0  0  0  0  0  0  0
  1  2  1  0
  2  3  2  0
  3  4  1  0
  4  5  1  0
  5  6  1  0
  6  7  2  0
  6  8  1  0
  8  9  1  0
  9 10  1  0
 10 11  1  0
 11 12  1  0
  9 13  2  0
 13 14  1  0
 14 15  1  0
 14 16  1  0
 16 17  1  0
 17 18  1  0
 18 19  2  0
 19 20  1  0
 20 21  2  0
 21 22  1  0
 21 23  1  0
 23 24  2  0
  4 25  2  0
 25 26  1  0
 26 27  1  0
 27 28  1  0
 27 29  2  0
 29 30  1  0
 30 31  2  0
 31  2  1  0
 17  5  1  0
 24 18  1  0
 31 26  1  0
 16  8  2  0
 12 10  1  0
  1 32  1  0
  1 33  1  0
  1 34  1  0
  3 35  1  0
 10 36  1  0
 11 37  1  0
 11 38  1  0
 12 39  1  0
 12 40  1  0
 15 41  1  0
 15 42  1  0
 15 43  1  0
 17 44  1  6
 19 45  1  0
 20 46  1  0
 23 47  1  0
 24 48  1  0
 28 49  1  0
 28 50  1  0
 28 51  1  0
M  END
$$$$
