@<TRIPOS>MOLECULE
*****
 31 34 0 0 0
SMALL
GASTEIGER

@<TRIPOS>ATOM
      1 O           1.1313    3.6248   -0.4583 O.2     1  UNL1       -0.2751
      2 C           1.1526    2.3715   -0.5267 C.2     1  UNL1        0.2216
      3 C           0.0091    1.7608   -1.2084 C.3     1  UNL1        0.0520
      4 C          -0.5829    0.5942   -0.5095 C.ar    1  UNL1       -0.0056
      5 C           0.1020   -0.4148    0.1646 C.ar    1  UNL1        0.0529
      6 N          -0.8033   -1.2506    0.6405 N.ar    1  UNL1       -0.3539
      7 C          -2.0578   -0.8291    0.3042 C.ar    1  UNL1        0.0473
      8 C          -3.3250   -1.3065    0.5337 C.ar    1  UNL1       -0.0367
      9 C          -4.4603   -0.6529    0.0580 C.ar    1  UNL1       -0.0458
     10 C          -4.3336    0.5121   -0.6690 C.ar    1  UNL1        0.0186
     11 BR         -5.9017    1.3922   -1.3118 Br      1  UNL1       -0.0503
     12 C          -3.0606    1.0005   -0.9050 C.ar    1  UNL1       -0.0383
     13 C          -1.9429    0.3465   -0.4300 C.ar    1  UNL1        0.0049
     14 C           1.5314   -0.5909    0.3552 C.ar    1  UNL1        0.0198
     15 C           1.8922   -1.8929    0.5892 C.ar    1  UNL1       -0.0508
     16 C           3.2349   -2.2001    0.7931 C.ar    1  UNL1       -0.0610
     17 C           4.2134   -1.2368    0.7671 C.ar    1  UNL1       -0.0600
     18 C           3.8275    0.0609    0.5304 C.ar    1  UNL1       -0.0398
     19 C           2.5019    0.4137    0.3218 C.ar    1  UNL1        0.0426
     20 N           2.3140    1.7996    0.0890 N.am    1  UNL1       -0.2847
     21 H          -0.7954    2.5156   -1.3251 H       1  UNL1        0.0408
     22 H           0.2916    1.4882   -2.2675 H       1  UNL1        0.0408
     23 H          -0.6330   -2.1004    1.1910 H       1  UNL1        0.1659
     24 H          -3.4278   -2.2052    1.0942 H       1  UNL1        0.0639
     25 H          -5.4567   -1.0584    0.2574 H       1  UNL1        0.0629
     26 H          -2.9311    1.9065   -1.4686 H       1  UNL1        0.0635
     27 H           1.1413   -2.6634    0.6081 H       1  UNL1        0.0625
     28 H           3.4771   -3.2293    0.9732 H       1  UNL1        0.0618
     29 H           5.2566   -1.4414    0.9206 H       1  UNL1        0.0618
     30 H           4.5579    0.8597    0.4991 H       1  UNL1        0.0636
     31 H           3.0769    2.4262    0.3895 H       1  UNL1        0.1548
@<TRIPOS>BOND
     1     1     2    2
     2     2     3    1
     3     3     4    1
     4     4     5   ar
     5     5     6   ar
     6     6     7   ar
     7     7     8   ar
     8     8     9   ar
     9     9    10   ar
    10    10    11    1
    11    10    12   ar
    12    12    13   ar
    13     5    14    1
    14    14    15   ar
    15    15    16   ar
    16    16    17   ar
    17    17    18   ar
    18    18    19   ar
    19    19    20    1
    20    20     2   am
    21    13     4   ar
    22    19    14   ar
    23    13     7   ar
    24     3    21    1
    25     3    22    1
    26     6    23    1
    27     8    24    1
    28     9    25    1
    29    12    26    1
    30    15    27    1
    31    16    28    1
    32    17    29    1
    33    18    30    1
    34    20    31    1
