@<TRIPOS>MOLECULE
*****
 44 46 0 0 0
SMALL
GASTEIGER

@<TRIPOS>ATOM
      1 C          -7.5495    0.9710    0.0297 C.3     1  UNL1       -0.0569
      2 C          -6.2128    0.4892   -0.4213 C.3     1  UNL1        0.0226
      3 C          -5.1406    0.8305    0.5517 C.2     1  UNL1        0.2317
      4 O          -5.4323    1.4176    1.6206 O.2     1  UNL1       -0.2743
      5 N          -3.7899    0.4929    0.2733 N.am    1  UNL1       -0.1855
      6 S          -2.4444    0.8264    1.3211 S.O2    1  UNL1        0.0744
      7 O          -2.3808    2.2812    1.6229 O.2     1  UNL1       -0.1499
      8 O          -2.6550    0.1000    2.6402 O.2     1  UNL1       -0.1499
      9 C          -0.9953    0.2711    0.5201 C.ar    1  UNL1        0.1086
     10 C          -0.5190   -1.0182    0.5375 C.ar    1  UNL1       -0.0345
     11 C           0.6312   -1.4443   -0.0970 C.ar    1  UNL1       -0.0520
     12 C           1.3145   -0.4380   -0.7922 C.ar    1  UNL1       -0.0123
     13 C           0.8824    0.8924   -0.8488 C.ar    1  UNL1       -0.0520
     14 C          -0.2851    1.2437   -0.1835 C.ar    1  UNL1       -0.0345
     15 C           2.5354   -0.8975   -1.4758 C.ar    1  UNL1        0.0516
     16 C           2.4853   -1.5003   -2.7426 C.ar    1  UNL1        0.1425
     17 C           1.2180   -1.7421   -3.5225 C.3     1  UNL1       -0.0031
     18 O           3.7184   -1.7985   -3.0955 O.2     1  UNL1       -0.3587
     19 N           4.5673   -1.4456   -2.1765 N.ar    1  UNL1       -0.0774
     20 C           3.9021   -0.8943   -1.1721 C.ar    1  UNL1        0.1213
     21 C           4.2901   -0.3134    0.1172 C.ar    1  UNL1        0.0043
     22 C           5.1272    0.7849    0.1006 C.ar    1  UNL1       -0.0524
     23 C           5.5161    1.3619    1.3062 C.ar    1  UNL1       -0.0611
     24 C           5.0388    0.8000    2.4828 C.ar    1  UNL1       -0.0617
     25 C           4.1912   -0.3127    2.5017 C.ar    1  UNL1       -0.0611
     26 C           3.8135   -0.8756    1.2775 C.ar    1  UNL1       -0.0524
     27 H          -8.0006    1.5933   -0.7764 H       1  UNL1        0.0234
     28 H          -7.5452    1.5398    0.9593 H       1  UNL1        0.0234
     29 H          -8.1985    0.0752    0.2348 H       1  UNL1        0.0234
     30 H          -5.9702    0.8854   -1.4069 H       1  UNL1        0.0356
     31 H          -6.1724   -0.6300   -0.5170 H       1  UNL1        0.0356
     32 H          -3.6328    0.0073   -0.6398 H       1  UNL1        0.1765
     33 H          -1.1309   -1.7358    1.1105 H       1  UNL1        0.0637
     34 H           0.9802   -2.4479   -0.0691 H       1  UNL1        0.0624
     35 H           1.5252    1.5383   -1.4272 H       1  UNL1        0.0624
     36 H          -0.5608    2.2801   -0.2661 H       1  UNL1        0.0637
     37 H           1.5316   -2.2579   -4.4525 H       1  UNL1        0.0309
     38 H           0.7584   -0.8018   -3.8396 H       1  UNL1        0.0309
     39 H           0.5370   -2.4200   -2.9862 H       1  UNL1        0.0309
     40 H           5.4695    1.1829   -0.8521 H       1  UNL1        0.0624
     41 H           6.1732    2.2236    1.2968 H       1  UNL1        0.0618
     42 H           5.3796    1.2991    3.3777 H       1  UNL1        0.0618
     43 H           3.8776   -0.6708    3.4748 H       1  UNL1        0.0618
     44 H           3.1521   -1.7430    1.3096 H       1  UNL1        0.0624
@<TRIPOS>BOND
     1     1     2    1
     2     2     3    1
     3     3     4    2
     4     3     5   am
     5     5     6    1
     6     6     7    2
     7     6     8    2
     8     6     9    1
     9     9    10   ar
    10    10    11   ar
    11    11    12   ar
    12    12    13   ar
    13    13    14   ar
    14    12    15    1
    15    15    16   ar
    16    16    17    1
    17    16    18   ar
    18    18    19   ar
    19    19    20   ar
    20    20    21    1
    21    21    22   ar
    22    22    23   ar
    23    23    24   ar
    24    24    25   ar
    25    25    26   ar
    26    14     9   ar
    27    20    15   ar
    28    26    21   ar
    29     1    27    1
    30     1    28    1
    31     1    29    1
    32     2    30    1
    33     2    31    1
    34     5    32    1
    35    10    33    1
    36    11    34    1
    37    13    35    1
    38    14    36    1
    39    17    37    1
    40    17    38    1
    41    17    39    1
    42    22    40    1
    43    23    41    1
    44    24    42    1
    45    25    43    1
    46    26    44    1
