@<TRIPOS>MOLECULE
*****
 43 48 0 0 0
SMALL
GASTEIGER

@<TRIPOS>ATOM
      1 O          -3.7623    0.6150   -0.9212 O.2     1  UNL1       -0.2863
      2 C          -2.8368   -0.0565   -0.4383 C.ar    1  UNL1        0.2023
      3 C          -2.8211   -1.4488   -0.6103 C.ar    1  UNL1        0.0646
      4 C          -3.8570   -2.0361   -1.3252 C.ar    1  UNL1       -0.0474
      5 C          -3.8883   -3.3992   -1.5221 C.ar    1  UNL1       -0.0609
      6 C          -2.8859   -4.1771   -1.0063 C.ar    1  UNL1       -0.0582
      7 C          -1.8466   -3.6106   -0.2918 C.ar    1  UNL1       -0.0186
      8 C          -1.8250   -2.2426   -0.0998 C.ar    1  UNL1        0.1393
      9 O          -0.8723   -1.6415    0.5663 O.2     1  UNL1       -0.4528
     10 C          -0.8322   -0.3367    0.7618 C.ar    1  UNL1        0.1607
     11 C           0.0755    0.4650    1.4267 C.ar    1  UNL1        0.0644
     12 C           1.3016   -0.0536    2.1054 C.3     1  UNL1        0.0164
     13 C           2.3717   -0.3631    1.1435 C.ar    1  UNL1       -0.0378
     14 C           2.4620   -1.5884    0.5361 C.ar    1  UNL1       -0.0545
     15 C           3.4824   -1.8710   -0.3751 C.ar    1  UNL1       -0.0159
     16 C           4.4289   -0.9413   -0.6966 C.ar    1  UNL1        0.1662
     17 C           4.3460    0.3076   -0.0840 C.ar    1  UNL1        0.1665
     18 C           3.3331    0.5781    0.8157 C.ar    1  UNL1       -0.0126
     19 O           5.3902    1.1132   -0.5330 O.3     1  UNL1       -0.4526
     20 C           6.3225    0.2430   -1.1849 C.3     1  UNL1        0.2332
     21 O           5.5421   -0.8954   -1.5344 O.3     1  UNL1       -0.4526
     22 N          -0.3558    1.7205    1.3255 N.ar    1  UNL1       -0.3525
     23 C          -1.5218    1.7807    0.6134 C.ar    1  UNL1        0.0866
     24 C          -2.2161    3.0736    0.3522 C.ar    1  UNL1        0.1251
     25 N          -2.0214    4.2295    0.6228 N.ar    1  UNL1       -0.2458
     26 C          -2.7590    5.2565    0.2991 C.ar    1  UNL1        0.0355
     27 C          -3.8958    4.9939   -0.4387 C.ar    1  UNL1       -0.0042
     28 S          -3.7839    3.1846   -0.6042 S.2     1  UNL1       -0.0742
     29 C          -1.8215    0.5171    0.2629 C.ar    1  UNL1        0.0921
     30 H          -4.6378   -1.4165   -1.7244 H       1  UNL1        0.0626
     31 H          -4.6910   -3.8754   -2.0784 H       1  UNL1        0.0618
     32 H          -2.8673   -5.2687   -1.1370 H       1  UNL1        0.0619
     33 H          -1.0725   -4.2207    0.1067 H       1  UNL1        0.0654
     34 H           1.6846    0.7195    2.8317 H       1  UNL1        0.0377
     35 H           1.0381   -0.9366    2.7512 H       1  UNL1        0.0377
     36 H           1.7618   -2.3848    0.7290 H       1  UNL1        0.0622
     37 H           3.5183   -2.8376   -0.8263 H       1  UNL1        0.0655
     38 H           3.2845    1.5452    1.2784 H       1  UNL1        0.0658
     39 H           7.1495   -0.0255   -0.4790 H       1  UNL1        0.1166
     40 H           6.7118    0.7707   -2.0594 H       1  UNL1        0.1166
     41 H           0.0942    2.5718    1.7153 H       1  UNL1        0.1658
     42 H          -2.5713    6.3360    0.5566 H       1  UNL1        0.0835
     43 H          -4.6563    5.6059   -0.8298 H       1  UNL1        0.0709
@<TRIPOS>BOND
     1     1     2    2
     2     2     3   ar
     3     3     4   ar
     4     4     5   ar
     5     5     6   ar
     6     6     7   ar
     7     7     8   ar
     8     8     9   ar
     9     9    10   ar
    10    10    11   ar
    11    11    12    1
    12    12    13    1
    13    13    14   ar
    14    14    15   ar
    15    15    16   ar
    16    16    17   ar
    17    17    18   ar
    18    17    19    1
    19    19    20    1
    20    20    21    1
    21    11    22   ar
    22    22    23   ar
    23    23    24    1
    24    24    25   ar
    25    25    26   ar
    26    26    27   ar
    27    27    28   ar
    28    23    29   ar
    29    29     2   ar
    30     8     3   ar
    31    29    10   ar
    32    18    13   ar
    33    28    24   ar
    34    21    16    1
    35     4    30    1
    36     5    31    1
    37     6    32    1
    38     7    33    1
    39    12    34    1
    40    12    35    1
    41    14    36    1
    42    15    37    1
    43    18    38    1
    44    20    39    1
    45    20    40    1
    46    22    41    1
    47    26    42    1
    48    27    43    1
