
     RDKit          3D

 43 48  0  0  0  0  0  0  0  0999 V2000
   -3.7623    0.6150   -0.9212 O   0  0  0  0  0  0  0  0  0  0  0  0
   -2.8368   -0.0565   -0.4383 C   0  0  0  0  0  0  0  0  0  0  0  0
   -2.8211   -1.4488   -0.6103 C   0  0  0  0  0  0  0  0  0  0  0  0
   -3.8570   -2.0361   -1.3252 C   0  0  0  0  0  0  0  0  0  0  0  0
   -3.8883   -3.3992   -1.5221 C   0  0  0  0  0  0  0  0  0  0  0  0
   -2.8859   -4.1771   -1.0063 C   0  0  0  0  0  0  0  0  0  0  0  0
   -1.8466   -3.6106   -0.2918 C   0  0  0  0  0  0  0  0  0  0  0  0
   -1.8250   -2.2426   -0.0998 C   0  0  0  0  0  0  0  0  0  0  0  0
   -0.8723   -1.6415    0.5663 O   0  0  0  0  0  0  0  0  0  0  0  0
   -0.8322   -0.3367    0.7618 C   0  0  0  0  0  0  0  0  0  0  0  0
    0.0755    0.4650    1.4267 C   0  0  0  0  0  0  0  0  0  0  0  0
    1.3016   -0.0536    2.1054 C   0  0  0  0  0  0  0  0  0  0  0  0
    2.3717   -0.3631    1.1435 C   0  0  0  0  0  0  0  0  0  0  0  0
    2.4620   -1.5884    0.5361 C   0  0  0  0  0  0  0  0  0  0  0  0
    3.4824   -1.8710   -0.3751 C   0  0  0  0  0  0  0  0  0  0  0  0
    4.4289   -0.9413   -0.6966 C   0  0  0  0  0  0  0  0  0  0  0  0
    4.3460    0.3076   -0.0840 C   0  0  0  0  0  0  0  0  0  0  0  0
    3.3331    0.5781    0.8157 C   0  0  0  0  0  0  0  0  0  0  0  0
    5.3902    1.1132   -0.5330 O   0  0  0  0  0  0  0  0  0  0  0  0
    6.3225    0.2430   -1.1849 C   0  0  0  0  0  0  0  0  0  0  0  0
    5.5421   -0.8954   -1.5344 O   0  0  0  0  0  0  0  0  0  0  0  0
   -0.3558    1.7205    1.3255 N   0  0  0  0  0  0  0  0  0  0  0  0
   -1.5218    1.7807    0.6134 C   0  0  0  0  0  0  0  0  0  0  0  0
   -2.2161    3.0736    0.3522 C   0  0  0  0  0  0  0  0  0  0  0  0
   -2.0214    4.2295    0.6228 N   0  0  0  0  0  0  0  0  0  0  0  0
   -2.7590    5.2565    0.2991 C   0  0  0  0  0  0  0  0  0  0  0  0
   -3.8958    4.9939   -0.4387 C   0  0  0  0  0  0  0  0  0  0  0  0
   -3.7839    3.1846   -0.6042 S   0  0  0  0  0  0  0  0  0  0  0  0
   -1.8215    0.5171    0.2629 C   0  0  0  0  0  0  0  0  0  0  0  0
   -4.6378   -1.4165   -1.7244 H   0  0  0  0  0  0  0  0  0  0  0  0
   -4.6910   -3.8754   -2.0784 H   0  0  0  0  0  0  0  0  0  0  0  0
   -2.8673   -5.2687   -1.1370 H   0  0  0  0  0  0  0  0  0  0  0  0
   -1.0725   -4.2207    0.1067 H   0  0  0  0  0  0  0  0  0  0  0  0
    1.6846    0.7195    2.8317 H   0  0  0  0  0  0  0  0  0  0  0  0
    1.0381   -0.9366    2.7512 H   0  0  0  0  0  0  0  0  0  0  0  0
    1.7618   -2.3848    0.7290 H   0  0  0  0  0  0  0  0  0  0  0  0
    3.5183   -2.8376   -0.8263 H   0  0  0  0  0  0  0  0  0  0  0  0
    3.2845    1.5452    1.2784 H   0  0  0  0  0  0  0  0  0  0  0  0
    7.1495   -0.0255   -0.4790 H   0  0  0  0  0  0  0  0  0  0  0  0
    6.7118    0.7707   -2.0594 H   0  0  0  0  0  0  0  0  0  0  0  0
    0.0942    2.5718    1.7153 H   0  0  0  0  0  0  0  0  0  0  0  0
   -2.5713    6.3360    0.5566 H   0  0  0  0  0  0  0  0  0  0  0  0
   -4.6563    5.6059   -0.8298 H   0  0  0  0  0  0  0  0  0  0  0  0
  1  2  2  0
  2  3  1  0
  3  4  2  0
  4  5  1  0
  5  6  2  0
  6  7  1  0
  7  8  2  0
  8  9  1  0
  9 10  1  0
 10 11  2  0
 11 12  1  0
 12 13  1  0
 13 14  2  0
 14 15  1  0
 15 16  2  0
 16 17  1  0
 17 18  2  0
 17 19  1  0
 19 20  1  0
 20 21  1  0
 11 22  1  0
 22 23  1  0
 23 24  1  0
 24 25  2  0
 25 26  1  0
 26 27  2  0
 27 28  1  0
 23 29  2  0
 29  2  1  0
  8  3  1  0
 29 10  1  0
 18 13  1  0
 28 24  1  0
 21 16  1  0
  4 30  1  0
  5 31  1  0
  6 32  1  0
  7 33  1  0
 12 34  1  0
 12 35  1  0
 14 36  1  0
 15 37  1  0
 18 38  1  0
 20 39  1  0
 20 40  1  0
 22 41  1  0
 26 42  1  0
 27 43  1  0
M  END
$$$$
