
     RDKit          3D

 52 55  0  0  0  0  0  0  0  0999 V2000
   -6.2693   -1.3673    2.2939 N   0  0  0  0  0  0  0  0  0  0  0  0
   -5.7257   -1.8846    1.2376 C   0  0  0  0  0  0  0  0  0  0  0  0
   -5.6277   -3.2544    1.0288 O   0  0  0  0  0  0  0  0  0  0  0  0
   -5.1057   -3.5506   -0.2460 C   0  0  0  0  0  0  0  0  0  0  0  0
   -4.6979   -2.2104   -0.8231 C   0  0  0  0  0  0  0  0  0  0  0  0
   -5.1455   -1.2163    0.1279 N   0  0  0  0  0  0  0  0  0  0  0  0
   -5.0238    0.1907   -0.0257 C   0  0  0  0  0  0  0  0  0  0  0  0
   -3.6587    0.6942   -0.1643 C   0  0  0  0  0  0  0  0  0  0  0  0
   -2.8522    1.0826    0.8789 C   0  0  0  0  0  0  0  0  0  0  0  0
   -1.5636    1.5503    0.6547 C   0  0  0  0  0  0  0  0  0  0  0  0
   -1.0425    1.6447   -0.6072 C   0  0  0  0  0  0  0  0  0  0  0  0
    0.2945    2.1250   -0.9010 C   0  0  0  0  0  0  0  0  0  0  0  0
    0.6774    2.1744   -2.0946 O   0  0  0  0  0  0  0  0  0  0  0  0
    1.2218    2.5523    0.0805 N   0  0  0  0  0  0  0  0  0  0  0  0
    2.5262    3.0214   -0.2006 C   0  0  0  0  0  0  0  0  0  0  0  0
    2.7835    4.3563   -0.4362 C   0  0  0  0  0  0  0  0  0  0  0  0
    4.0587    4.8192   -0.7115 C   0  0  0  0  0  0  0  0  0  0  0  0
    5.0876    3.9195   -0.7491 C   0  0  0  0  0  0  0  0  0  0  0  0
    6.7282    4.4132   -1.0886 Cl  0  0  0  0  0  0  0  0  0  0  0  0
    4.8577    2.5560   -0.5138 C   0  0  0  0  0  0  0  0  0  0  0  0
    3.5600    2.1316   -0.2403 C   0  0  0  0  0  0  0  0  0  0  0  0
    3.2952    0.7235    0.0088 C   0  0  0  0  0  0  0  0  0  0  0  0
    2.1062    0.3977    0.2542 O   0  0  0  0  0  0  0  0  0  0  0  0
    4.2406   -0.3138    0.0023 N   0  0  0  0  0  0  0  0  0  0  0  0
    4.0644   -1.6829    0.2309 C   0  0  0  0  0  0  0  0  0  0  0  0
    2.8971   -2.3187    0.5175 C   0  0  0  0  0  0  0  0  0  0  0  0
    2.8245   -3.7116    0.7324 C   0  0  0  0  0  0  0  0  0  0  0  0
    3.9676   -4.4696    0.6527 C   0  0  0  0  0  0  0  0  0  0  0  0
    3.9395   -6.2098    0.9108 Cl  0  0  0  0  0  0  0  0  0  0  0  0
    5.1431   -3.8047    0.3605 C   0  0  0  0  0  0  0  0  0  0  0  0
    5.1707   -2.4888    0.1643 N   0  0  0  0  0  0  0  0  0  0  0  0
   -1.8475    1.2566   -1.6535 C   0  0  0  0  0  0  0  0  0  0  0  0
   -3.1267    0.7921   -1.4334 C   0  0  0  0  0  0  0  0  0  0  0  0
   -6.3366   -0.3341    2.4387 H   0  0  0  0  0  0  0  0  0  0  0  0
   -5.8625   -4.0657   -0.8709 H   0  0  0  0  0  0  0  0  0  0  0  0
   -4.2461   -4.2306   -0.1412 H   0  0  0  0  0  0  0  0  0  0  0  0
   -5.2064   -2.1032   -1.8043 H   0  0  0  0  0  0  0  0  0  0  0  0
   -3.5942   -2.1711   -0.9379 H   0  0  0  0  0  0  0  0  0  0  0  0
   -5.6095    0.5286   -0.9287 H   0  0  0  0  0  0  0  0  0  0  0  0
   -5.4992    0.7649    0.8208 H   0  0  0  0  0  0  0  0  0  0  0  0
   -3.2654    1.0074    1.8758 H   0  0  0  0  0  0  0  0  0  0  0  0
   -0.9595    1.8464    1.5012 H   0  0  0  0  0  0  0  0  0  0  0  0
    0.9154    2.5160    1.0770 H   0  0  0  0  0  0  0  0  0  0  0  0
    1.9787    5.0775   -0.4093 H   0  0  0  0  0  0  0  0  0  0  0  0
    4.2831    5.8555   -0.8984 H   0  0  0  0  0  0  0  0  0  0  0  0
    5.6823    1.8767   -0.5499 H   0  0  0  0  0  0  0  0  0  0  0  0
    5.2374    0.0168   -0.2120 H   0  0  0  0  0  0  0  0  0  0  0  0
    1.9889   -1.7362    0.5837 H   0  0  0  0  0  0  0  0  0  0  0  0
    1.8817   -4.1521    0.9532 H   0  0  0  0  0  0  0  0  0  0  0  0
    6.0263   -4.4344    0.3053 H   0  0  0  0  0  0  0  0  0  0  0  0
   -1.4714    1.3149   -2.6858 H   0  0  0  0  0  0  0  0  0  0  0  0
   -3.7009    0.5052   -2.3045 H   0  0  0  0  0  0  0  0  0  0  0  0
  1  2  2  3
  2  3  1  0
  3  4  1  0
  4  5  1  0
  5  6  1  0
  6  7  1  0
  7  8  1  0
  8  9  2  0
  9 10  1  0
 10 11  2  0
 11 12  1  0
 12 13  2  0
 12 14  1  0
 14 15  1  0
 15 16  2  0
 16 17  1  0
 17 18  2  0
 18 19  1  0
 18 20  1  0
 20 21  2  0
 21 22  1  0
 22 23  2  0
 22 24  1  0
 24 25  1  0
 25 26  2  0
 26 27  1  0
 27 28  2  0
 28 29  1  0
 28 30  1  0
 30 31  2  0
 11 32  1  0
 32 33  2  0
  6  2  1  0
 33  8  1  0
 21 15  1  0
 31 25  1  0
  1 34  1  0
  4 35  1  0
  4 36  1  0
  5 37  1  0
  5 38  1  0
  7 39  1  0
  7 40  1  0
  9 41  1  0
 10 42  1  0
 14 43  1  0
 16 44  1  0
 17 45  1  0
 20 46  1  0
 24 47  1  0
 26 48  1  0
 27 49  1  0
 30 50  1  0
 32 51  1  0
 33 52  1  0
M  END
$$$$
