@<TRIPOS>MOLECULE
*****
 52 55 0 0 0
SMALL
GASTEIGER

@<TRIPOS>ATOM
      1 N          -6.2693   -1.3673    2.2939 N.2     1  UNL1       -0.2530
      2 C          -5.7257   -1.8846    1.2376 C.2     1  UNL1        0.2780
      3 O          -5.6277   -3.2544    1.0288 O.2     1  UNL1       -0.4642
      4 C          -5.1057   -3.5506   -0.2460 C.3     1  UNL1        0.1082
      5 C          -4.6979   -2.2104   -0.8231 C.3     1  UNL1        0.0509
      6 N          -5.1455   -1.2163    0.1279 N.pl3   1  UNL1       -0.2783
      7 C          -5.0238    0.1907   -0.0257 C.3     1  UNL1        0.0414
      8 C          -3.6587    0.6942   -0.1643 C.ar    1  UNL1       -0.0300
      9 C          -2.8522    1.0826    0.8789 C.ar    1  UNL1       -0.0564
     10 C          -1.5636    1.5503    0.6547 C.ar    1  UNL1       -0.0493
     11 C          -1.0425    1.6447   -0.6072 C.ar    1  UNL1        0.0370
     12 C           0.2945    2.1250   -0.9010 C.2     1  UNL1        0.2483
     13 O           0.6774    2.1744   -2.0946 O.2     1  UNL1       -0.2699
     14 N           1.2218    2.5523    0.0805 N.am    1  UNL1       -0.2808
     15 C           2.5262    3.0214   -0.2006 C.ar    1  UNL1        0.0459
     16 C           2.7835    4.3563   -0.4362 C.ar    1  UNL1       -0.0384
     17 C           4.0587    4.8192   -0.7115 C.ar    1  UNL1       -0.0416
     18 C           5.0876    3.9195   -0.7491 C.ar    1  UNL1        0.0418
     19 CL          6.7282    4.4132   -1.0886 Cl      1  UNL1       -0.0835
     20 C           4.8577    2.5560   -0.5138 C.ar    1  UNL1       -0.0295
     21 C           3.5600    2.1316   -0.2403 C.ar    1  UNL1        0.0596
     22 C           3.2952    0.7235    0.0088 C.2     1  UNL1        0.2511
     23 O           2.1062    0.3977    0.2542 O.2     1  UNL1       -0.2697
     24 N           4.2406   -0.3138    0.0023 N.am    1  UNL1       -0.2663
     25 C           4.0644   -1.6829    0.2309 C.ar    1  UNL1        0.1252
     26 C           2.8971   -2.3187    0.5175 C.ar    1  UNL1       -0.0201
     27 C           2.8245   -3.7116    0.7324 C.ar    1  UNL1       -0.0387
     28 C           3.9676   -4.4696    0.6527 C.ar    1  UNL1        0.0592
     29 CL          3.9395   -6.2098    0.9108 Cl      1  UNL1       -0.0820
     30 C           5.1431   -3.8047    0.3605 C.ar    1  UNL1        0.0480
     31 N           5.1707   -2.4888    0.1643 N.ar    1  UNL1       -0.2387
     32 C          -1.8475    1.2566   -1.6535 C.ar    1  UNL1       -0.0493
     33 C          -3.1267    0.7921   -1.4334 C.ar    1  UNL1       -0.0564
     34 H          -6.3366   -0.3341    2.4387 H       1  UNL1        0.1912
     35 H          -5.8625   -4.0657   -0.8709 H       1  UNL1        0.0713
     36 H          -4.2461   -4.2306   -0.1412 H       1  UNL1        0.0713
     37 H          -5.2064   -2.1032   -1.8043 H       1  UNL1        0.0499
     38 H          -3.5942   -2.1711   -0.9379 H       1  UNL1        0.0499
     39 H          -5.6095    0.5286   -0.9287 H       1  UNL1        0.0514
     40 H          -5.4992    0.7649    0.8208 H       1  UNL1        0.0514
     41 H          -3.2654    1.0074    1.8758 H       1  UNL1        0.0621
     42 H          -0.9595    1.8464    1.5012 H       1  UNL1        0.0625
     43 H           0.9154    2.5160    1.0770 H       1  UNL1        0.1552
     44 H           1.9787    5.0775   -0.4093 H       1  UNL1        0.0637
     45 H           4.2831    5.8555   -0.8984 H       1  UNL1        0.0633
     46 H           5.6823    1.8767   -0.5499 H       1  UNL1        0.0640
     47 H           5.2374    0.0168   -0.2120 H       1  UNL1        0.1566
     48 H           1.9889   -1.7362    0.5837 H       1  UNL1        0.0652
     49 H           1.8817   -4.1521    0.9532 H       1  UNL1        0.0634
     50 H           6.0263   -4.4344    0.3053 H       1  UNL1        0.0845
     51 H          -1.4714    1.3149   -2.6858 H       1  UNL1        0.0625
     52 H          -3.7009    0.5052   -2.3045 H       1  UNL1        0.0621
@<TRIPOS>BOND
     1     1     2    2
     2     2     3    1
     3     3     4    1
     4     4     5    1
     5     5     6    1
     6     6     7    1
     7     7     8    1
     8     8     9   ar
     9     9    10   ar
    10    10    11   ar
    11    11    12    1
    12    12    13    2
    13    12    14   am
    14    14    15    1
    15    15    16   ar
    16    16    17   ar
    17    17    18   ar
    18    18    19    1
    19    18    20   ar
    20    20    21   ar
    21    21    22    1
    22    22    23    2
    23    22    24   am
    24    24    25    1
    25    25    26   ar
    26    26    27   ar
    27    27    28   ar
    28    28    29    1
    29    28    30   ar
    30    30    31   ar
    31    11    32   ar
    32    32    33   ar
    33     6     2    1
    34    33     8   ar
    35    21    15   ar
    36    31    25   ar
    37     1    34    1
    38     4    35    1
    39     4    36    1
    40     5    37    1
    41     5    38    1
    42     7    39    1
    43     7    40    1
    44     9    41    1
    45    10    42    1
    46    14    43    1
    47    16    44    1
    48    17    45    1
    49    20    46    1
    50    24    47    1
    51    26    48    1
    52    27    49    1
    53    30    50    1
    54    32    51    1
    55    33    52    1
