
     RDKit          3D

 59 63  0  0  0  0  0  0  0  0999 V2000
    1.9884    5.4263    1.3120 O   0  0  0  0  0  0  0  0  0  0  0  0
    2.7935    4.5623    0.8850 C   0  0  0  0  0  0  0  0  0  0  0  0
    3.9741    5.0413    0.2724 N   0  0  0  0  0  0  0  0  0  0  0  0
    4.9391    4.1458   -0.2382 C   0  0  0  0  0  0  0  0  0  0  0  0
    6.0115    4.5599   -0.7947 O   0  0  0  0  0  0  0  0  0  0  0  0
    4.6761    2.7059   -0.1119 C   0  0  0  0  0  0  0  0  0  0  0  0
    5.6534    1.8808   -0.6286 C   0  0  0  0  0  0  0  0  0  0  0  0
    5.4738    0.5269   -0.5455 C   0  0  0  0  0  0  0  0  0  0  0  0
    4.3487   -0.0100    0.0377 C   0  0  0  0  0  0  0  0  0  0  0  0
    4.1620   -1.4500    0.1239 C   0  0  0  0  0  0  0  0  0  0  0  0
    4.6857   -2.2578   -0.8814 C   0  0  0  0  0  0  0  0  0  0  0  0
    4.5441   -3.6250   -0.8594 C   0  0  0  0  0  0  0  0  0  0  0  0
    3.8640   -4.1988    0.1908 C   0  0  0  0  0  0  0  0  0  0  0  0
    3.3561   -3.4084    1.1670 N   0  0  0  0  0  0  0  0  0  0  0  0
    3.4879   -2.0606    1.1580 C   0  0  0  0  0  0  0  0  0  0  0  0
    3.3752    0.8570    0.5527 C   0  0  0  0  0  0  0  0  0  0  0  0
    3.5074    2.2231    0.4944 C   0  0  0  0  0  0  0  0  0  0  0  0
    2.5062    3.1047    1.0238 C   0  0  0  0  0  0  0  0  0  0  0  0
    1.4092    2.7239    1.5934 C   0  0  0  0  0  0  0  0  0  0  0  0
    0.8233    1.5007    1.8899 N   0  0  0  0  0  0  0  0  0  0  0  0
   -0.2375    0.9246    1.0893 C   0  0  0  0  0  0  0  0  0  0  0  0
   -0.7032    1.6046   -0.0221 C   0  0  0  0  0  0  0  0  0  0  0  0
   -1.7067    1.0651   -0.7840 C   0  0  0  0  0  0  0  0  0  0  0  0
   -2.2465   -0.1458   -0.4439 C   0  0  0  0  0  0  0  0  0  0  0  0
   -3.3178   -0.7453   -1.2402 C   0  0  0  0  0  0  0  0  0  0  0  0
   -4.6282   -0.3753   -0.8223 N   0  0  0  0  0  0  0  0  0  0  0  0
   -5.6745   -0.9421   -1.5964 C   0  0  0  0  0  0  0  0  0  0  0  0
   -6.2628   -2.2148   -1.0957 C   0  0  0  0  0  0  0  0  0  0  0  0
   -6.5184   -2.2284    0.3923 C   0  0  0  0  0  0  0  0  0  0  0  0
   -5.2348   -1.7910    1.1111 C   0  0  0  0  0  0  0  0  0  0  0  0
   -4.8929   -0.4359    0.5746 C   0  0  0  0  0  0  0  0  0  0  0  0
   -1.7696   -0.8027    0.6621 C   0  0  0  0  0  0  0  0  0  0  0  0
   -0.7625   -0.2955    1.4547 C   0  0  0  0  0  0  0  0  0  0  0  0
    4.1588    6.0663    0.1837 H   0  0  0  0  0  0  0  0  0  0  0  0
    6.5552    2.2831   -1.0961 H   0  0  0  0  0  0  0  0  0  0  0  0
    6.2446   -0.1146   -0.9530 H   0  0  0  0  0  0  0  0  0  0  0  0
    5.2192   -1.8264   -1.7082 H   0  0  0  0  0  0  0  0  0  0  0  0
    4.9381   -4.2739   -1.6221 H   0  0  0  0  0  0  0  0  0  0  0  0
    3.7492   -5.2738    0.2144 H   0  0  0  0  0  0  0  0  0  0  0  0
    3.0669   -1.4654    1.9578 H   0  0  0  0  0  0  0  0  0  0  0  0
    2.5132    0.4430    0.9992 H   0  0  0  0  0  0  0  0  0  0  0  0
    0.7451    3.5816    1.9464 H   0  0  0  0  0  0  0  0  0  0  0  0
    1.1130    0.9463    2.7273 H   0  0  0  0  0  0  0  0  0  0  0  0
   -0.2411    2.5669   -0.2527 H   0  0  0  0  0  0  0  0  0  0  0  0
   -2.0457    1.6340   -1.6532 H   0  0  0  0  0  0  0  0  0  0  0  0
   -3.1895   -0.3670   -2.2963 H   0  0  0  0  0  0  0  0  0  0  0  0
   -3.1554   -1.8463   -1.3120 H   0  0  0  0  0  0  0  0  0  0  0  0
   -6.4936   -0.1893   -1.7658 H   0  0  0  0  0  0  0  0  0  0  0  0
   -5.2859   -1.1497   -2.6333 H   0  0  0  0  0  0  0  0  0  0  0  0
   -5.6945   -3.1262   -1.3726 H   0  0  0  0  0  0  0  0  0  0  0  0
   -7.2760   -2.3411   -1.5771 H   0  0  0  0  0  0  0  0  0  0  0  0
   -7.3336   -1.5545    0.6975 H   0  0  0  0  0  0  0  0  0  0  0  0
   -6.7768   -3.2575    0.6906 H   0  0  0  0  0  0  0  0  0  0  0  0
   -5.5349   -1.6522    2.1782 H   0  0  0  0  0  0  0  0  0  0  0  0
   -4.4470   -2.5433    1.0038 H   0  0  0  0  0  0  0  0  0  0  0  0
   -4.0939   -0.0120    1.2068 H   0  0  0  0  0  0  0  0  0  0  0  0
   -5.7919    0.2150    0.7676 H   0  0  0  0  0  0  0  0  0  0  0  0
   -2.1796   -1.7744    0.9620 H   0  0  0  0  0  0  0  0  0  0  0  0
   -0.3884   -0.8338    2.3407 H   0  0  0  0  0  0  0  0  0  0  0  0
  1  2  2  0
  2  3  1  0
  3  4  1  0
  4  5  2  0
  4  6  1  0
  6  7  2  0
  7  8  1  0
  8  9  2  0
  9 10  1  0
 10 11  2  0
 11 12  1  0
 12 13  2  0
 13 14  1  0
 14 15  2  0
  9 16  1  0
 16 17  2  0
 17 18  1  0
 18 19  2  3
 19 20  1  0
 20 21  1  0
 21 22  2  0
 22 23  1  0
 23 24  2  0
 24 25  1  0
 25 26  1  0
 26 27  1  0
 27 28  1  0
 28 29  1  0
 29 30  1  0
 30 31  1  0
 24 32  1  0
 32 33  2  0
 18  2  1  0
 33 21  1  0
 17  6  1  0
 31 26  1  0
 15 10  1  0
  3 34  1  0
  7 35  1  0
  8 36  1  0
 11 37  1  0
 12 38  1  0
 13 39  1  0
 15 40  1  0
 16 41  1  0
 19 42  1  0
 20 43  1  0
 22 44  1  0
 23 45  1  0
 25 46  1  0
 25 47  1  0
 27 48  1  0
 27 49  1  0
 28 50  1  0
 28 51  1  0
 29 52  1  0
 29 53  1  0
 30 54  1  0
 30 55  1  0
 31 56  1  0
 31 57  1  0
 32 58  1  0
 33 59  1  0
M  END
$$$$
