@<TRIPOS>MOLECULE
*****
 59 63 0 0 0
SMALL
GASTEIGER

@<TRIPOS>ATOM
      1 O           1.9884    5.4263    1.3120 O.2     1  UNL1       -0.2697
      2 C           2.7935    4.5623    0.8850 C.2     1  UNL1        0.2523
      3 N           3.9741    5.0413    0.2724 N.am    1  UNL1       -0.2483
      4 C           4.9391    4.1458   -0.2382 C.2     1  UNL1        0.2511
      5 O           6.0115    4.5599   -0.7947 O.2     1  UNL1       -0.2698
      6 C           4.6761    2.7059   -0.1119 C.ar    1  UNL1        0.0450
      7 C           5.6534    1.8808   -0.6286 C.ar    1  UNL1       -0.0485
      8 C           5.4738    0.5269   -0.5455 C.ar    1  UNL1       -0.0532
      9 C           4.3487   -0.0100    0.0377 C.ar    1  UNL1       -0.0158
     10 C           4.1620   -1.4500    0.1239 C.ar    1  UNL1        0.0002
     11 C           4.6857   -2.2578   -0.8814 C.ar    1  UNL1       -0.0512
     12 C           4.5441   -3.6250   -0.8594 C.ar    1  UNL1       -0.0430
     13 C           3.8640   -4.1988    0.1908 C.ar    1  UNL1        0.0276
     14 N           3.3561   -3.4084    1.1670 N.ar    1  UNL1       -0.2627
     15 C           3.4879   -2.0606    1.1580 C.ar    1  UNL1        0.0352
     16 C           3.3752    0.8570    0.5527 C.ar    1  UNL1       -0.0453
     17 C           3.5074    2.2231    0.4944 C.ar    1  UNL1        0.0010
     18 C           2.5062    3.1047    1.0238 C.2     1  UNL1        0.0587
     19 C           1.4092    2.7239    1.5934 C.2     1  UNL1        0.0065
     20 N           0.8233    1.5007    1.8899 N.pl3   1  UNL1       -0.3198
     21 C          -0.2375    0.9246    1.0893 C.ar    1  UNL1        0.0309
     22 C          -0.7032    1.6046   -0.0221 C.ar    1  UNL1       -0.0403
     23 C          -1.7067    1.0651   -0.7840 C.ar    1  UNL1       -0.0556
     24 C          -2.2465   -0.1458   -0.4439 C.ar    1  UNL1       -0.0332
     25 C          -3.3178   -0.7453   -1.2402 C.3     1  UNL1        0.0240
     26 N          -4.6282   -0.3753   -0.8223 N.3     1  UNL1       -0.2982
     27 C          -5.6745   -0.9421   -1.5964 C.3     1  UNL1       -0.0008
     28 C          -6.2628   -2.2148   -1.0957 C.3     1  UNL1       -0.0402
     29 C          -6.5184   -2.2284    0.3923 C.3     1  UNL1       -0.0507
     30 C          -5.2348   -1.7910    1.1111 C.3     1  UNL1       -0.0402
     31 C          -4.8929   -0.4359    0.5746 C.3     1  UNL1       -0.0008
     32 C          -1.7696   -0.8027    0.6621 C.ar    1  UNL1       -0.0556
     33 C          -0.7625   -0.2955    1.4547 C.ar    1  UNL1       -0.0403
     34 H           4.1588    6.0663    0.1837 H       1  UNL1        0.1581
     35 H           6.5552    2.2831   -1.0961 H       1  UNL1        0.0625
     36 H           6.2446   -0.1146   -0.9530 H       1  UNL1        0.0624
     37 H           5.2192   -1.8264   -1.7082 H       1  UNL1        0.0625
     38 H           4.9381   -4.2739   -1.6221 H       1  UNL1        0.0633
     39 H           3.7492   -5.2738    0.2144 H       1  UNL1        0.0829
     40 H           3.0669   -1.4654    1.9578 H       1  UNL1        0.0836
     41 H           2.5132    0.4430    0.9992 H       1  UNL1        0.0630
     42 H           0.7451    3.5816    1.9464 H       1  UNL1        0.0789
     43 H           1.1130    0.9463    2.7273 H       1  UNL1        0.1516
     44 H          -0.2411    2.5669   -0.2527 H       1  UNL1        0.0636
     45 H          -2.0457    1.6340   -1.6532 H       1  UNL1        0.0621
     46 H          -3.1895   -0.3670   -2.2963 H       1  UNL1        0.0476
     47 H          -3.1554   -1.8463   -1.3120 H       1  UNL1        0.0476
     48 H          -6.4936   -0.1893   -1.7658 H       1  UNL1        0.0427
     49 H          -5.2859   -1.1497   -2.6333 H       1  UNL1        0.0427
     50 H          -5.6945   -3.1262   -1.3726 H       1  UNL1        0.0278
     51 H          -7.2760   -2.3411   -1.5771 H       1  UNL1        0.0278
     52 H          -7.3336   -1.5545    0.6975 H       1  UNL1        0.0266
     53 H          -6.7768   -3.2575    0.6906 H       1  UNL1        0.0266
     54 H          -5.5349   -1.6522    2.1782 H       1  UNL1        0.0278
     55 H          -4.4470   -2.5433    1.0038 H       1  UNL1        0.0278
     56 H          -4.0939   -0.0120    1.2068 H       1  UNL1        0.0427
     57 H          -5.7919    0.2150    0.7676 H       1  UNL1        0.0427
     58 H          -2.1796   -1.7744    0.9620 H       1  UNL1        0.0621
     59 H          -0.3884   -0.8338    2.3407 H       1  UNL1        0.0636
@<TRIPOS>BOND
     1     1     2    2
     2     2     3   am
     3     3     4   am
     4     4     5    2
     5     4     6    1
     6     6     7   ar
     7     7     8   ar
     8     8     9   ar
     9     9    10    1
    10    10    11   ar
    11    11    12   ar
    12    12    13   ar
    13    13    14   ar
    14    14    15   ar
    15     9    16   ar
    16    16    17   ar
    17    17    18    1
    18    18    19    2
    19    19    20    1
    20    20    21    1
    21    21    22   ar
    22    22    23   ar
    23    23    24   ar
    24    24    25    1
    25    25    26    1
    26    26    27    1
    27    27    28    1
    28    28    29    1
    29    29    30    1
    30    30    31    1
    31    24    32   ar
    32    32    33   ar
    33    18     2    1
    34    33    21   ar
    35    17     6   ar
    36    31    26    1
    37    15    10   ar
    38     3    34    1
    39     7    35    1
    40     8    36    1
    41    11    37    1
    42    12    38    1
    43    13    39    1
    44    15    40    1
    45    16    41    1
    46    19    42    1
    47    20    43    1
    48    22    44    1
    49    23    45    1
    50    25    46    1
    51    25    47    1
    52    27    48    1
    53    27    49    1
    54    28    50    1
    55    28    51    1
    56    29    52    1
    57    29    53    1
    58    30    54    1
    59    30    55    1
    60    31    56    1
    61    31    57    1
    62    32    58    1
    63    33    59    1
