@<TRIPOS>MOLECULE
*****
 76 82 0 0 0
SMALL
GASTEIGER

@<TRIPOS>ATOM
      1 C          -9.3647   -1.1247    2.0867 C.3     1  UNL1        0.0032
      2 N          -8.1432   -1.3278    1.3291 N.am    1  UNL1       -0.3024
      3 C          -8.1619   -2.2922    0.2463 C.3     1  UNL1        0.0032
      4 C          -6.9500   -0.6356    1.6013 C.2     1  UNL1        0.2627
      5 O          -6.9136    0.1927    2.5253 O.2     1  UNL1       -0.2684
      6 C          -5.7688   -0.8862    0.8097 C.ar    1  UNL1        0.1070
      7 C          -5.1375   -2.1358    0.8617 C.ar    1  UNL1       -0.0209
      8 C          -4.0753   -2.0466    0.0041 C.ar    1  UNL1        0.0378
      9 C          -3.1172   -2.9729   -0.3423 C.ar    1  UNL1        0.0419
     10 N          -2.1955   -2.5924   -1.2237 N.ar    1  UNL1       -0.2219
     11 C          -2.1678   -1.3666   -1.7732 C.ar    1  UNL1        0.2224
     12 N          -1.1488   -1.0741   -2.7137 N.pl3   1  UNL1       -0.2684
     13 C           0.1699   -0.6659   -2.3249 C.ar    1  UNL1        0.1251
     14 C           0.5245   -0.5372   -0.9967 C.ar    1  UNL1       -0.0197
     15 C           1.8245   -0.1487   -0.6570 C.ar    1  UNL1       -0.0354
     16 C           2.7746    0.1130   -1.6223 C.ar    1  UNL1        0.0578
     17 N           4.0948    0.4993   -1.2849 N.am    1  UNL1       -0.2320
     18 C           4.6187    0.6542    0.0634 C.3     1  UNL1        0.0631
     19 C           6.1085    0.4600   -0.0891 C.3     1  UNL1        0.1340
     20 C           6.8580    1.6159    0.4987 C.3     1  UNL1        0.0045
     21 C           8.2472    1.2628    0.9547 C.3     1  UNL1        0.0141
     22 C           9.0115    0.7323   -0.2276 C.3     1  UNL1       -0.0358
     23 C           8.7833   -0.7625   -0.2063 C.3     1  UNL1       -0.0358
     24 C           7.8837   -0.9458    0.9914 C.3     1  UNL1        0.0141
     25 C           6.4616   -0.8659    0.5141 C.3     1  UNL1        0.0045
     26 N           8.1477    0.1620    1.8849 N.3     1  UNL1       -0.2992
     27 C           9.3742   -0.0320    2.6385 C.3     1  UNL1       -0.0122
     28 O           6.3550    0.4366   -1.4674 O.3     1  UNL1       -0.4418
     29 C           5.1993    0.8107   -2.1182 C.2     1  UNL1        0.4079
     30 O           5.0611    1.3486   -3.2687 O.2     1  UNL1       -0.2259
     31 C           2.3761   -0.0275   -2.9366 C.ar    1  UNL1        0.0512
     32 N           1.1197   -0.4025   -3.2422 N.ar    1  UNL1       -0.2383
     33 N          -3.0961   -0.4594   -1.4414 N.ar    1  UNL1       -0.1962
     34 C          -4.0417   -0.8062   -0.5564 C.ar    1  UNL1        0.1466
     35 N          -5.0958   -0.0987   -0.0488 N.ar    1  UNL1       -0.3180
     36 C          -5.4393    1.2467   -0.3738 C.3     1  UNL1        0.0366
     37 C          -6.8583    1.4197   -0.8728 C.3     1  UNL1       -0.0320
     38 C          -7.0422    2.9204   -0.6902 C.3     1  UNL1       -0.0511
     39 C          -6.4653    3.1051    0.7143 C.3     1  UNL1       -0.0511
     40 C          -5.2030    2.2543    0.6979 C.3     1  UNL1       -0.0320
     41 H         -10.0741   -0.5641    1.4772 H       1  UNL1        0.0428
     42 H          -9.7798   -2.1478    2.2826 H       1  UNL1        0.0428
     43 H          -9.0892   -0.6715    3.0437 H       1  UNL1        0.0428
     44 H          -9.1861   -2.4754   -0.1095 H       1  UNL1        0.0428
     45 H          -7.8108   -3.2700    0.6779 H       1  UNL1        0.0428
     46 H          -7.5208   -1.9861   -0.6155 H       1  UNL1        0.0428
     47 H          -5.4191   -2.9964    1.4508 H       1  UNL1        0.0647
     48 H          -3.1511   -3.9523    0.1058 H       1  UNL1        0.0838
     49 H          -1.3496   -1.1509   -3.7288 H       1  UNL1        0.1564
     50 H          -0.2127   -0.7375   -0.2296 H       1  UNL1        0.0652
     51 H           2.0987   -0.0507    0.3850 H       1  UNL1        0.0638
     52 H           4.1647   -0.1057    0.7603 H       1  UNL1        0.0509
     53 H           4.4053    1.6400    0.5003 H       1  UNL1        0.0509
     54 H           6.9501    2.4565   -0.2225 H       1  UNL1        0.0319
     55 H           6.3166    2.0158    1.3804 H       1  UNL1        0.0319
     56 H           8.6865    2.1639    1.4059 H       1  UNL1        0.0464
     57 H          10.0906    0.9895   -0.2066 H       1  UNL1        0.0281
     58 H           8.5811    1.1118   -1.1741 H       1  UNL1        0.0281
     59 H           8.2396   -1.1271   -1.1012 H       1  UNL1        0.0281
     60 H           9.7480   -1.3109   -0.1118 H       1  UNL1        0.0281
     61 H           8.0611   -1.9245    1.4271 H       1  UNL1        0.0464
     62 H           5.8071   -1.1099    1.3783 H       1  UNL1        0.0319
     63 H           6.3088   -1.6735   -0.2324 H       1  UNL1        0.0319
     64 H           9.9891   -0.8428    2.2119 H       1  UNL1        0.0391
     65 H           9.0679   -0.3428    3.6655 H       1  UNL1        0.0391
     66 H           9.9414    0.9149    2.7699 H       1  UNL1        0.0391
     67 H           3.1015    0.1704   -3.7336 H       1  UNL1        0.0849
     68 H          -4.7958    1.5667   -1.2505 H       1  UNL1        0.0528
     69 H          -6.9266    1.1694   -1.9592 H       1  UNL1        0.0285
     70 H          -7.5965    0.9070   -0.2588 H       1  UNL1        0.0285
     71 H          -8.1163    3.1536   -0.7377 H       1  UNL1        0.0266
     72 H          -6.4385    3.4681   -1.4441 H       1  UNL1        0.0266
     73 H          -6.2225    4.1682    0.8875 H       1  UNL1        0.0266
     74 H          -7.1709    2.6792    1.4316 H       1  UNL1        0.0266
     75 H          -4.9310    1.8598    1.6772 H       1  UNL1        0.0285
     76 H          -4.3745    2.9778    0.4348 H       1  UNL1        0.0285
@<TRIPOS>BOND
     1     1     2    1
     2     2     3    1
     3     2     4   am
     4     4     5    2
     5     4     6    1
     6     6     7   ar
     7     7     8   ar
     8     8     9   ar
     9     9    10   ar
    10    10    11   ar
    11    11    12    1
    12    12    13    1
    13    13    14   ar
    14    14    15   ar
    15    15    16   ar
    16    16    17    1
    17    17    18    1
    18    18    19    1
    19    19    20    1
    20    20    21    1
    21    21    22    1
    22    22    23    1
    23    23    24    1
    24    24    25    1
    25    24    26    1
    26    26    27    1
    27    19    28    1
    28    28    29    1
    29    29    30    2
    30    16    31   ar
    31    31    32   ar
    32    11    33   ar
    33    33    34   ar
    34    34    35   ar
    35    35    36    1
    36    36    37    1
    37    37    38    1
    38    38    39    1
    39    39    40    1
    40    35     6   ar
    41    40    36    1
    42    34     8   ar
    43    32    13   ar
    44    29    17   am
    45    25    19    1
    46    26    21    1
    47     1    41    1
    48     1    42    1
    49     1    43    1
    50     3    44    1
    51     3    45    1
    52     3    46    1
    53     7    47    1
    54     9    48    1
    55    12    49    1
    56    14    50    1
    57    15    51    1
    58    18    52    1
    59    18    53    1
    60    20    54    1
    61    20    55    1
    62    21    56    1
    63    22    57    1
    64    22    58    1
    65    23    59    1
    66    23    60    1
    67    24    61    1
    68    25    62    1
    69    25    63    1
    70    27    64    1
    71    27    65    1
    72    27    66    1
    73    31    67    1
    74    36    68    1
    75    37    69    1
    76    37    70    1
    77    38    71    1
    78    38    72    1
    79    39    73    1
    80    39    74    1
    81    40    75    1
    82    40    76    1
