@<TRIPOS>MOLECULE
*****
 54 58 0 0 0
SMALL
GASTEIGER

@<TRIPOS>ATOM
      1 C           2.1419    3.4140   -6.0191 C.3     1  UNL1        0.0007
      2 C           1.7564    3.8619   -4.6835 C.2     1  UNL1        0.1867
      3 O           1.4430    4.9830   -4.3686 O.2     1  UNL1       -0.2901
      4 C           1.7773    2.7517   -3.6753 C.ar    1  UNL1        0.1671
      5 N           1.9649    1.6341   -3.5883 N.ar    1  UNL1       -0.1538
      6 N           1.8983    0.7663   -2.6668 N.ar    1  UNL1       -0.2073
      7 C           2.2480   -0.6567   -2.7610 C.ar    1  UNL1        0.0682
      8 C           1.3466   -1.6479   -2.9078 C.ar    1  UNL1       -0.0362
      9 C           1.7407   -3.0057   -2.9180 C.ar    1  UNL1       -0.0598
     10 C           3.0462   -3.3600   -2.7892 C.ar    1  UNL1       -0.0616
     11 C           3.9526   -2.3337   -2.6465 C.ar    1  UNL1       -0.0598
     12 C           3.6033   -0.9931   -2.6253 C.ar    1  UNL1       -0.0362
     13 C           1.5071    1.2877   -1.5007 C.ar    1  UNL1        0.1982
     14 N           0.8825    1.1231   -0.4008 N.2     1  UNL1       -0.2011
     15 C           0.2331    0.6459    0.5075 C.ar    1  UNL1        0.1740
     16 N          -0.6310   -0.4175    0.2073 N.ar    1  UNL1       -0.2266
     17 C          -1.5005   -0.8862    1.0831 C.ar    1  UNL1        0.0740
     18 C          -2.3078   -2.0309    0.6755 C.ar    1  UNL1        0.0004
     19 C          -3.2343   -2.5892    1.5189 C.ar    1  UNL1       -0.0526
     20 C          -3.9815   -3.7193    1.1337 C.ar    1  UNL1       -0.0611
     21 C          -3.7905   -4.2751   -0.0991 C.ar    1  UNL1       -0.0617
     22 C          -2.8798   -3.7484   -0.9668 C.ar    1  UNL1       -0.0611
     23 C          -2.1652   -2.6394   -0.5478 C.ar    1  UNL1       -0.0526
     24 C          -1.5581   -0.3022    2.2965 C.ar    1  UNL1       -0.0266
     25 C          -0.7432    0.7767    2.7073 C.ar    1  UNL1        0.0051
     26 C          -0.8756    1.3736    4.0059 C.ar    1  UNL1       -0.0165
     27 C          -2.1844    1.7028    4.4108 C.ar    1  UNL1       -0.0540
     28 C          -2.4146    2.2817    5.6275 C.ar    1  UNL1       -0.0612
     29 C          -1.4208    2.5737    6.5080 C.ar    1  UNL1       -0.0617
     30 C          -0.1170    2.2538    6.1122 C.ar    1  UNL1       -0.0612
     31 C           0.1305    1.6613    4.8717 C.ar    1  UNL1       -0.0540
     32 C           0.1268    1.2024    1.7953 C.ar    1  UNL1        0.1036
     33 C           1.1556    2.2550    2.0738 C.1     1  UNL1        0.1035
     34 N           1.9211    3.0295    2.2961 N.1     1  UNL1       -0.1907
     35 S           1.2762    3.1340   -1.9036 S.2     1  UNL1       -0.0250
     36 H           3.2536    3.2999   -6.1712 H       1  UNL1        0.0310
     37 H           1.7343    2.3642   -6.2311 H       1  UNL1        0.0310
     38 H           1.7464    4.1337   -6.7592 H       1  UNL1        0.0310
     39 H           0.3091   -1.3919   -3.0280 H       1  UNL1        0.0639
     40 H           0.9950   -3.7474   -3.0183 H       1  UNL1        0.0618
     41 H           3.3931   -4.4111   -2.8070 H       1  UNL1        0.0618
     42 H           5.0077   -2.6275   -2.5543 H       1  UNL1        0.0618
     43 H           4.3013   -0.2179   -2.5215 H       1  UNL1        0.0639
     44 H          -3.3661   -2.1465    2.4633 H       1  UNL1        0.0624
     45 H          -4.7327   -4.1750    1.7973 H       1  UNL1        0.0618
     46 H          -4.3632   -5.1763   -0.4001 H       1  UNL1        0.0618
     47 H          -2.7319   -4.1692   -1.9286 H       1  UNL1        0.0618
     48 H          -1.4301   -2.2128   -1.2206 H       1  UNL1        0.0624
     49 H          -2.2566   -0.6145    3.0283 H       1  UNL1        0.0645
     50 H          -2.9851    1.4860    3.7455 H       1  UNL1        0.0624
     51 H          -3.4670    2.5335    5.9231 H       1  UNL1        0.0618
     52 H          -1.6064    3.0215    7.4655 H       1  UNL1        0.0618
     53 H           0.6608    2.4844    6.8155 H       1  UNL1        0.0618
     54 H           1.1901    1.4602    4.6385 H       1  UNL1        0.0624
@<TRIPOS>BOND
     1     1     2    1
     2     2     3    2
     3     2     4    1
     4     4     5   ar
     5     5     6   ar
     6     6     7    1
     7     7     8   ar
     8     8     9   ar
     9     9    10   ar
    10    10    11   ar
    11    11    12   ar
    12     6    13   ar
    13    13    14    2
    14    14    15    1
    15    15    16   ar
    16    16    17   ar
    17    17    18    1
    18    18    19   ar
    19    19    20   ar
    20    20    21   ar
    21    21    22   ar
    22    22    23   ar
    23    17    24   ar
    24    24    25   ar
    25    25    26    1
    26    26    27   ar
    27    27    28   ar
    28    28    29   ar
    29    29    30   ar
    30    30    31   ar
    31    25    32   ar
    32    32    33    1
    33    33    34    3
    34    13    35   ar
    35    35     4   ar
    36    12     7   ar
    37    32    15   ar
    38    23    18   ar
    39    31    26   ar
    40     1    36    1
    41     1    37    1
    42     1    38    1
    43     8    39    1
    44     9    40    1
    45    10    41    1
    46    11    42    1
    47    12    43    1
    48    19    44    1
    49    20    45    1
    50    21    46    1
    51    22    47    1
    52    23    48    1
    53    24    49    1
    54    27    50    1
    55    28    51    1
    56    29    52    1
    57    30    53    1
    58    31    54    1
