@<TRIPOS>MOLECULE
*****
 68 73 0 0 0
SMALL
GASTEIGER

@<TRIPOS>ATOM
      1 C           4.5775    1.1219    1.8151 C.3     1  UNL1       -0.0274
      2 C           4.1434    0.8538    0.3595 C.3     1  UNL1        0.1037
      3 O           3.0274    0.1516    0.2438 O.3     1  UNL1       -0.4725
      4 C           2.3469   -0.9292   -0.1117 C.ar    1  UNL1        0.2265
      5 N           0.9789   -0.9694    0.0876 N.ar    1  UNL1       -0.2107
      6 C           0.2187   -2.0031   -0.2348 C.ar    1  UNL1        0.0952
      7 C          -1.2347   -1.9690    0.0081 C.ar    1  UNL1        0.0952
      8 C          -2.0683   -3.0038   -0.3025 C.ar    1  UNL1       -0.0062
      9 C          -3.4462   -2.9436   -0.0618 C.ar    1  UNL1        0.0999
     10 N          -4.4760   -3.7767   -0.2561 N.ar    1  UNL1       -0.1712
     11 N          -5.5768   -3.1832    0.1683 N.ar    1  UNL1       -0.2732
     12 C          -6.9419   -3.7179    0.1539 C.3     1  UNL1        0.0302
     13 C          -5.3113   -1.9569    0.6492 C.ar    1  UNL1        0.0380
     14 C          -3.9470   -1.7965    0.5048 C.ar    1  UNL1        0.0812
     15 C          -3.0985   -0.7568    0.8152 C.ar    1  UNL1        0.2265
     16 O          -3.6178    0.4189    1.3967 O.3     1  UNL1       -0.4725
     17 C          -2.7852    1.4890    1.7254 C.3     1  UNL1        0.1037
     18 C          -2.8365    1.8592    3.1918 C.3     1  UNL1       -0.0274
     19 C          -3.0924    2.7382    0.9289 C.3     1  UNL1        0.0196
     20 C          -2.9357    2.5261   -0.5485 C.3     1  UNL1        0.0182
     21 N          -4.2881    2.2358   -0.9787 N.am    1  UNL1       -0.3149
     22 C          -5.2223    2.6258    0.0165 C.2     1  UNL1        0.2135
     23 O          -6.4626    2.4519   -0.0865 O.2     1  UNL1       -0.2758
     24 C          -4.4863    3.2484    1.1470 C.3     1  UNL1        0.0315
     25 N          -1.7818   -0.8737    0.5600 N.ar    1  UNL1       -0.2107
     26 C           0.8457   -3.0851   -0.7975 C.ar    1  UNL1       -0.0062
     27 C           2.1999   -3.1198   -1.0264 C.ar    1  UNL1        0.0999
     28 N           3.0436   -4.0440   -1.5523 N.ar    1  UNL1       -0.1712
     29 N           4.2805   -3.5741   -1.5447 N.ar    1  UNL1       -0.2732
     30 C           5.4759   -4.2572   -2.0209 C.3     1  UNL1        0.0302
     31 C           4.2901   -2.3381   -1.0188 C.ar    1  UNL1        0.0380
     32 C           2.9793   -2.0390   -0.6869 C.ar    1  UNL1        0.0812
     33 C           4.0759    2.2632   -0.2585 C.3     1  UNL1        0.0196
     34 C           3.6570    2.1506   -1.6993 C.3     1  UNL1        0.0182
     35 N           4.2411    3.3434   -2.3121 N.am    1  UNL1       -0.3149
     36 C           5.2236    3.9002   -1.4706 C.2     1  UNL1        0.2135
     37 O           5.8227    5.0060   -1.5912 O.2     1  UNL1       -0.2758
     38 C           5.4305    2.8959   -0.3667 C.3     1  UNL1        0.0315
     39 H           5.2955    1.9677    1.8177 H       1  UNL1        0.0265
     40 H           3.6441    1.3335    2.3683 H       1  UNL1        0.0265
     41 H           5.0809    0.2570    2.2531 H       1  UNL1        0.0265
     42 H           5.0462    0.3687   -0.0907 H       1  UNL1        0.0734
     43 H          -1.6817   -3.8911   -0.7420 H       1  UNL1        0.0661
     44 H          -6.8859   -4.7627   -0.1771 H       1  UNL1        0.0473
     45 H          -7.3577   -3.6212    1.1804 H       1  UNL1        0.0473
     46 H          -7.5285   -3.0578   -0.5005 H       1  UNL1        0.0473
     47 H          -5.9427   -1.2051    1.0678 H       1  UNL1        0.0834
     48 H          -1.7293    1.2115    1.4586 H       1  UNL1        0.0734
     49 H          -2.2734    1.1750    3.8381 H       1  UNL1        0.0265
     50 H          -3.9201    1.8557    3.4771 H       1  UNL1        0.0265
     51 H          -2.4920    2.9240    3.2674 H       1  UNL1        0.0265
     52 H          -2.3877    3.5379    1.2293 H       1  UNL1        0.0356
     53 H          -2.3154    1.6449   -0.7957 H       1  UNL1        0.0466
     54 H          -2.4799    3.3846   -1.0829 H       1  UNL1        0.0466
     55 H          -4.4962    1.7925   -1.9170 H       1  UNL1        0.1487
     56 H          -4.9299    2.9785    2.1100 H       1  UNL1        0.0363
     57 H          -4.5293    4.3675    1.0266 H       1  UNL1        0.0363
     58 H           0.2729   -3.9496   -1.0768 H       1  UNL1        0.0661
     59 H           5.2551   -5.3396   -2.1514 H       1  UNL1        0.0473
     60 H           6.3347   -4.0416   -1.3850 H       1  UNL1        0.0473
     61 H           5.6718   -3.8656   -3.0584 H       1  UNL1        0.0473
     62 H           5.1301   -1.7167   -0.8834 H       1  UNL1        0.0834
     63 H           3.4332    2.8897    0.3589 H       1  UNL1        0.0356
     64 H           4.0894    1.2164   -2.1093 H       1  UNL1        0.0466
     65 H           2.5471    2.1677   -1.7390 H       1  UNL1        0.0466
     66 H           3.9642    3.7195   -3.2372 H       1  UNL1        0.1487
     67 H           5.7104    3.4897    0.5273 H       1  UNL1        0.0363
     68 H           6.2248    2.2260   -0.7134 H       1  UNL1        0.0363
@<TRIPOS>BOND
     1     1     2    1
     2     2     3    1
     3     3     4    1
     4     4     5   ar
     5     5     6   ar
     6     6     7    1
     7     7     8   ar
     8     8     9   ar
     9     9    10   ar
    10    10    11   ar
    11    11    12    1
    12    11    13   ar
    13    13    14   ar
    14    14    15   ar
    15    15    16    1
    16    16    17    1
    17    17    18    1
    18    17    19    1
    19    19    20    1
    20    20    21    1
    21    21    22   am
    22    22    23    2
    23    22    24    1
    24    15    25   ar
    25     6    26   ar
    26    26    27   ar
    27    27    28   ar
    28    28    29   ar
    29    29    30    1
    30    29    31   ar
    31    31    32   ar
    32     2    33    1
    33    33    34    1
    34    34    35    1
    35    35    36   am
    36    36    37    2
    37    36    38    1
    38    32     4   ar
    39    38    33    1
    40    25     7   ar
    41    32    27   ar
    42    14     9   ar
    43    24    19    1
    44     1    39    1
    45     1    40    1
    46     1    41    1
    47     2    42    1
    48     8    43    1
    49    12    44    1
    50    12    45    1
    51    12    46    1
    52    13    47    1
    53    17    48    1
    54    18    49    1
    55    18    50    1
    56    18    51    1
    57    19    52    1
    58    20    53    1
    59    20    54    1
    60    21    55    1
    61    24    56    1
    62    24    57    1
    63    26    58    1
    64    30    59    1
    65    30    60    1
    66    30    61    1
    67    31    62    1
    68    33    63    1
    69    34    64    1
    70    34    65    1
    71    35    66    1
    72    38    67    1
    73    38    68    1
