@<TRIPOS>MOLECULE
*****
 72 73 0 0 0
SMALL
GASTEIGER

@<TRIPOS>ATOM
      1 C           6.5463   -3.7244   -2.5722 C.3     1  UNL1       -0.0306
      2 C           6.2963   -3.1730   -1.1990 C.3     1  UNL1        0.0897
      3 O           6.4966   -1.7684   -1.2530 O.3     1  UNL1       -0.4638
      4 C           6.3301   -0.9741   -0.1349 C.2     1  UNL1        0.3241
      5 O           5.9906   -1.7236    0.8398 O.2     1  UNL1       -0.2491
      6 C           6.3898    0.4022    0.3774 C.3     1  UNL1        0.1038
      7 N           6.7855    1.2594   -0.7344 N.3     1  UNL1       -0.3184
      8 C           5.0454    0.8495    0.9421 C.3     1  UNL1       -0.0191
      9 C           4.0592    0.7810   -0.1748 C.3     1  UNL1        0.0259
     10 C           2.6854    1.1875    0.2809 C.2     1  UNL1        0.2137
     11 O           2.8827    1.3892    1.5129 O.2     1  UNL1       -0.2758
     12 N           1.4915    1.3080   -0.4811 N.am    1  UNL1       -0.3033
     13 C           0.2985    1.7287    0.3049 C.3     1  UNL1        0.1083
     14 C          -0.1281    3.0909   -0.1178 C.3     1  UNL1        0.0210
     15 S          -0.5783    3.2800   -1.8323 S.3     1  UNL1       -0.1538
     16 C          -2.1626    2.5096   -2.2465 C.3     1  UNL1        0.0189
     17 C          -3.2942    3.2739   -1.6427 C.ar    1  UNL1       -0.0376
     18 C          -3.8879    3.1711   -0.4170 C.ar    1  UNL1       -0.0578
     19 C          -4.9304    3.9719   -0.0219 C.ar    1  UNL1       -0.0615
     20 C          -5.4518    4.9355   -0.8328 C.ar    1  UNL1       -0.0617
     21 C          -4.8936    5.0861   -2.0829 C.ar    1  UNL1       -0.0615
     22 C          -3.8474    4.2628   -2.4432 C.ar    1  UNL1       -0.0578
     23 C          -0.6696    0.6540    0.1646 C.2     1  UNL1        0.2350
     24 O           0.2318    0.2831   -0.6761 O.2     1  UNL1       -0.2737
     25 N          -1.8741   -0.0305    0.4553 N.am    1  UNL1       -0.2973
     26 C          -2.1392   -1.2681   -0.2553 C.3     1  UNL1        0.1461
     27 C          -1.6463   -2.3398    0.7026 C.2     1  UNL1        0.3322
     28 O          -1.4339   -3.5251    1.0414 O.2     1  UNL1       -0.2484
     29 O          -1.0869   -2.1179    1.9268 O.3     1  UNL1       -0.4634
     30 C          -0.6140   -3.0495    2.8449 C.3     1  UNL1        0.0897
     31 C          -1.6670   -4.0119    3.3324 C.3     1  UNL1       -0.0306
     32 C          -3.5793   -1.4757   -0.4385 C.ar    1  UNL1       -0.0165
     33 C          -4.1097   -2.7334   -0.1458 C.ar    1  UNL1       -0.0563
     34 C          -5.4563   -2.9782   -0.3007 C.ar    1  UNL1       -0.0614
     35 C          -6.3410   -2.0189   -0.7440 C.ar    1  UNL1       -0.0617
     36 C          -5.8617   -0.7475   -1.0490 C.ar    1  UNL1       -0.0614
     37 C          -4.5092   -0.5645   -0.8745 C.ar    1  UNL1       -0.0563
     38 H           6.3944   -2.9139   -3.3339 H       1  UNL1        0.0262
     39 H           7.5474   -4.1908   -2.6649 H       1  UNL1        0.0262
     40 H           5.8100   -4.5203   -2.8299 H       1  UNL1        0.0262
     41 H           5.2320   -3.3698   -0.9413 H       1  UNL1        0.0694
     42 H           6.9443   -3.6425   -0.4292 H       1  UNL1        0.0694
     43 H           7.1982    0.4529    1.1379 H       1  UNL1        0.0574
     44 H           6.3417    0.8966   -1.6064 H       1  UNL1        0.1190
     45 H           7.8127    1.3213   -0.8556 H       1  UNL1        0.1190
     46 H           4.8077    0.1638    1.7790 H       1  UNL1        0.0290
     47 H           5.2060    1.8610    1.3690 H       1  UNL1        0.0290
     48 H           4.0317   -0.2589   -0.5397 H       1  UNL1        0.0359
     49 H           4.4275    1.4130   -1.0053 H       1  UNL1        0.0359
     50 H           1.7635    1.0629   -1.4534 H       1  UNL1        0.1495
     51 H           0.6543    1.8503    1.3744 H       1  UNL1        0.0603
     52 H           0.6736    3.8585    0.0951 H       1  UNL1        0.0399
     53 H          -0.9580    3.3981    0.5743 H       1  UNL1        0.0399
     54 H          -2.2807    2.5319   -3.3416 H       1  UNL1        0.0425
     55 H          -2.1637    1.4680   -1.9192 H       1  UNL1        0.0425
     56 H          -3.4580    2.4029    0.2094 H       1  UNL1        0.0621
     57 H          -5.3313    3.8093    0.9698 H       1  UNL1        0.0618
     58 H          -6.2664    5.5839   -0.5703 H       1  UNL1        0.0618
     59 H          -5.2904    5.8417   -2.7467 H       1  UNL1        0.0618
     60 H          -3.4650    4.4501   -3.4505 H       1  UNL1        0.0621
     61 H          -2.2056    0.6530    1.1641 H       1  UNL1        0.1499
     62 H          -1.5319   -1.3279   -1.1835 H       1  UNL1        0.0666
     63 H           0.3053   -3.5754    2.5076 H       1  UNL1        0.0694
     64 H          -0.2747   -2.4630    3.7468 H       1  UNL1        0.0694
     65 H          -2.6640   -3.6396    3.0092 H       1  UNL1        0.0262
     66 H          -1.6323   -4.1080    4.4396 H       1  UNL1        0.0262
     67 H          -1.5085   -4.9889    2.8293 H       1  UNL1        0.0262
     68 H          -3.5775   -3.5980    0.2068 H       1  UNL1        0.0621
     69 H          -5.9246   -3.9387   -0.0891 H       1  UNL1        0.0618
     70 H          -7.4096   -2.1494   -0.8854 H       1  UNL1        0.0618
     71 H          -6.4806    0.0651   -1.4027 H       1  UNL1        0.0618
     72 H          -4.0949    0.4012   -1.1006 H       1  UNL1        0.0621
@<TRIPOS>BOND
     1     1     2    1
     2     2     3    1
     3     3     4    1
     4     4     5    2
     5     4     6    1
     6     6     7    1
     7     6     8    1
     8     8     9    1
     9     9    10    1
    10    10    11    2
    11    10    12   am
    12    12    13    1
    13    13    14    1
    14    14    15    1
    15    15    16    1
    16    16    17    1
    17    17    18   ar
    18    18    19   ar
    19    19    20   ar
    20    20    21   ar
    21    21    22   ar
    22    13    23    1
    23    23    24    2
    24    23    25   am
    25    25    26    1
    26    26    27    1
    27    27    28    2
    28    27    29    1
    29    29    30    1
    30    30    31    1
    31    26    32    1
    32    32    33   ar
    33    33    34   ar
    34    34    35   ar
    35    35    36   ar
    36    36    37   ar
    37    22    17   ar
    38    37    32   ar
    39     1    38    1
    40     1    39    1
    41     1    40    1
    42     2    41    1
    43     2    42    1
    44     6    43    1
    45     7    44    1
    46     7    45    1
    47     8    46    1
    48     8    47    1
    49     9    48    1
    50     9    49    1
    51    12    50    1
    52    13    51    1
    53    14    52    1
    54    14    53    1
    55    16    54    1
    56    16    55    1
    57    18    56    1
    58    19    57    1
    59    20    58    1
    60    21    59    1
    61    22    60    1
    62    25    61    1
    63    26    62    1
    64    30    63    1
    65    30    64    1
    66    31    65    1
    67    31    66    1
    68    31    67    1
    69    33    68    1
    70    34    69    1
    71    35    70    1
    72    36    71    1
    73    37    72    1
