@<TRIPOS>MOLECULE
*****
 67 71 0 0 0
SMALL
GASTEIGER

@<TRIPOS>ATOM
      1 C           7.8266    1.4775    1.9841 C.3     1  UNL1       -0.0280
      2 C           7.4246    0.0725    1.6174 C.3     1  UNL1        0.0962
      3 C           7.5496   -0.7767    2.8739 C.3     1  UNL1       -0.0280
      4 O           6.0874    0.0085    1.1612 O.3     1  UNL1       -0.4736
      5 C           5.7607   -0.5536   -0.0726 C.ar    1  UNL1        0.2167
      6 C           4.4195   -0.5681   -0.4274 C.ar    1  UNL1        0.0212
      7 C           4.0100   -1.1090   -1.6381 C.ar    1  UNL1        0.0400
      8 N           2.6979   -1.1684   -2.1029 N.pl3   1  UNL1       -0.2834
      9 C           1.5340   -0.5784   -1.5560 C.ar    1  UNL1        0.2212
     10 N           1.6240    0.1749   -0.4630 N.ar    1  UNL1       -0.2219
     11 C           0.5860    0.7553    0.0918 C.ar    1  UNL1        0.0437
     12 C          -0.7078    0.5631   -0.5171 C.ar    1  UNL1        0.0583
     13 C          -1.7200    1.5188   -0.1028 C.ar    1  UNL1        0.0764
     14 C          -2.7123    1.9357   -0.9204 C.ar    1  UNL1       -0.0349
     15 C          -3.5626    2.9802   -0.5835 C.ar    1  UNL1       -0.0505
     16 C          -3.4093    3.6281    0.6102 C.ar    1  UNL1        0.0004
     17 C          -4.2382    4.6827    0.9953 C.ar    1  UNL1       -0.0526
     18 C          -4.0729    5.3262    2.2018 C.ar    1  UNL1       -0.0611
     19 C          -3.0428    4.8869    3.0326 C.ar    1  UNL1       -0.0597
     20 C          -2.2344    3.8491    2.6429 C.ar    1  UNL1       -0.0357
     21 C          -2.3923    3.1945    1.4302 C.ar    1  UNL1        0.0717
     22 N          -1.5930    2.1804    1.0684 N.ar    1  UNL1       -0.2465
     23 C          -0.8324   -0.1967   -1.6052 C.ar    1  UNL1        0.1334
     24 N          -2.0315   -0.7746   -2.0664 N.pl3   1  UNL1       -0.3230
     25 C          -3.2873   -1.0244   -1.4773 C.3     1  UNL1        0.0507
     26 C          -3.0440   -1.7801   -0.1481 C.3     1  UNL1       -0.0247
     27 C          -4.4530   -2.2586    0.1448 C.3     1  UNL1        0.0124
     28 C          -4.4446   -3.5490    0.9362 C.3     1  UNL1        0.0495
     29 O          -3.7977   -3.3693    2.1360 O.3     1  UNL1       -0.3946
     30 C          -5.0879   -2.5000   -1.2315 C.3     1  UNL1        0.0877
     31 O          -6.0626   -1.5042   -1.3900 O.3     1  UNL1       -0.3888
     32 C          -3.9653   -2.2408   -2.2203 C.3     1  UNL1        0.0996
     33 O          -4.4892   -1.8332   -3.4199 O.3     1  UNL1       -0.3874
     34 N           0.3184   -0.7652   -2.1253 N.ar    1  UNL1       -0.1988
     35 C           5.0211   -1.6276   -2.4580 C.ar    1  UNL1       -0.0221
     36 C           6.3345   -1.6030   -2.0888 C.ar    1  UNL1        0.0331
     37 N           6.6596   -1.0639   -0.9028 N.ar    1  UNL1       -0.2212
     38 H           8.7132    1.8078    1.4286 H       1  UNL1        0.0265
     39 H           8.0785    1.5775    3.0748 H       1  UNL1        0.0265
     40 H           6.9969    2.1856    1.7834 H       1  UNL1        0.0265
     41 H           8.1056   -0.3776    0.8621 H       1  UNL1        0.0728
     42 H           8.6193   -1.0575    3.0297 H       1  UNL1        0.0265
     43 H           7.2678   -0.1093    3.7266 H       1  UNL1        0.0265
     44 H           6.9388   -1.6852    2.8230 H       1  UNL1        0.0265
     45 H           3.6932   -0.1598    0.2500 H       1  UNL1        0.0689
     46 H           2.5196   -1.7370   -2.9934 H       1  UNL1        0.1550
     47 H           0.6376    1.3681    0.9763 H       1  UNL1        0.0838
     48 H          -2.8497    1.5258   -1.9124 H       1  UNL1        0.0639
     49 H          -4.3428    3.2876   -1.2513 H       1  UNL1        0.0625
     50 H          -5.0345    5.0213    0.3514 H       1  UNL1        0.0624
     51 H          -4.7048    6.1384    2.5072 H       1  UNL1        0.0618
     52 H          -2.9306    5.4042    3.9735 H       1  UNL1        0.0618
     53 H          -1.4316    3.5000    3.2795 H       1  UNL1        0.0639
     54 H          -1.9468   -1.0701   -3.1256 H       1  UNL1        0.1479
     55 H          -4.0313   -0.2979   -1.3013 H       1  UNL1        0.0524
     56 H          -2.3845   -2.6333   -0.4051 H       1  UNL1        0.0288
     57 H          -2.6491   -1.1256    0.6268 H       1  UNL1        0.0288
     58 H          -4.9722   -1.4689    0.7059 H       1  UNL1        0.0349
     59 H          -4.0540   -4.3669    0.3172 H       1  UNL1        0.0561
     60 H          -5.5176   -3.7871    1.1509 H       1  UNL1        0.0561
     61 H          -3.8777   -4.2222    2.6562 H       1  UNL1        0.2094
     62 H          -5.4976   -3.5102   -1.3087 H       1  UNL1        0.0623
     63 H          -6.7440   -1.7357   -2.0592 H       1  UNL1        0.2099
     64 H          -3.2172   -3.0284   -2.2517 H       1  UNL1        0.0638
     65 H          -3.8537   -1.7583   -4.1484 H       1  UNL1        0.2100
     66 H           4.7306   -2.0515   -3.4009 H       1  UNL1        0.0651
     67 H           7.0658   -2.0234   -2.7746 H       1  UNL1        0.0831
@<TRIPOS>BOND
     1     1     2    1
     2     2     3    1
     3     2     4    1
     4     4     5    1
     5     5     6   ar
     6     6     7   ar
     7     7     8    1
     8     8     9    1
     9     9    10   ar
    10    10    11   ar
    11    11    12   ar
    12    12    13    1
    13    13    14   ar
    14    14    15   ar
    15    15    16   ar
    16    16    17   ar
    17    17    18   ar
    18    18    19   ar
    19    19    20   ar
    20    20    21   ar
    21    21    22   ar
    22    12    23   ar
    23    23    24    1
    24    24    25    1
    25    25    26    1
    26    26    27    1
    27    27    28    1
    28    28    29    1
    29    27    30    1
    30    30    31    1
    31    30    32    1
    32    32    33    1
    33    23    34   ar
    34     7    35   ar
    35    35    36   ar
    36    36    37   ar
    37    37     5   ar
    38    34     9   ar
    39    22    13   ar
    40    32    25    1
    41    21    16   ar
    42     1    38    1
    43     1    39    1
    44     1    40    1
    45     2    41    1
    46     3    42    1
    47     3    43    1
    48     3    44    1
    49     6    45    1
    50     8    46    1
    51    11    47    1
    52    14    48    1
    53    15    49    1
    54    17    50    1
    55    18    51    1
    56    19    52    1
    57    20    53    1
    58    24    54    1
    59    25    55    1
    60    26    56    1
    61    26    57    1
    62    27    58    1
    63    28    59    1
    64    28    60    1
    65    29    61    1
    66    30    62    1
    67    31    63    1
    68    32    64    1
    69    33    65    1
    70    35    66    1
    71    36    67    1
