
     RDKit          3D

 67 71  0  0  0  0  0  0  0  0999 V2000
    7.8266    1.4775    1.9841 C   0  0  0  0  0  0  0  0  0  0  0  0
    7.4246    0.0725    1.6174 C   0  0  0  0  0  0  0  0  0  0  0  0
    7.5496   -0.7767    2.8739 C   0  0  0  0  0  0  0  0  0  0  0  0
    6.0874    0.0085    1.1612 O   0  0  0  0  0  0  0  0  0  0  0  0
    5.7607   -0.5536   -0.0726 C   0  0  0  0  0  0  0  0  0  0  0  0
    4.4195   -0.5681   -0.4274 C   0  0  0  0  0  0  0  0  0  0  0  0
    4.0100   -1.1090   -1.6381 C   0  0  0  0  0  0  0  0  0  0  0  0
    2.6979   -1.1684   -2.1029 N   0  0  0  0  0  0  0  0  0  0  0  0
    1.5340   -0.5784   -1.5560 C   0  0  0  0  0  0  0  0  0  0  0  0
    1.6240    0.1749   -0.4630 N   0  0  0  0  0  0  0  0  0  0  0  0
    0.5860    0.7553    0.0918 C   0  0  0  0  0  0  0  0  0  0  0  0
   -0.7078    0.5631   -0.5171 C   0  0  0  0  0  0  0  0  0  0  0  0
   -1.7200    1.5188   -0.1028 C   0  0  0  0  0  0  0  0  0  0  0  0
   -2.7123    1.9357   -0.9204 C   0  0  0  0  0  0  0  0  0  0  0  0
   -3.5626    2.9802   -0.5835 C   0  0  0  0  0  0  0  0  0  0  0  0
   -3.4093    3.6281    0.6102 C   0  0  0  0  0  0  0  0  0  0  0  0
   -4.2382    4.6827    0.9953 C   0  0  0  0  0  0  0  0  0  0  0  0
   -4.0729    5.3262    2.2018 C   0  0  0  0  0  0  0  0  0  0  0  0
   -3.0428    4.8869    3.0326 C   0  0  0  0  0  0  0  0  0  0  0  0
   -2.2344    3.8491    2.6429 C   0  0  0  0  0  0  0  0  0  0  0  0
   -2.3923    3.1945    1.4302 C   0  0  0  0  0  0  0  0  0  0  0  0
   -1.5930    2.1804    1.0684 N   0  0  0  0  0  0  0  0  0  0  0  0
   -0.8324   -0.1967   -1.6052 C   0  0  0  0  0  0  0  0  0  0  0  0
   -2.0315   -0.7746   -2.0664 N   0  0  0  0  0  0  0  0  0  0  0  0
   -3.2873   -1.0244   -1.4773 C   0  0  2  0  0  0  0  0  0  0  0  0
   -3.0440   -1.7801   -0.1481 C   0  0  0  0  0  0  0  0  0  0  0  0
   -4.4530   -2.2586    0.1448 C   0  0  2  0  0  0  0  0  0  0  0  0
   -4.4446   -3.5490    0.9362 C   0  0  0  0  0  0  0  0  0  0  0  0
   -3.7977   -3.3693    2.1360 O   0  0  0  0  0  0  0  0  0  0  0  0
   -5.0879   -2.5000   -1.2315 C   0  0  1  0  0  0  0  0  0  0  0  0
   -6.0626   -1.5042   -1.3900 O   0  0  0  0  0  0  0  0  0  0  0  0
   -3.9653   -2.2408   -2.2203 C   0  0  1  0  0  0  0  0  0  0  0  0
   -4.4892   -1.8332   -3.4199 O   0  0  0  0  0  0  0  0  0  0  0  0
    0.3184   -0.7652   -2.1253 N   0  0  0  0  0  0  0  0  0  0  0  0
    5.0211   -1.6276   -2.4580 C   0  0  0  0  0  0  0  0  0  0  0  0
    6.3345   -1.6030   -2.0888 C   0  0  0  0  0  0  0  0  0  0  0  0
    6.6596   -1.0639   -0.9028 N   0  0  0  0  0  0  0  0  0  0  0  0
    8.7132    1.8078    1.4286 H   0  0  0  0  0  0  0  0  0  0  0  0
    8.0785    1.5775    3.0748 H   0  0  0  0  0  0  0  0  0  0  0  0
    6.9969    2.1856    1.7834 H   0  0  0  0  0  0  0  0  0  0  0  0
    8.1056   -0.3776    0.8621 H   0  0  0  0  0  0  0  0  0  0  0  0
    8.6193   -1.0575    3.0297 H   0  0  0  0  0  0  0  0  0  0  0  0
    7.2678   -0.1093    3.7266 H   0  0  0  0  0  0  0  0  0  0  0  0
    6.9388   -1.6852    2.8230 H   0  0  0  0  0  0  0  0  0  0  0  0
    3.6932   -0.1598    0.2500 H   0  0  0  0  0  0  0  0  0  0  0  0
    2.5196   -1.7370   -2.9934 H   0  0  0  0  0  0  0  0  0  0  0  0
    0.6376    1.3681    0.9763 H   0  0  0  0  0  0  0  0  0  0  0  0
   -2.8497    1.5258   -1.9124 H   0  0  0  0  0  0  0  0  0  0  0  0
   -4.3428    3.2876   -1.2513 H   0  0  0  0  0  0  0  0  0  0  0  0
   -5.0345    5.0213    0.3514 H   0  0  0  0  0  0  0  0  0  0  0  0
   -4.7048    6.1384    2.5072 H   0  0  0  0  0  0  0  0  0  0  0  0
   -2.9306    5.4042    3.9735 H   0  0  0  0  0  0  0  0  0  0  0  0
   -1.4316    3.5000    3.2795 H   0  0  0  0  0  0  0  0  0  0  0  0
   -1.9468   -1.0701   -3.1256 H   0  0  0  0  0  0  0  0  0  0  0  0
   -4.0313   -0.2979   -1.3013 H   0  0  0  0  0  0  0  0  0  0  0  0
   -2.3845   -2.6333   -0.4051 H   0  0  0  0  0  0  0  0  0  0  0  0
   -2.6491   -1.1256    0.6268 H   0  0  0  0  0  0  0  0  0  0  0  0
   -4.9722   -1.4689    0.7059 H   0  0  0  0  0  0  0  0  0  0  0  0
   -4.0540   -4.3669    0.3172 H   0  0  0  0  0  0  0  0  0  0  0  0
   -5.5176   -3.7871    1.1509 H   0  0  0  0  0  0  0  0  0  0  0  0
   -3.8777   -4.2222    2.6562 H   0  0  0  0  0  0  0  0  0  0  0  0
   -5.4976   -3.5102   -1.3087 H   0  0  0  0  0  0  0  0  0  0  0  0
   -6.7440   -1.7357   -2.0592 H   0  0  0  0  0  0  0  0  0  0  0  0
   -3.2172   -3.0284   -2.2517 H   0  0  0  0  0  0  0  0  0  0  0  0
   -3.8537   -1.7583   -4.1484 H   0  0  0  0  0  0  0  0  0  0  0  0
    4.7306   -2.0515   -3.4009 H   0  0  0  0  0  0  0  0  0  0  0  0
    7.0658   -2.0234   -2.7746 H   0  0  0  0  0  0  0  0  0  0  0  0
  1  2  1  0
  2  3  1  0
  2  4  1  0
  4  5  1  0
  5  6  2  0
  6  7  1  0
  7  8  1  0
  8  9  1  0
  9 10  2  0
 10 11  1  0
 11 12  2  0
 12 13  1  0
 13 14  2  0
 14 15  1  0
 15 16  2  0
 16 17  1  0
 17 18  2  0
 18 19  1  0
 19 20  2  0
 20 21  1  0
 21 22  2  0
 12 23  1  0
 23 24  1  0
 24 25  1  0
 25 26  1  0
 26 27  1  0
 27 28  1  0
 28 29  1  0
 27 30  1  0
 30 31  1  0
 30 32  1  0
 32 33  1  0
 23 34  2  0
  7 35  2  0
 35 36  1  0
 36 37  2  0
 37  5  1  0
 34  9  1  0
 22 13  1  0
 32 25  1  0
 21 16  1  0
  1 38  1  0
  1 39  1  0
  1 40  1  0
  2 41  1  0
  3 42  1  0
  3 43  1  0
  3 44  1  0
  6 45  1  0
  8 46  1  0
 11 47  1  0
 14 48  1  0
 15 49  1  0
 17 50  1  0
 18 51  1  0
 19 52  1  0
 20 53  1  0
 24 54  1  0
 25 55  1  1
 26 56  1  0
 26 57  1  0
 27 58  1  1
 28 59  1  0
 28 60  1  0
 29 61  1  0
 30 62  1  1
 31 63  1  0
 32 64  1  6
 33 65  1  0
 35 66  1  0
 36 67  1  0
M  END
$$$$
