@<TRIPOS>MOLECULE
*****
 35 36 0 0 0
SMALL
GASTEIGER

@<TRIPOS>ATOM
      1 C           2.1943   -2.5800   -0.6152 C.3     1  UNL1       -0.0155
      2 N           2.1423   -1.2707   -0.0079 N.3     1  UNL1       -0.3149
      3 C           2.1211   -0.2054   -0.9649 C.3     1  UNL1        0.0244
      4 C           2.0864    1.0838   -0.1919 C.ar    1  UNL1        0.0086
      5 C           3.2211    1.8138   -0.0570 C.ar    1  UNL1       -0.0539
      6 C           3.2137    2.9799    0.6485 C.ar    1  UNL1       -0.0612
      7 C           2.0255    3.3767    1.2078 C.ar    1  UNL1       -0.0583
      8 C           0.8526    2.6628    1.0928 C.ar    1  UNL1       -0.0190
      9 C           0.8421    1.4814    0.3827 C.ar    1  UNL1        0.1330
     10 O          -0.1995    0.7192    0.2017 O.3     1  UNL1       -0.4520
     11 C          -1.4805    0.4615    0.3874 C.ar    1  UNL1        0.1699
     12 C          -2.3962    1.2399    1.1009 C.ar    1  UNL1       -0.0143
     13 C          -3.7207    0.8774    1.2342 C.ar    1  UNL1       -0.0397
     14 C          -4.1965   -0.2723    0.6665 C.ar    1  UNL1        0.0447
     15 CL         -5.8790   -0.7301    0.8365 Cl      1  UNL1       -0.0834
     16 C          -3.3264   -1.0710   -0.0471 C.ar    1  UNL1        0.0020
     17 C          -2.0338   -0.7254   -0.1820 C.ar    1  UNL1        0.1635
     18 O          -1.1768   -1.5421   -0.9030 O.3     1  UNL1       -0.4914
     19 C          -1.6167   -2.7427   -1.5109 C.3     1  UNL1        0.0790
     20 H           2.4275   -3.3549    0.1263 H       1  UNL1        0.0388
     21 H           3.0505   -2.5595   -1.3521 H       1  UNL1        0.0388
     22 H           1.2640   -2.7517   -1.1686 H       1  UNL1        0.0388
     23 H           1.4971   -1.1933    0.7777 H       1  UNL1        0.1219
     24 H           3.0290   -0.1974   -1.5704 H       1  UNL1        0.0474
     25 H           1.1904   -0.3210   -1.5705 H       1  UNL1        0.0474
     26 H           4.1839    1.5088   -0.4999 H       1  UNL1        0.0622
     27 H           4.1261    3.5460    0.7443 H       1  UNL1        0.0618
     28 H           2.0039    4.3086    1.7769 H       1  UNL1        0.0619
     29 H          -0.0580    3.0620    1.5793 H       1  UNL1        0.0654
     30 H          -2.0323    2.1490    1.5537 H       1  UNL1        0.0656
     31 H          -4.3821    1.5414    1.8108 H       1  UNL1        0.0633
     32 H          -3.7477   -1.9843   -0.4861 H       1  UNL1        0.0670
     33 H          -2.5398   -2.6140   -2.0862 H       1  UNL1        0.0660
     34 H          -1.8280   -3.5141   -0.7291 H       1  UNL1        0.0660
     35 H          -0.8574   -3.1824   -2.1851 H       1  UNL1        0.0660
@<TRIPOS>BOND
     1     1     2    1
     2     2     3    1
     3     3     4    1
     4     4     5   ar
     5     5     6   ar
     6     6     7   ar
     7     7     8   ar
     8     8     9   ar
     9     9    10    1
    10    10    11    1
    11    11    12   ar
    12    12    13   ar
    13    13    14   ar
    14    14    15    1
    15    14    16   ar
    16    16    17   ar
    17    17    18    1
    18    18    19    1
    19     9     4   ar
    20    17    11   ar
    21     1    20    1
    22     1    21    1
    23     1    22    1
    24     2    23    1
    25     3    24    1
    26     3    25    1
    27     5    26    1
    28     6    27    1
    29     7    28    1
    30     8    29    1
    31    12    30    1
    32    13    31    1
    33    16    32    1
    34    19    33    1
    35    19    34    1
    36    19    35    1
