@<TRIPOS>MOLECULE
*****
 49 51 0 0 0
SMALL
GASTEIGER

@<TRIPOS>ATOM
      1 C           6.3339   -1.9533    2.3108 C.3     1  UNL1        0.0833
      2 O           5.3972   -1.2086    1.5507 O.3     1  UNL1       -0.4536
      3 C           4.0419   -1.4758    1.5627 C.2     1  UNL1        0.4027
      4 O           3.6771   -2.4444    2.3076 O.2     1  UNL1       -0.2263
      5 N           3.1002   -0.7388    0.8074 N.am    1  UNL1       -0.2656
      6 C           3.3920    0.3652   -0.0562 C.3     1  UNL1        0.0196
      7 C           2.3064    0.3741   -1.0774 C.3     1  UNL1       -0.0169
      8 C           1.3010   -0.5992   -0.6731 C.3     1  UNL1        0.0411
      9 N          -0.1175   -0.2054   -0.7452 N.pl3   1  UNL1       -0.3209
     10 C          -0.9748   -1.3619   -0.8531 C.3     1  UNL1        0.0378
     11 C          -2.3945   -1.2732   -0.8681 C.ar    1  UNL1       -0.0273
     12 C          -3.1215   -1.5800   -2.0311 C.ar    1  UNL1       -0.0568
     13 C          -4.4907   -1.5697   -2.0692 C.ar    1  UNL1       -0.0614
     14 C          -5.2082   -1.2532   -0.9503 C.ar    1  UNL1       -0.0615
     15 C          -4.5364   -0.9450    0.2152 C.ar    1  UNL1       -0.0585
     16 C          -3.1430   -0.9571    0.2476 C.ar    1  UNL1       -0.0458
     17 C          -2.4695   -0.6206    1.5193 C.3     1  UNL1       -0.0394
     18 C          -0.5797    1.1246   -0.5650 C.ar    1  UNL1        0.0317
     19 C           0.2008    2.0919    0.0838 C.ar    1  UNL1       -0.0393
     20 C          -0.1430    3.4202    0.1937 C.ar    1  UNL1       -0.0412
     21 C          -1.3234    3.8657   -0.3544 C.ar    1  UNL1        0.0701
     22 C          -1.7113    5.2502   -0.2554 C.1     1  UNL1        0.1006
     23 N          -2.0152    6.3662   -0.1584 N.1     1  UNL1       -0.1908
     24 C          -2.1061    2.9331   -0.9947 C.ar    1  UNL1        0.0600
     25 CL         -3.6208    3.5147   -1.6931 Cl      1  UNL1       -0.0822
     26 C          -1.7585    1.5924   -1.1075 C.ar    1  UNL1       -0.0210
     27 C           1.6756   -0.9669    0.7662 C.3     1  UNL1        0.0364
     28 H           5.8213   -2.7894    2.8603 H       1  UNL1        0.0661
     29 H           7.1507   -2.3526    1.6986 H       1  UNL1        0.0661
     30 H           6.7393   -1.2730    3.0849 H       1  UNL1        0.0661
     31 H           4.4134    0.2755   -0.5113 H       1  UNL1        0.0466
     32 H           3.4348    1.3147    0.5446 H       1  UNL1        0.0466
     33 H           1.9755    1.3720   -1.4282 H       1  UNL1        0.0299
     34 H           2.8229   -0.0725   -2.0240 H       1  UNL1        0.0299
     35 H           1.3870   -1.5215   -1.3175 H       1  UNL1        0.0516
     36 H          -0.5654   -1.9033   -1.7857 H       1  UNL1        0.0513
     37 H          -0.5943   -2.0630   -0.0350 H       1  UNL1        0.0513
     38 H          -2.5836   -1.8311   -2.9218 H       1  UNL1        0.0621
     39 H          -5.0281   -1.8096   -2.9770 H       1  UNL1        0.0618
     40 H          -6.2860   -1.2433   -0.9716 H       1  UNL1        0.0618
     41 H          -5.1240   -0.6980    1.0879 H       1  UNL1        0.0620
     42 H          -2.4922    0.4713    1.6489 H       1  UNL1        0.0278
     43 H          -3.0531   -1.0611    2.3713 H       1  UNL1        0.0278
     44 H          -1.4577   -1.0457    1.5964 H       1  UNL1        0.0278
     45 H           1.1120    1.7796    0.5719 H       1  UNL1        0.0636
     46 H           0.4767    4.1476    0.6972 H       1  UNL1        0.0631
     47 H          -2.4434    0.9753   -1.6626 H       1  UNL1        0.0651
     48 H           1.1530   -0.3639    1.4975 H       1  UNL1        0.0484
     49 H           1.4292   -2.0531    0.8626 H       1  UNL1        0.0484
@<TRIPOS>BOND
     1     1     2    1
     2     2     3    1
     3     3     4    2
     4     3     5   am
     5     5     6    1
     6     6     7    1
     7     7     8    1
     8     8     9    1
     9     9    10    1
    10    10    11    1
    11    11    12   ar
    12    12    13   ar
    13    13    14   ar
    14    14    15   ar
    15    15    16   ar
    16    16    17    1
    17     9    18    1
    18    18    19   ar
    19    19    20   ar
    20    20    21   ar
    21    21    22    1
    22    22    23    3
    23    21    24   ar
    24    24    25    1
    25    24    26   ar
    26     8    27    1
    27    27     5    1
    28    16    11   ar
    29    26    18   ar
    30     1    28    1
    31     1    29    1
    32     1    30    1
    33     6    31    1
    34     6    32    1
    35     7    33    1
    36     7    34    1
    37     8    35    1
    38    10    36    1
    39    10    37    1
    40    12    38    1
    41    13    39    1
    42    14    40    1
    43    15    41    1
    44    17    42    1
    45    17    43    1
    46    17    44    1
    47    19    45    1
    48    20    46    1
    49    26    47    1
    50    27    48    1
    51    27    49    1
