
     RDKit          3D

 53 57  0  0  0  0  0  0  0  0999 V2000
   -7.9059   -1.5535   -0.5308 C   0  0  0  0  0  0  0  0  0  0  0  0
   -7.0337   -0.8691    0.3602 N   0  0  0  0  0  0  0  0  0  0  0  0
   -5.9415   -1.5997    0.8883 C   0  0  0  0  0  0  0  0  0  0  0  0
   -4.6284   -1.3999    0.1425 C   0  0  0  0  0  0  0  0  0  0  0  0
   -4.4102    0.0039    0.0102 N   0  0  0  0  0  0  0  0  0  0  0  0
   -3.0956    0.5307    0.0770 C   0  0  0  0  0  0  0  0  0  0  0  0
   -2.8455    1.8427   -0.3561 C   0  0  0  0  0  0  0  0  0  0  0  0
   -1.5932    2.3751   -0.2735 C   0  0  0  0  0  0  0  0  0  0  0  0
   -0.5161    1.6637    0.2341 C   0  0  0  0  0  0  0  0  0  0  0  0
    0.7674    2.2602    0.3271 N   0  0  0  0  0  0  0  0  0  0  0  0
    1.8566    1.5351    0.8430 C   0  0  0  0  0  0  0  0  0  0  0  0
    2.8996    1.2183    0.0127 C   0  0  0  0  0  0  0  0  0  0  0  0
    3.9810    0.5112    0.5130 C   0  0  0  0  0  0  0  0  0  0  0  0
    5.0847    0.2006   -0.3853 C   0  0  0  0  0  0  0  0  0  0  0  0
    5.2159    0.5115   -1.7191 C   0  0  0  0  0  0  0  0  0  0  0  0
    6.3752    0.0664   -2.2016 N   0  0  0  0  0  0  0  0  0  0  0  0
    7.0210   -0.5461   -1.1804 C   0  0  0  0  0  0  0  0  0  0  0  0
    8.2360   -1.1844   -1.0787 C   0  0  0  0  0  0  0  0  0  0  0  0
    8.6983   -1.7486    0.0949 C   0  0  0  0  0  0  0  0  0  0  0  0
    7.8864   -1.6529    1.1965 C   0  0  0  0  0  0  0  0  0  0  0  0
    6.6551   -1.0232    1.1544 C   0  0  0  0  0  0  0  0  0  0  0  0
    6.2258   -0.4701   -0.0395 C   0  0  0  0  0  0  0  0  0  0  0  0
    3.9611    0.1643    1.7947 N   0  0  0  0  0  0  0  0  0  0  0  0
    2.9404    0.4648    2.6408 C   0  0  0  0  0  0  0  0  0  0  0  0
    1.8966    1.1499    2.1507 N   0  0  0  0  0  0  0  0  0  0  0  0
   -0.7396    0.3808    0.6611 C   0  0  0  0  0  0  0  0  0  0  0  0
   -2.0256   -0.1691    0.5772 C   0  0  0  0  0  0  0  0  0  0  0  0
   -5.4819    0.9635   -0.1881 C   0  0  0  0  0  0  0  0  0  0  0  0
   -6.8399    0.5097    0.1589 C   0  0  0  0  0  0  0  0  0  0  0  0
   -7.5554   -1.4013   -1.5742 H   0  0  0  0  0  0  0  0  0  0  0  0
   -8.9332   -1.1470   -0.3756 H   0  0  0  0  0  0  0  0  0  0  0  0
   -7.8982   -2.6331   -0.2874 H   0  0  0  0  0  0  0  0  0  0  0  0
   -5.7468   -1.3945    1.9709 H   0  0  0  0  0  0  0  0  0  0  0  0
   -6.1675   -2.6887    0.8285 H   0  0  0  0  0  0  0  0  0  0  0  0
   -3.8833   -1.9618    0.7260 H   0  0  0  0  0  0  0  0  0  0  0  0
   -4.6674   -1.9260   -0.8516 H   0  0  0  0  0  0  0  0  0  0  0  0
   -3.6962    2.3955   -0.7606 H   0  0  0  0  0  0  0  0  0  0  0  0
   -1.4048    3.3885   -0.6102 H   0  0  0  0  0  0  0  0  0  0  0  0
    0.8942    3.2324    0.0092 H   0  0  0  0  0  0  0  0  0  0  0  0
    2.8853    1.5168   -1.0305 H   0  0  0  0  0  0  0  0  0  0  0  0
    4.4744    1.0537   -2.3178 H   0  0  0  0  0  0  0  0  0  0  0  0
    6.7800    0.1387   -3.1834 H   0  0  0  0  0  0  0  0  0  0  0  0
    8.8515   -1.2342   -1.9909 H   0  0  0  0  0  0  0  0  0  0  0  0
    9.6698   -2.2421    0.1252 H   0  0  0  0  0  0  0  0  0  0  0  0
    8.2133   -2.0858    2.1534 H   0  0  0  0  0  0  0  0  0  0  0  0
    6.0342   -0.9638    2.0408 H   0  0  0  0  0  0  0  0  0  0  0  0
    2.9578    0.1652    3.6846 H   0  0  0  0  0  0  0  0  0  0  0  0
    0.0764   -0.2349    1.0714 H   0  0  0  0  0  0  0  0  0  0  0  0
   -2.1462   -1.1912    0.9323 H   0  0  0  0  0  0  0  0  0  0  0  0
   -5.2119    1.8736    0.4235 H   0  0  0  0  0  0  0  0  0  0  0  0
   -5.4101    1.2855   -1.2493 H   0  0  0  0  0  0  0  0  0  0  0  0
   -7.5816    0.8724   -0.6154 H   0  0  0  0  0  0  0  0  0  0  0  0
   -7.1782    1.0462    1.0971 H   0  0  0  0  0  0  0  0  0  0  0  0
  1  2  1  0
  2  3  1  0
  3  4  1  0
  4  5  1  0
  5  6  1  0
  6  7  2  0
  7  8  1  0
  8  9  2  0
  9 10  1  0
 10 11  1  0
 11 12  2  0
 12 13  1  0
 13 14  1  0
 14 15  2  0
 15 16  1  0
 16 17  1  0
 17 18  2  0
 18 19  1  0
 19 20  2  0
 20 21  1  0
 21 22  2  0
 13 23  2  0
 23 24  1  0
 24 25  2  0
  9 26  1  0
 26 27  2  0
  5 28  1  0
 28 29  1  0
 29  2  1  0
 27  6  1  0
 25 11  1  0
 22 14  1  0
 22 17  1  0
  1 30  1  0
  1 31  1  0
  1 32  1  0
  3 33  1  0
  3 34  1  0
  4 35  1  0
  4 36  1  0
  7 37  1  0
  8 38  1  0
 10 39  1  0
 12 40  1  0
 15 41  1  0
 16 42  1  0
 18 43  1  0
 19 44  1  0
 20 45  1  0
 21 46  1  0
 24 47  1  0
 26 48  1  0
 27 49  1  0
 28 50  1  0
 28 51  1  0
 29 52  1  0
 29 53  1  0
M  END
$$$$
