@<TRIPOS>MOLECULE
*****
 53 57 0 0 0
SMALL
GASTEIGER

@<TRIPOS>ATOM
      1 C          -7.9059   -1.5535   -0.5308 C.3     1  UNL1       -0.0126
      2 N          -7.0337   -0.8691    0.3602 N.3     1  UNL1       -0.3024
      3 C          -5.9415   -1.5997    0.8883 C.3     1  UNL1        0.0144
      4 C          -4.6284   -1.3999    0.1425 C.3     1  UNL1        0.0250
      5 N          -4.4102    0.0039    0.0102 N.pl3   1  UNL1       -0.3275
      6 C          -3.0956    0.5307    0.0770 C.ar    1  UNL1        0.0299
      7 C          -2.8455    1.8427   -0.3561 C.ar    1  UNL1       -0.0389
      8 C          -1.5932    2.3751   -0.2735 C.ar    1  UNL1       -0.0388
      9 C          -0.5161    1.6637    0.2341 C.ar    1  UNL1        0.0325
     10 N           0.7674    2.2602    0.3271 N.pl3   1  UNL1       -0.2993
     11 C           1.8566    1.5351    0.8430 C.ar    1  UNL1        0.1266
     12 C           2.8996    1.2183    0.0127 C.ar    1  UNL1        0.0045
     13 C           3.9810    0.5112    0.5130 C.ar    1  UNL1        0.0780
     14 C           5.0847    0.2006   -0.3853 C.ar    1  UNL1        0.0255
     15 C           5.2159    0.5115   -1.7191 C.ar    1  UNL1        0.0119
     16 N           6.3752    0.0664   -2.2016 N.ar    1  UNL1       -0.3600
     17 C           7.0210   -0.5461   -1.1804 C.ar    1  UNL1        0.0471
     18 C           8.2360   -1.1844   -1.0787 C.ar    1  UNL1       -0.0378
     19 C           8.6983   -1.7486    0.0949 C.ar    1  UNL1       -0.0598
     20 C           7.8864   -1.6529    1.1965 C.ar    1  UNL1       -0.0611
     21 C           6.6551   -1.0232    1.1544 C.ar    1  UNL1       -0.0520
     22 C           6.2258   -0.4701   -0.0395 C.ar    1  UNL1        0.0088
     23 N           3.9611    0.1643    1.7947 N.ar    1  UNL1       -0.2352
     24 C           2.9404    0.4648    2.6408 C.ar    1  UNL1        0.1187
     25 N           1.8966    1.1499    2.1507 N.ar    1  UNL1       -0.2206
     26 C          -0.7396    0.3808    0.6611 C.ar    1  UNL1       -0.0388
     27 C          -2.0256   -0.1691    0.5772 C.ar    1  UNL1       -0.0389
     28 C          -5.4819    0.9635   -0.1881 C.3     1  UNL1        0.0250
     29 C          -6.8399    0.5097    0.1589 C.3     1  UNL1        0.0144
     30 H          -7.5554   -1.4013   -1.5742 H       1  UNL1        0.0391
     31 H          -8.9332   -1.1470   -0.3756 H       1  UNL1        0.0391
     32 H          -7.8982   -2.6331   -0.2874 H       1  UNL1        0.0391
     33 H          -5.7468   -1.3945    1.9709 H       1  UNL1        0.0442
     34 H          -6.1675   -2.6887    0.8285 H       1  UNL1        0.0442
     35 H          -3.8833   -1.9618    0.7260 H       1  UNL1        0.0476
     36 H          -4.6674   -1.9260   -0.8516 H       1  UNL1        0.0476
     37 H          -3.6962    2.3955   -0.7606 H       1  UNL1        0.0637
     38 H          -1.4048    3.3885   -0.6102 H       1  UNL1        0.0637
     39 H           0.8942    3.2324    0.0092 H       1  UNL1        0.1536
     40 H           2.8853    1.5168   -1.0305 H       1  UNL1        0.0673
     41 H           4.4744    1.0537   -2.3178 H       1  UNL1        0.0814
     42 H           6.7800    0.1387   -3.1834 H       1  UNL1        0.1654
     43 H           8.8515   -1.2342   -1.9909 H       1  UNL1        0.0638
     44 H           9.6698   -2.2421    0.1252 H       1  UNL1        0.0618
     45 H           8.2133   -2.0858    2.1534 H       1  UNL1        0.0618
     46 H           6.0342   -0.9638    2.0408 H       1  UNL1        0.0624
     47 H           2.9578    0.1652    3.6846 H       1  UNL1        0.1048
     48 H           0.0764   -0.2349    1.0714 H       1  UNL1        0.0637
     49 H          -2.1462   -1.1912    0.9323 H       1  UNL1        0.0637
     50 H          -5.2119    1.8736    0.4235 H       1  UNL1        0.0476
     51 H          -5.4101    1.2855   -1.2493 H       1  UNL1        0.0476
     52 H          -7.5816    0.8724   -0.6154 H       1  UNL1        0.0442
     53 H          -7.1782    1.0462    1.0971 H       1  UNL1        0.0442
@<TRIPOS>BOND
     1     1     2    1
     2     2     3    1
     3     3     4    1
     4     4     5    1
     5     5     6    1
     6     6     7   ar
     7     7     8   ar
     8     8     9   ar
     9     9    10    1
    10    10    11    1
    11    11    12   ar
    12    12    13   ar
    13    13    14    1
    14    14    15   ar
    15    15    16   ar
    16    16    17   ar
    17    17    18   ar
    18    18    19   ar
    19    19    20   ar
    20    20    21   ar
    21    21    22   ar
    22    13    23   ar
    23    23    24   ar
    24    24    25   ar
    25     9    26   ar
    26    26    27   ar
    27     5    28    1
    28    28    29    1
    29    29     2    1
    30    27     6   ar
    31    25    11   ar
    32    22    14   ar
    33    22    17   ar
    34     1    30    1
    35     1    31    1
    36     1    32    1
    37     3    33    1
    38     3    34    1
    39     4    35    1
    40     4    36    1
    41     7    37    1
    42     8    38    1
    43    10    39    1
    44    12    40    1
    45    15    41    1
    46    16    42    1
    47    18    43    1
    48    19    44    1
    49    20    45    1
    50    21    46    1
    51    24    47    1
    52    26    48    1
    53    27    49    1
    54    28    50    1
    55    28    51    1
    56    29    52    1
    57    29    53    1
