
     RDKit          3D

 49 52  0  0  0  0  0  0  0  0999 V2000
   -8.7126   -0.1985   -0.2700 C   0  0  0  0  0  0  0  0  0  0  0  0
   -7.2573    0.0746   -0.1596 C   0  0  0  0  0  0  0  0  0  0  0  0
   -6.7355    1.2548   -0.6312 C   0  0  0  0  0  0  0  0  0  0  0  0
   -5.3659    1.5189   -0.5307 C   0  0  0  0  0  0  0  0  0  0  0  0
   -4.5009    0.6128    0.0395 C   0  0  0  0  0  0  0  0  0  0  0  0
   -3.0883    0.9402    0.1172 C   0  0  0  0  0  0  0  0  0  0  0  0
   -2.6732    2.0374   -0.3328 O   0  0  0  0  0  0  0  0  0  0  0  0
   -2.1132    0.0801    0.6837 N   0  0  0  0  0  0  0  0  0  0  0  0
   -0.7333    0.4076    0.7560 C   0  0  0  0  0  0  0  0  0  0  0  0
   -0.1831    1.0705    1.8350 C   0  0  0  0  0  0  0  0  0  0  0  0
    1.1593    1.3778    1.8825 C   0  0  0  0  0  0  0  0  0  0  0  0
    1.9479    1.0029    0.8152 C   0  0  0  0  0  0  0  0  0  0  0  0
    1.4441    0.3299   -0.3006 C   0  0  0  0  0  0  0  0  0  0  0  0
    2.2444   -0.0235   -1.3573 C   0  0  0  0  0  0  0  0  0  0  0  0
    3.5859    0.2593   -1.3526 O   0  0  0  0  0  0  0  0  0  0  0  0
    4.4049   -0.3380   -0.4083 C   0  0  0  0  0  0  0  0  0  0  0  0
    3.9942   -1.3405    0.4563 C   0  0  0  0  0  0  0  0  0  0  0  0
    4.8072   -1.8926    1.3525 N   0  0  0  0  0  0  0  0  0  0  0  0
    6.0783   -1.4795    1.4415 C   0  0  0  0  0  0  0  0  0  0  0  0
    6.5752   -0.4782    0.6129 C   0  0  0  0  0  0  0  0  0  0  0  0
    7.9625   -0.0691    0.7529 C   0  0  0  0  0  0  0  0  0  0  0  0
    8.4648    0.9472   -0.0892 N   0  0  0  0  0  0  0  0  0  0  0  0
    8.7045   -0.6027    1.6015 O   0  0  0  0  0  0  0  0  0  0  0  0
    5.7290    0.0884   -0.3115 C   0  0  0  0  0  0  0  0  0  0  0  0
    1.6591   -0.6717   -2.4271 C   0  0  0  0  0  0  0  0  0  0  0  0
    0.3018   -0.9622   -2.4397 C   0  0  0  0  0  0  0  0  0  0  0  0
   -0.4850   -0.6020   -1.3711 C   0  0  0  0  0  0  0  0  0  0  0  0
    0.0764    0.0431   -0.2993 C   0  0  0  0  0  0  0  0  0  0  0  0
   -5.0244   -0.5701    0.5121 C   0  0  0  0  0  0  0  0  0  0  0  0
   -6.3874   -0.8351    0.4131 C   0  0  0  0  0  0  0  0  0  0  0  0
   -8.9278   -1.2096   -0.6801 H   0  0  0  0  0  0  0  0  0  0  0  0
   -9.1635   -0.1284    0.7375 H   0  0  0  0  0  0  0  0  0  0  0  0
   -9.1732    0.5644   -0.9218 H   0  0  0  0  0  0  0  0  0  0  0  0
   -7.4046    1.9836   -1.0854 H   0  0  0  0  0  0  0  0  0  0  0  0
   -5.0492    2.4732   -0.9293 H   0  0  0  0  0  0  0  0  0  0  0  0
   -2.4064   -0.8382    1.0693 H   0  0  0  0  0  0  0  0  0  0  0  0
   -0.8458    1.3385    2.6395 H   0  0  0  0  0  0  0  0  0  0  0  0
    1.6029    1.9065    2.7404 H   0  0  0  0  0  0  0  0  0  0  0  0
    3.0039    1.2597    0.8462 H   0  0  0  0  0  0  0  0  0  0  0  0
    2.9476   -1.6705    0.3695 H   0  0  0  0  0  0  0  0  0  0  0  0
    6.7506   -1.9126    2.1584 H   0  0  0  0  0  0  0  0  0  0  0  0
    9.0980    0.7068   -0.8510 H   0  0  0  0  0  0  0  0  0  0  0  0
    8.1935    1.9391    0.0619 H   0  0  0  0  0  0  0  0  0  0  0  0
    6.0857    0.8799   -0.9812 H   0  0  0  0  0  0  0  0  0  0  0  0
    2.2958   -0.9478   -3.2604 H   0  0  0  0  0  0  0  0  0  0  0  0
   -0.1205   -1.4696   -3.2927 H   0  0  0  0  0  0  0  0  0  0  0  0
   -1.5589   -0.8206   -1.3567 H   0  0  0  0  0  0  0  0  0  0  0  0
   -4.3853   -1.3113    0.9673 H   0  0  0  0  0  0  0  0  0  0  0  0
   -6.8222   -1.7581    0.7775 H   0  0  0  0  0  0  0  0  0  0  0  0
  1  2  1  0
  2  3  2  0
  3  4  1  0
  4  5  2  0
  5  6  1  0
  6  7  2  0
  6  8  1  0
  8  9  1  0
  9 10  2  0
 10 11  1  0
 11 12  2  0
 12 13  1  0
 13 14  2  0
 14 15  1  0
 15 16  1  0
 16 17  2  0
 17 18  1  0
 18 19  2  0
 19 20  1  0
 20 21  1  0
 21 22  1  0
 21 23  2  0
 20 24  2  0
 14 25  1  0
 25 26  2  0
 26 27  1  0
 27 28  2  0
  5 29  1  0
 29 30  2  0
 30  2  1  0
 28  9  1  0
 28 13  1  0
 24 16  1  0
  1 31  1  0
  1 32  1  0
  1 33  1  0
  3 34  1  0
  4 35  1  0
  8 36  1  0
 10 37  1  0
 11 38  1  0
 12 39  1  0
 17 40  1  0
 19 41  1  0
 22 42  1  0
 22 43  1  0
 24 44  1  0
 25 45  1  0
 26 46  1  0
 27 47  1  0
 29 48  1  0
 30 49  1  0
M  END
$$$$
