@<TRIPOS>MOLECULE
*****
 49 52 0 0 0
SMALL
GASTEIGER

@<TRIPOS>ATOM
      1 C          -8.7126   -0.1985   -0.2700 C.3     1  UNL1       -0.0397
      2 C          -7.2573    0.0746   -0.1596 C.ar    1  UNL1       -0.0504
      3 C          -6.7355    1.2548   -0.6312 C.ar    1  UNL1       -0.0581
      4 C          -5.3659    1.5189   -0.5307 C.ar    1  UNL1       -0.0494
      5 C          -4.5009    0.6128    0.0395 C.ar    1  UNL1        0.0370
      6 C          -3.0883    0.9402    0.1172 C.2     1  UNL1        0.2483
      7 O          -2.6732    2.0374   -0.3328 O.2     1  UNL1       -0.2699
      8 N          -2.1132    0.0801    0.6837 N.am    1  UNL1       -0.2810
      9 C          -0.7333    0.4076    0.7560 C.ar    1  UNL1        0.0415
     10 C          -0.1831    1.0705    1.8350 C.ar    1  UNL1       -0.0399
     11 C           1.1593    1.3778    1.8825 C.ar    1  UNL1       -0.0593
     12 C           1.9479    1.0029    0.8152 C.ar    1  UNL1       -0.0504
     13 C           1.4441    0.3299   -0.3006 C.ar    1  UNL1        0.0262
     14 C           2.2444   -0.0235   -1.3573 C.ar    1  UNL1        0.1362
     15 O           3.5859    0.2593   -1.3526 O.3     1  UNL1       -0.4539
     16 C           4.4049   -0.3380   -0.4083 C.ar    1  UNL1        0.1472
     17 C           3.9942   -1.3405    0.4563 C.ar    1  UNL1        0.0698
     18 N           4.8072   -1.8926    1.3525 N.ar    1  UNL1       -0.2589
     19 C           6.0783   -1.4795    1.4415 C.ar    1  UNL1        0.0399
     20 C           6.5752   -0.4782    0.6129 C.ar    1  UNL1        0.0580
     21 C           7.9625   -0.0691    0.7529 C.2     1  UNL1        0.2431
     22 N           8.4648    0.9472   -0.0892 N.am    1  UNL1       -0.3253
     23 O           8.7045   -0.6027    1.6015 O.2     1  UNL1       -0.2704
     24 C           5.7290    0.0884   -0.3115 C.ar    1  UNL1       -0.0043
     25 C           1.6591   -0.6717   -2.4271 C.ar    1  UNL1       -0.0187
     26 C           0.3018   -0.9622   -2.4397 C.ar    1  UNL1       -0.0576
     27 C          -0.4850   -0.6020   -1.3711 C.ar    1  UNL1       -0.0520
     28 C           0.0764    0.0431   -0.2993 C.ar    1  UNL1        0.0068
     29 C          -5.0244   -0.5701    0.5121 C.ar    1  UNL1       -0.0494
     30 C          -6.3874   -0.8351    0.4131 C.ar    1  UNL1       -0.0581
     31 H          -8.9278   -1.2096   -0.6801 H       1  UNL1        0.0278
     32 H          -9.1635   -0.1284    0.7375 H       1  UNL1        0.0278
     33 H          -9.1732    0.5644   -0.9218 H       1  UNL1        0.0278
     34 H          -7.4046    1.9836   -1.0854 H       1  UNL1        0.0620
     35 H          -5.0492    2.4732   -0.9293 H       1  UNL1        0.0625
     36 H          -2.4064   -0.8382    1.0693 H       1  UNL1        0.1552
     37 H          -0.8458    1.3385    2.6395 H       1  UNL1        0.0636
     38 H           1.6029    1.9065    2.7404 H       1  UNL1        0.0618
     39 H           3.0039    1.2597    0.8462 H       1  UNL1        0.0625
     40 H           2.9476   -1.6705    0.3695 H       1  UNL1        0.0867
     41 H           6.7506   -1.9126    2.1584 H       1  UNL1        0.0837
     42 H           9.0980    0.7068   -0.8510 H       1  UNL1        0.1453
     43 H           8.1935    1.9391    0.0619 H       1  UNL1        0.1453
     44 H           6.0857    0.8799   -0.9812 H       1  UNL1        0.0663
     45 H           2.2958   -0.9478   -3.2604 H       1  UNL1        0.0654
     46 H          -0.1205   -1.4696   -3.2927 H       1  UNL1        0.0619
     47 H          -1.5589   -0.8206   -1.3567 H       1  UNL1        0.0624
     48 H          -4.3853   -1.3113    0.9673 H       1  UNL1        0.0625
     49 H          -6.8222   -1.7581    0.7775 H       1  UNL1        0.0620
@<TRIPOS>BOND
     1     1     2    1
     2     2     3   ar
     3     3     4   ar
     4     4     5   ar
     5     5     6    1
     6     6     7    2
     7     6     8   am
     8     8     9    1
     9     9    10   ar
    10    10    11   ar
    11    11    12   ar
    12    12    13   ar
    13    13    14   ar
    14    14    15    1
    15    15    16    1
    16    16    17   ar
    17    17    18   ar
    18    18    19   ar
    19    19    20   ar
    20    20    21    1
    21    21    22   am
    22    21    23    2
    23    20    24   ar
    24    14    25   ar
    25    25    26   ar
    26    26    27   ar
    27    27    28   ar
    28     5    29   ar
    29    29    30   ar
    30    30     2   ar
    31    28     9   ar
    32    28    13   ar
    33    24    16   ar
    34     1    31    1
    35     1    32    1
    36     1    33    1
    37     3    34    1
    38     4    35    1
    39     8    36    1
    40    10    37    1
    41    11    38    1
    42    12    39    1
    43    17    40    1
    44    19    41    1
    45    22    42    1
    46    22    43    1
    47    24    44    1
    48    25    45    1
    49    26    46    1
    50    27    47    1
    51    29    48    1
    52    30    49    1
