
     RDKit          3D

 69 74  0  0  0  0  0  0  0  0999 V2000
    9.4734    3.5975   -1.4293 C   0  0  0  0  0  0  0  0  0  0  0  0
    9.8371    2.3601   -0.9510 O   0  0  0  0  0  0  0  0  0  0  0  0
    9.3890    2.1998    0.3437 C   0  0  0  0  0  0  0  0  0  0  0  0
    7.9086    2.3142    0.3902 C   0  0  0  0  0  0  0  0  0  0  0  0
    7.0572    1.2633    0.2457 N   0  0  0  0  0  0  0  0  0  0  0  0
    5.8377    1.7906    0.3510 C   0  0  0  0  0  0  0  0  0  0  0  0
    4.6073    1.0146    0.2579 C   0  0  0  0  0  0  0  0  0  0  0  0
    3.6770    1.3871   -0.6865 C   0  0  0  0  0  0  0  0  0  0  0  0
    2.4869    0.6570   -0.7933 C   0  0  0  0  0  0  0  0  0  0  0  0
    2.2406   -0.4237    0.0331 C   0  0  0  0  0  0  0  0  0  0  0  0
    1.0179   -1.1250   -0.1302 N   0  0  0  0  0  0  0  0  0  0  0  0
    0.5429   -2.2287    0.6536 C   0  0  0  0  0  0  0  0  0  0  0  0
    1.0961   -2.7854    1.6220 O   0  0  0  0  0  0  0  0  0  0  0  0
   -0.7445   -2.6150    0.1181 N   0  0  0  0  0  0  0  0  0  0  0  0
   -1.3007   -3.9057    0.2024 C   0  0  0  0  0  0  0  0  0  0  0  0
   -1.0376   -4.8223   -0.8117 C   0  0  0  0  0  0  0  0  0  0  0  0
   -1.6053   -6.0706   -0.6828 C   0  0  0  0  0  0  0  0  0  0  0  0
   -1.3808   -6.9181   -1.5908 O   0  0  0  0  0  0  0  0  0  0  0  0
   -2.3912   -6.4153    0.3790 N   0  0  0  0  0  0  0  0  0  0  0  0
   -2.6193   -5.5000    1.3351 C   0  0  0  0  0  0  0  0  0  0  0  0
   -2.0848   -4.2734    1.2465 N   0  0  0  0  0  0  0  0  0  0  0  0
   -1.2623   -1.3853   -0.4874 C   0  0  0  0  0  0  0  0  0  0  0  0
   -2.3291   -1.6918   -1.4784 C   0  0  0  0  0  0  0  0  0  0  0  0
   -3.0529   -0.4740   -1.9273 C   0  0  0  0  0  0  0  0  0  0  0  0
   -3.5068    0.3963   -0.8979 N   0  0  0  0  0  0  0  0  0  0  0  0
   -4.9706    0.4339   -0.9591 C   0  0  0  0  0  0  0  0  0  0  0  0
   -5.5529    1.3012    0.0554 C   0  0  0  0  0  0  0  0  0  0  0  0
   -6.1260    0.7785    1.1448 N   0  0  0  0  0  0  0  0  0  0  0  0
   -6.6797    1.5069    2.1198 C   0  0  0  0  0  0  0  0  0  0  0  0
   -6.6787    2.8752    2.0318 C   0  0  0  0  0  0  0  0  0  0  0  0
   -6.1073    3.4766    0.9404 C   0  0  0  0  0  0  0  0  0  0  0  0
   -5.5431    2.6719   -0.0491 C   0  0  0  0  0  0  0  0  0  0  0  0
   -4.9196    3.2801   -1.2390 C   0  0  0  0  0  0  0  0  0  0  0  0
   -3.1652   -0.0268    0.4360 C   0  0  0  0  0  0  0  0  0  0  0  0
   -1.7374   -0.4572    0.5759 C   0  0  0  0  0  0  0  0  0  0  0  0
    0.0082   -0.8874   -1.1051 C   0  0  0  0  0  0  0  0  0  0  0  0
    0.1564   -0.3730   -2.2359 O   0  0  0  0  0  0  0  0  0  0  0  0
    3.1739   -0.7984    0.9815 C   0  0  0  0  0  0  0  0  0  0  0  0
    4.3620   -0.0598    1.0793 C   0  0  0  0  0  0  0  0  0  0  0  0
    5.9301    3.1195    0.5529 N   0  0  0  0  0  0  0  0  0  0  0  0
    7.2022    3.3929    0.5695 O   0  0  0  0  0  0  0  0  0  0  0  0
    8.3758    3.7182   -1.4245 H   0  0  0  0  0  0  0  0  0  0  0  0
    9.7763    3.6406   -2.5144 H   0  0  0  0  0  0  0  0  0  0  0  0
    9.9992    4.4091   -0.8763 H   0  0  0  0  0  0  0  0  0  0  0  0
    9.7767    3.0641    0.9502 H   0  0  0  0  0  0  0  0  0  0  0  0
    9.7023    1.2298    0.7758 H   0  0  0  0  0  0  0  0  0  0  0  0
    3.8210    2.2206   -1.3548 H   0  0  0  0  0  0  0  0  0  0  0  0
    1.7836    0.9957   -1.5499 H   0  0  0  0  0  0  0  0  0  0  0  0
   -0.4208   -4.5849   -1.6678 H   0  0  0  0  0  0  0  0  0  0  0  0
   -2.7866   -7.3857    0.4047 H   0  0  0  0  0  0  0  0  0  0  0  0
   -3.2374   -5.7556    2.1789 H   0  0  0  0  0  0  0  0  0  0  0  0
   -2.9827   -2.4840   -1.0627 H   0  0  0  0  0  0  0  0  0  0  0  0
   -1.8386   -2.1398   -2.3915 H   0  0  0  0  0  0  0  0  0  0  0  0
   -3.8827   -0.8016   -2.6088 H   0  0  0  0  0  0  0  0  0  0  0  0
   -2.3641    0.1074   -2.5975 H   0  0  0  0  0  0  0  0  0  0  0  0
   -5.2333    0.7496   -2.0034 H   0  0  0  0  0  0  0  0  0  0  0  0
   -5.2999   -0.6179   -0.8646 H   0  0  0  0  0  0  0  0  0  0  0  0
   -7.1445    1.0788    3.0040 H   0  0  0  0  0  0  0  0  0  0  0  0
   -7.1322    3.4927    2.8279 H   0  0  0  0  0  0  0  0  0  0  0  0
   -6.1110    4.5544    0.8779 H   0  0  0  0  0  0  0  0  0  0  0  0
   -3.8139    3.1137   -1.2870 H   0  0  0  0  0  0  0  0  0  0  0  0
   -5.3444    2.8879   -2.1849 H   0  0  0  0  0  0  0  0  0  0  0  0
   -5.0993    4.3605   -1.2249 H   0  0  0  0  0  0  0  0  0  0  0  0
   -3.8597   -0.7840    0.8519 H   0  0  0  0  0  0  0  0  0  0  0  0
   -3.2914    0.8820    1.0964 H   0  0  0  0  0  0  0  0  0  0  0  0
   -1.6387   -0.9499    1.5721 H   0  0  0  0  0  0  0  0  0  0  0  0
   -1.0342    0.4185    0.6240 H   0  0  0  0  0  0  0  0  0  0  0  0
    3.0001   -1.6272    1.6239 H   0  0  0  0  0  0  0  0  0  0  0  0
    5.0717   -0.3732    1.8257 H   0  0  0  0  0  0  0  0  0  0  0  0
  1  2  1  0
  2  3  1  0
  3  4  1  0
  4  5  2  0
  5  6  1  0
  6  7  1  0
  7  8  2  0
  8  9  1  0
  9 10  2  0
 10 11  1  0
 11 12  1  0
 12 13  2  0
 12 14  1  0
 14 15  1  0
 15 16  2  0
 16 17  1  0
 17 18  2  0
 17 19  1  0
 19 20  1  0
 20 21  2  0
 14 22  1  0
 22 23  1  0
 23 24  1  0
 24 25  1  0
 25 26  1  0
 26 27  1  0
 27 28  2  0
 28 29  1  0
 29 30  2  0
 30 31  1  0
 31 32  2  0
 32 33  1  0
 25 34  1  0
 34 35  1  0
 22 36  1  0
 36 37  2  0
 10 38  1  0
 38 39  2  0
  6 40  2  0
 40 41  1  0
 41  4  1  0
 39  7  1  0
 36 11  1  0
 21 15  1  0
 35 22  1  0
 32 27  1  0
  1 42  1  0
  1 43  1  0
  1 44  1  0
  3 45  1  0
  3 46  1  0
  8 47  1  0
  9 48  1  0
 16 49  1  0
 19 50  1  0
 20 51  1  0
 23 52  1  0
 23 53  1  0
 24 54  1  0
 24 55  1  0
 26 56  1  0
 26 57  1  0
 29 58  1  0
 30 59  1  0
 31 60  1  0
 33 61  1  0
 33 62  1  0
 33 63  1  0
 34 64  1  0
 34 65  1  0
 35 66  1  0
 35 67  1  0
 38 68  1  0
 39 69  1  0
M  END
$$$$
