@<TRIPOS>MOLECULE
*****
 69 74 0 0 0
SMALL
GASTEIGER

@<TRIPOS>ATOM
      1 C           9.4734    3.5975   -1.4293 C.3     1  UNL1        0.0371
      2 O           9.8371    2.3601   -0.9510 O.3     1  UNL1       -0.3736
      3 C           9.3890    2.1998    0.3437 C.3     1  UNL1        0.1258
      4 C           7.9086    2.3142    0.3902 C.ar    1  UNL1        0.2534
      5 N           7.0572    1.2633    0.2457 N.ar    1  UNL1       -0.1894
      6 C           5.8377    1.7906    0.3510 C.ar    1  UNL1        0.2021
      7 C           4.6073    1.0146    0.2579 C.ar    1  UNL1        0.0226
      8 C           3.6770    1.3871   -0.6865 C.ar    1  UNL1       -0.0492
      9 C           2.4869    0.6570   -0.7933 C.ar    1  UNL1       -0.0391
     10 C           2.2406   -0.4237    0.0331 C.ar    1  UNL1        0.0455
     11 N           1.0179   -1.1250   -0.1302 N.am    1  UNL1       -0.1920
     12 C           0.5429   -2.2287    0.6536 C.2     1  UNL1        0.3219
     13 O           1.0961   -2.7854    1.6220 O.2     1  UNL1       -0.2512
     14 N          -0.7445   -2.6150    0.1181 N.am    1  UNL1       -0.2240
     15 C          -1.3007   -3.9057    0.2024 C.ar    1  UNL1        0.1364
     16 C          -1.0376   -4.8223   -0.8117 C.ar    1  UNL1        0.0432
     17 C          -1.6053   -6.0706   -0.6828 C.ar    1  UNL1        0.2531
     18 O          -1.3808   -6.9181   -1.5908 O.2     1  UNL1       -0.2678
     19 N          -2.3912   -6.4153    0.3790 N.ar    1  UNL1       -0.3133
     20 C          -2.6193   -5.5000    1.3351 C.ar    1  UNL1        0.0981
     21 N          -2.0848   -4.2734    1.2465 N.ar    1  UNL1       -0.2220
     22 C          -1.2623   -1.3853   -0.4874 C.3     1  UNL1        0.1240
     23 C          -2.3291   -1.6918   -1.4784 C.3     1  UNL1       -0.0095
     24 C          -3.0529   -0.4740   -1.9273 C.3     1  UNL1        0.0017
     25 N          -3.5068    0.3963   -0.8979 N.3     1  UNL1       -0.2965
     26 C          -4.9706    0.4339   -0.9591 C.3     1  UNL1        0.0415
     27 C          -5.5529    1.3012    0.0554 C.ar    1  UNL1        0.0581
     28 N          -6.1260    0.7785    1.1448 N.ar    1  UNL1       -0.2583
     29 C          -6.6797    1.5069    2.1198 C.ar    1  UNL1        0.0279
     30 C          -6.6787    2.8752    2.0318 C.ar    1  UNL1       -0.0433
     31 C          -6.1073    3.4766    0.9404 C.ar    1  UNL1       -0.0557
     32 C          -5.5431    2.6719   -0.0491 C.ar    1  UNL1       -0.0279
     33 C          -4.9196    3.2801   -1.2390 C.3     1  UNL1       -0.0380
     34 C          -3.1652   -0.0268    0.4360 C.3     1  UNL1        0.0017
     35 C          -1.7374   -0.4572    0.5759 C.3     1  UNL1       -0.0095
     36 C           0.0082   -0.8874   -1.1051 C.2     1  UNL1        0.2516
     37 O           0.1564   -0.3730   -2.2359 O.2     1  UNL1       -0.2724
     38 C           3.1739   -0.7984    0.9815 C.ar    1  UNL1       -0.0391
     39 C           4.3620   -0.0598    1.0793 C.ar    1  UNL1       -0.0492
     40 N           5.9301    3.1195    0.5529 N.ar    1  UNL1       -0.0560
     41 O           7.2022    3.3929    0.5695 O.2     1  UNL1       -0.3353
     42 H           8.3758    3.7182   -1.4245 H       1  UNL1        0.0524
     43 H           9.7763    3.6406   -2.5144 H       1  UNL1        0.0524
     44 H           9.9992    4.4091   -0.8763 H       1  UNL1        0.0524
     45 H           9.7767    3.0641    0.9502 H       1  UNL1        0.0659
     46 H           9.7023    1.2298    0.7758 H       1  UNL1        0.0659
     47 H           3.8210    2.2206   -1.3548 H       1  UNL1        0.0625
     48 H           1.7836    0.9957   -1.5499 H       1  UNL1        0.0636
     49 H          -0.4208   -4.5849   -1.6678 H       1  UNL1        0.0706
     50 H          -2.7866   -7.3857    0.4047 H       1  UNL1        0.1698
     51 H          -3.2374   -5.7556    2.1789 H       1  UNL1        0.1028
     52 H          -2.9827   -2.4840   -1.0627 H       1  UNL1        0.0303
     53 H          -1.8386   -2.1398   -2.3915 H       1  UNL1        0.0303
     54 H          -3.8827   -0.8016   -2.6088 H       1  UNL1        0.0427
     55 H          -2.3641    0.1074   -2.5975 H       1  UNL1        0.0427
     56 H          -5.2333    0.7496   -2.0034 H       1  UNL1        0.0491
     57 H          -5.2999   -0.6179   -0.8646 H       1  UNL1        0.0491
     58 H          -7.1445    1.0788    3.0040 H       1  UNL1        0.0829
     59 H          -7.1322    3.4927    2.8279 H       1  UNL1        0.0633
     60 H          -6.1110    4.5544    0.8779 H       1  UNL1        0.0621
     61 H          -3.8139    3.1137   -1.2870 H       1  UNL1        0.0278
     62 H          -5.3444    2.8879   -2.1849 H       1  UNL1        0.0278
     63 H          -5.0993    4.3605   -1.2249 H       1  UNL1        0.0278
     64 H          -3.8597   -0.7840    0.8519 H       1  UNL1        0.0427
     65 H          -3.2914    0.8820    1.0964 H       1  UNL1        0.0427
     66 H          -1.6387   -0.9499    1.5721 H       1  UNL1        0.0303
     67 H          -1.0342    0.4185    0.6240 H       1  UNL1        0.0303
     68 H           3.0001   -1.6272    1.6239 H       1  UNL1        0.0636
     69 H           5.0717   -0.3732    1.8257 H       1  UNL1        0.0625
@<TRIPOS>BOND
     1     1     2    1
     2     2     3    1
     3     3     4    1
     4     4     5   ar
     5     5     6   ar
     6     6     7    1
     7     7     8   ar
     8     8     9   ar
     9     9    10   ar
    10    10    11    1
    11    11    12   am
    12    12    13    2
    13    12    14   am
    14    14    15    1
    15    15    16   ar
    16    16    17   ar
    17    17    18    2
    18    17    19   ar
    19    19    20   ar
    20    20    21   ar
    21    14    22    1
    22    22    23    1
    23    23    24    1
    24    24    25    1
    25    25    26    1
    26    26    27    1
    27    27    28   ar
    28    28    29   ar
    29    29    30   ar
    30    30    31   ar
    31    31    32   ar
    32    32    33    1
    33    25    34    1
    34    34    35    1
    35    22    36    1
    36    36    37    2
    37    10    38   ar
    38    38    39   ar
    39     6    40   ar
    40    40    41   ar
    41    41     4   ar
    42    39     7   ar
    43    36    11   am
    44    21    15   ar
    45    35    22    1
    46    32    27   ar
    47     1    42    1
    48     1    43    1
    49     1    44    1
    50     3    45    1
    51     3    46    1
    52     8    47    1
    53     9    48    1
    54    16    49    1
    55    19    50    1
    56    20    51    1
    57    23    52    1
    58    23    53    1
    59    24    54    1
    60    24    55    1
    61    26    56    1
    62    26    57    1
    63    29    58    1
    64    30    59    1
    65    31    60    1
    66    33    61    1
    67    33    62    1
    68    33    63    1
    69    34    64    1
    70    34    65    1
    71    35    66    1
    72    35    67    1
    73    38    68    1
    74    39    69    1
