@<TRIPOS>MOLECULE
*****
 49 53 0 0 0
SMALL
GASTEIGER

@<TRIPOS>ATOM
      1 C          -3.2597   -3.9067    1.2306 C.3     1  UNL1       -0.0376
      2 C          -3.1042   -2.7147    0.3794 C.ar    1  UNL1       -0.0205
      3 C          -3.9768   -2.0935   -0.4789 C.ar    1  UNL1        0.0082
      4 N          -3.3886   -1.0242   -1.0470 N.ar    1  UNL1       -0.3508
      5 C          -4.0812   -0.1762   -2.0021 C.3     1  UNL1        0.0117
      6 C          -2.1459   -0.9481   -0.5650 C.ar    1  UNL1        0.0564
      7 C          -1.9256   -1.9667    0.3155 C.ar    1  UNL1        0.0630
      8 C          -0.5591   -1.8254    0.7936 C.2     1  UNL1        0.2538
      9 O           0.0089   -2.5977    1.6346 O.2     1  UNL1       -0.2695
     10 N           0.0497   -0.6825    0.1719 N.am    1  UNL1       -0.2530
     11 C           1.3964   -0.2928    0.4105 C.ar    1  UNL1        0.0545
     12 C           1.7769    0.5422    1.4322 C.ar    1  UNL1       -0.0324
     13 C           3.0868    0.9142    1.6456 C.ar    1  UNL1       -0.0041
     14 C           3.4483    1.8190    2.7632 C.3     1  UNL1       -0.0361
     15 C           4.0618    0.4356    0.8076 C.ar    1  UNL1        0.1642
     16 N           5.4035    0.5918    0.7297 N.ar    1  UNL1       -0.1290
     17 N           5.8445   -0.1136   -0.2947 N.ar    1  UNL1       -0.1278
     18 C           4.8164   -0.7292   -0.8894 C.ar    1  UNL1        0.2041
     19 C           4.8560   -1.6340   -2.0918 C.3     1  UNL1        0.2980
     20 F           4.1727   -0.9405   -3.0950 F       1  UNL1       -0.2005
     21 F           4.2394   -2.8261   -1.8174 F       1  UNL1       -0.2005
     22 N           3.7072   -0.3815   -0.1956 N.ar    1  UNL1       -0.2798
     23 C           2.4071   -0.7499   -0.4067 C.ar    1  UNL1        0.0345
     24 C          -0.9351   -0.1038   -0.6797 C.3     1  UNL1        0.0972
     25 C          -1.2287    1.3251   -0.4168 C.ar    1  UNL1       -0.0208
     26 C          -1.2857    2.2487   -1.4405 C.ar    1  UNL1       -0.0550
     27 C          -1.5639    3.5795   -1.2324 C.ar    1  UNL1       -0.0431
     28 C          -1.7988    4.0293    0.0472 C.ar    1  UNL1        0.0410
     29 CL         -2.1535    5.7319    0.3035 Cl      1  UNL1       -0.0835
     30 C          -1.7476    3.1239    1.0917 C.ar    1  UNL1       -0.0431
     31 C          -1.4639    1.7776    0.8615 C.ar    1  UNL1       -0.0550
     32 H          -3.5091   -3.5636    2.2530 H       1  UNL1        0.0278
     33 H          -4.0678   -4.5378    0.7919 H       1  UNL1        0.0278
     34 H          -2.3297   -4.5433    1.2354 H       1  UNL1        0.0278
     35 H          -4.9904   -2.4534   -0.6425 H       1  UNL1        0.0812
     36 H          -3.3602    0.5130   -2.4861 H       1  UNL1        0.0456
     37 H          -4.5814   -0.8296   -2.7433 H       1  UNL1        0.0456
     38 H          -4.9090    0.4081   -1.5093 H       1  UNL1        0.0456
     39 H           0.9736    0.9079    2.0926 H       1  UNL1        0.0640
     40 H           4.4928    1.6567    3.1047 H       1  UNL1        0.0279
     41 H           3.3714    2.8629    2.3691 H       1  UNL1        0.0279
     42 H           2.7924    1.6609    3.6438 H       1  UNL1        0.0279
     43 H           5.8900   -1.7201   -2.4245 H       1  UNL1        0.1105
     44 H           2.1805   -1.4109   -1.2310 H       1  UNL1        0.0833
     45 H          -0.5307   -0.1714   -1.7325 H       1  UNL1        0.0619
     46 H          -1.0969    1.8706   -2.4424 H       1  UNL1        0.0621
     47 H          -1.6068    4.3033   -2.0501 H       1  UNL1        0.0632
     48 H          -1.9359    3.5031    2.0872 H       1  UNL1        0.0632
     49 H          -1.4405    1.1320    1.7185 H       1  UNL1        0.0621
@<TRIPOS>BOND
     1     1     2    1
     2     2     3   ar
     3     3     4   ar
     4     4     5    1
     5     4     6   ar
     6     6     7   ar
     7     7     8    1
     8     8     9    2
     9     8    10   am
    10    10    11    1
    11    11    12   ar
    12    12    13   ar
    13    13    14    1
    14    13    15   ar
    15    15    16   ar
    16    16    17   ar
    17    17    18   ar
    18    18    19    1
    19    19    20    1
    20    19    21    1
    21    18    22   ar
    22    22    23   ar
    23    10    24    1
    24    24    25    1
    25    25    26   ar
    26    26    27   ar
    27    27    28   ar
    28    28    29    1
    29    28    30   ar
    30    30    31   ar
    31     7     2   ar
    32    23    11   ar
    33    31    25   ar
    34    24     6    1
    35    22    15   ar
    36     1    32    1
    37     1    33    1
    38     1    34    1
    39     3    35    1
    40     5    36    1
    41     5    37    1
    42     5    38    1
    43    12    39    1
    44    14    40    1
    45    14    41    1
    46    14    42    1
    47    19    43    1
    48    23    44    1
    49    24    45    1
    50    26    46    1
    51    27    47    1
    52    30    48    1
    53    31    49    1
