@<TRIPOS>MOLECULE
*****
 55 58 0 0 0
SMALL
GASTEIGER

@<TRIPOS>ATOM
      1 C          -4.6859    3.2092    0.6767 C.3     1  UNL1       -0.0546
      2 C          -3.3052    3.1919    0.1086 C.3     1  UNL1        0.0063
      3 C          -3.3111    3.7680   -1.2973 C.3     1  UNL1       -0.0546
      4 C          -2.3845    4.0541    0.9379 C.3     1  UNL1       -0.0546
      5 C          -2.7131    1.8367   -0.0089 C.ar    1  UNL1        0.0706
      6 N          -3.1984    0.6423    0.3030 N.ar    1  UNL1       -0.1691
      7 N          -2.2844   -0.2852    0.0126 N.ar    1  UNL1       -0.2180
      8 C          -1.1856    0.2982   -0.4953 C.ar    1  UNL1        0.1299
      9 N           0.0471   -0.2457   -0.9530 N.am    1  UNL1       -0.2538
     10 C           1.2182   -0.4740   -0.1811 C.2     1  UNL1        0.3092
     11 O           1.1469   -0.1588    1.0331 O.2     1  UNL1       -0.2521
     12 N           2.3312   -1.0257   -0.8485 N.am    1  UNL1       -0.2686
     13 C           3.5492   -1.2908   -0.1612 C.ar    1  UNL1        0.0425
     14 C           4.5119   -0.3040   -0.1044 C.ar    1  UNL1        0.0034
     15 C           4.2780    0.9159   -0.7118 C.ar    1  UNL1       -0.0523
     16 C           5.2080    1.9477   -0.6888 C.ar    1  UNL1       -0.0611
     17 C           6.4052    1.6947   -0.0164 C.ar    1  UNL1       -0.0612
     18 C           6.7064    0.4947    0.6149 C.ar    1  UNL1       -0.0540
     19 C           5.7233   -0.4699    0.5394 C.ar    1  UNL1       -0.0161
     20 C           5.9980   -1.6743    1.1598 C.ar    1  UNL1       -0.0539
     21 C           5.0293   -2.6597    1.0996 C.ar    1  UNL1       -0.0594
     22 C           3.8155   -2.5006    0.4575 C.ar    1  UNL1       -0.0398
     23 C          -1.4405    1.6740   -0.5188 C.ar    1  UNL1        0.0021
     24 C          -2.4145   -1.6895    0.1976 C.ar    1  UNL1        0.0692
     25 C          -1.6323   -2.4758    1.0181 C.ar    1  UNL1       -0.0361
     26 C          -1.8343   -3.8353    1.1333 C.ar    1  UNL1       -0.0580
     27 C          -2.8392   -4.4474    0.4189 C.ar    1  UNL1       -0.0409
     28 C          -3.6561   -3.7173   -0.4189 C.ar    1  UNL1        0.0266
     29 N          -4.6997   -4.3317   -1.1654 N.pl3   1  UNL1       -0.3579
     30 C          -3.4078   -2.3673   -0.4934 C.ar    1  UNL1       -0.0155
     31 H          -5.4049    3.1112   -0.1870 H       1  UNL1        0.0239
     32 H          -4.8794    2.4036    1.4038 H       1  UNL1        0.0239
     33 H          -4.8435    4.2267    1.1258 H       1  UNL1        0.0239
     34 H          -2.3488    4.2154   -1.5845 H       1  UNL1        0.0239
     35 H          -3.4925    2.9515   -2.0375 H       1  UNL1        0.0239
     36 H          -4.0976    4.5442   -1.3991 H       1  UNL1        0.0239
     37 H          -2.5241    5.0980    0.5895 H       1  UNL1        0.0239
     38 H          -1.3263    3.7282    0.8735 H       1  UNL1        0.0239
     39 H          -2.6593    3.9842    2.0127 H       1  UNL1        0.0239
     40 H          -0.0794   -0.4444   -1.9715 H       1  UNL1        0.1578
     41 H           2.2963   -1.2579   -1.8719 H       1  UNL1        0.1564
     42 H           3.3430    1.1317   -1.2444 H       1  UNL1        0.0624
     43 H           5.0608    2.9147   -1.1522 H       1  UNL1        0.0618
     44 H           7.1268    2.4983    0.0001 H       1  UNL1        0.0618
     45 H           7.6308    0.3351    1.1196 H       1  UNL1        0.0624
     46 H           6.9133   -1.9226    1.6963 H       1  UNL1        0.0624
     47 H           5.2057   -3.6270    1.5769 H       1  UNL1        0.0618
     48 H           3.0623   -3.2680    0.4112 H       1  UNL1        0.0636
     49 H          -0.7418    2.4445   -0.8791 H       1  UNL1        0.0671
     50 H          -0.8494   -1.9728    1.5692 H       1  UNL1        0.0639
     51 H          -1.1851   -4.3904    1.7939 H       1  UNL1        0.0619
     52 H          -2.9755   -5.5189    0.5290 H       1  UNL1        0.0636
     53 H          -4.7341   -5.3801   -1.1951 H       1  UNL1        0.1423
     54 H          -5.3973   -3.7602   -1.6594 H       1  UNL1        0.1423
     55 H          -4.0756   -1.8195   -1.1680 H       1  UNL1        0.0657
@<TRIPOS>BOND
     1     1     2    1
     2     2     3    1
     3     2     4    1
     4     2     5    1
     5     5     6   ar
     6     6     7   ar
     7     7     8   ar
     8     8     9    1
     9     9    10   am
    10    10    11    2
    11    10    12   am
    12    12    13    1
    13    13    14   ar
    14    14    15   ar
    15    15    16   ar
    16    16    17   ar
    17    17    18   ar
    18    18    19   ar
    19    19    20   ar
    20    20    21   ar
    21    21    22   ar
    22     8    23   ar
    23     7    24    1
    24    24    25   ar
    25    25    26   ar
    26    26    27   ar
    27    27    28   ar
    28    28    29    1
    29    28    30   ar
    30    23     5   ar
    31    30    24   ar
    32    22    13   ar
    33    19    14   ar
    34     1    31    1
    35     1    32    1
    36     1    33    1
    37     3    34    1
    38     3    35    1
    39     3    36    1
    40     4    37    1
    41     4    38    1
    42     4    39    1
    43     9    40    1
    44    12    41    1
    45    15    42    1
    46    16    43    1
    47    17    44    1
    48    18    45    1
    49    20    46    1
    50    21    47    1
    51    22    48    1
    52    23    49    1
    53    25    50    1
    54    26    51    1
    55    27    52    1
    56    29    53    1
    57    29    54    1
    58    30    55    1
