
     RDKit          3D

 55 58  0  0  0  0  0  0  0  0999 V2000
   -4.6859    3.2092    0.6767 C   0  0  0  0  0  0  0  0  0  0  0  0
   -3.3052    3.1919    0.1086 C   0  0  0  0  0  0  0  0  0  0  0  0
   -3.3111    3.7680   -1.2973 C   0  0  0  0  0  0  0  0  0  0  0  0
   -2.3845    4.0541    0.9379 C   0  0  0  0  0  0  0  0  0  0  0  0
   -2.7131    1.8367   -0.0089 C   0  0  0  0  0  0  0  0  0  0  0  0
   -3.1984    0.6423    0.3030 N   0  0  0  0  0  0  0  0  0  0  0  0
   -2.2844   -0.2852    0.0126 N   0  0  0  0  0  0  0  0  0  0  0  0
   -1.1856    0.2982   -0.4953 C   0  0  0  0  0  0  0  0  0  0  0  0
    0.0471   -0.2457   -0.9530 N   0  0  0  0  0  0  0  0  0  0  0  0
    1.2182   -0.4740   -0.1811 C   0  0  0  0  0  0  0  0  0  0  0  0
    1.1469   -0.1588    1.0331 O   0  0  0  0  0  0  0  0  0  0  0  0
    2.3312   -1.0257   -0.8485 N   0  0  0  0  0  0  0  0  0  0  0  0
    3.5492   -1.2908   -0.1612 C   0  0  0  0  0  0  0  0  0  0  0  0
    4.5119   -0.3040   -0.1044 C   0  0  0  0  0  0  0  0  0  0  0  0
    4.2780    0.9159   -0.7118 C   0  0  0  0  0  0  0  0  0  0  0  0
    5.2080    1.9477   -0.6888 C   0  0  0  0  0  0  0  0  0  0  0  0
    6.4052    1.6947   -0.0164 C   0  0  0  0  0  0  0  0  0  0  0  0
    6.7064    0.4947    0.6149 C   0  0  0  0  0  0  0  0  0  0  0  0
    5.7233   -0.4699    0.5394 C   0  0  0  0  0  0  0  0  0  0  0  0
    5.9980   -1.6743    1.1598 C   0  0  0  0  0  0  0  0  0  0  0  0
    5.0293   -2.6597    1.0996 C   0  0  0  0  0  0  0  0  0  0  0  0
    3.8155   -2.5006    0.4575 C   0  0  0  0  0  0  0  0  0  0  0  0
   -1.4405    1.6740   -0.5188 C   0  0  0  0  0  0  0  0  0  0  0  0
   -2.4145   -1.6895    0.1976 C   0  0  0  0  0  0  0  0  0  0  0  0
   -1.6323   -2.4758    1.0181 C   0  0  0  0  0  0  0  0  0  0  0  0
   -1.8343   -3.8353    1.1333 C   0  0  0  0  0  0  0  0  0  0  0  0
   -2.8392   -4.4474    0.4189 C   0  0  0  0  0  0  0  0  0  0  0  0
   -3.6561   -3.7173   -0.4189 C   0  0  0  0  0  0  0  0  0  0  0  0
   -4.6997   -4.3317   -1.1654 N   0  0  0  0  0  0  0  0  0  0  0  0
   -3.4078   -2.3673   -0.4934 C   0  0  0  0  0  0  0  0  0  0  0  0
   -5.4049    3.1112   -0.1870 H   0  0  0  0  0  0  0  0  0  0  0  0
   -4.8794    2.4036    1.4038 H   0  0  0  0  0  0  0  0  0  0  0  0
   -4.8435    4.2267    1.1258 H   0  0  0  0  0  0  0  0  0  0  0  0
   -2.3488    4.2154   -1.5845 H   0  0  0  0  0  0  0  0  0  0  0  0
   -3.4925    2.9515   -2.0375 H   0  0  0  0  0  0  0  0  0  0  0  0
   -4.0976    4.5442   -1.3991 H   0  0  0  0  0  0  0  0  0  0  0  0
   -2.5241    5.0980    0.5895 H   0  0  0  0  0  0  0  0  0  0  0  0
   -1.3263    3.7282    0.8735 H   0  0  0  0  0  0  0  0  0  0  0  0
   -2.6593    3.9842    2.0127 H   0  0  0  0  0  0  0  0  0  0  0  0
   -0.0794   -0.4444   -1.9715 H   0  0  0  0  0  0  0  0  0  0  0  0
    2.2963   -1.2579   -1.8719 H   0  0  0  0  0  0  0  0  0  0  0  0
    3.3430    1.1317   -1.2444 H   0  0  0  0  0  0  0  0  0  0  0  0
    5.0608    2.9147   -1.1522 H   0  0  0  0  0  0  0  0  0  0  0  0
    7.1268    2.4983    0.0001 H   0  0  0  0  0  0  0  0  0  0  0  0
    7.6308    0.3351    1.1196 H   0  0  0  0  0  0  0  0  0  0  0  0
    6.9133   -1.9226    1.6963 H   0  0  0  0  0  0  0  0  0  0  0  0
    5.2057   -3.6270    1.5769 H   0  0  0  0  0  0  0  0  0  0  0  0
    3.0623   -3.2680    0.4112 H   0  0  0  0  0  0  0  0  0  0  0  0
   -0.7418    2.4445   -0.8791 H   0  0  0  0  0  0  0  0  0  0  0  0
   -0.8494   -1.9728    1.5692 H   0  0  0  0  0  0  0  0  0  0  0  0
   -1.1851   -4.3904    1.7939 H   0  0  0  0  0  0  0  0  0  0  0  0
   -2.9755   -5.5189    0.5290 H   0  0  0  0  0  0  0  0  0  0  0  0
   -4.7341   -5.3801   -1.1951 H   0  0  0  0  0  0  0  0  0  0  0  0
   -5.3973   -3.7602   -1.6594 H   0  0  0  0  0  0  0  0  0  0  0  0
   -4.0756   -1.8195   -1.1680 H   0  0  0  0  0  0  0  0  0  0  0  0
  1  2  1  0
  2  3  1  0
  2  4  1  0
  2  5  1  0
  5  6  2  0
  6  7  1  0
  7  8  1  0
  8  9  1  0
  9 10  1  0
 10 11  2  0
 10 12  1  0
 12 13  1  0
 13 14  1  0
 14 15  2  0
 15 16  1  0
 16 17  2  0
 17 18  1  0
 18 19  2  0
 19 20  1  0
 20 21  2  0
 21 22  1  0
  8 23  2  0
  7 24  1  0
 24 25  2  0
 25 26  1  0
 26 27  2  0
 27 28  1  0
 28 29  1  0
 28 30  2  0
 23  5  1  0
 30 24  1  0
 22 13  2  0
 19 14  1  0
  1 31  1  0
  1 32  1  0
  1 33  1  0
  3 34  1  0
  3 35  1  0
  3 36  1  0
  4 37  1  0
  4 38  1  0
  4 39  1  0
  9 40  1  0
 12 41  1  0
 15 42  1  0
 16 43  1  0
 17 44  1  0
 18 45  1  0
 20 46  1  0
 21 47  1  0
 22 48  1  0
 23 49  1  0
 25 50  1  0
 26 51  1  0
 27 52  1  0
 29 53  1  0
 29 54  1  0
 30 55  1  0
M  END
$$$$
