@<TRIPOS>MOLECULE
*****
 44 46 0 0 0
SMALL
GASTEIGER

@<TRIPOS>ATOM
      1 C          -6.3125   -0.2757   -2.3817 C.3     1  UNL1       -0.0397
      2 C          -5.2826    0.1516   -1.4000 C.ar    1  UNL1       -0.0503
      3 C          -4.3683    1.1472   -1.7107 C.ar    1  UNL1       -0.0570
      4 C          -3.4194    1.5362   -0.7975 C.ar    1  UNL1       -0.0346
      5 C          -3.3230    0.9602    0.4756 C.ar    1  UNL1        0.1110
      6 S          -2.1403    1.4805    1.6231 S.O2    1  UNL1        0.0842
      7 O          -2.5847    1.1814    3.0481 O.2     1  UNL1       -0.1476
      8 O          -2.0183    2.9743    1.5058 O.2     1  UNL1       -0.1476
      9 N          -0.5623    0.8109    1.3538 N.ar    1  UNL1       -0.2175
     10 C           0.5389    1.4917    1.0532 C.ar    1  UNL1        0.0411
     11 C           1.6420    0.6350    0.8786 C.ar    1  UNL1        0.0540
     12 C           2.9539    1.0881    0.5349 C.2     1  UNL1        0.2493
     13 O           3.0551    2.4043    0.4305 O.2     1  UNL1       -0.2817
     14 C           4.1897    0.4441    0.2753 C.2     1  UNL1        0.2849
     15 O           4.4801   -0.7765    0.2625 O.2     1  UNL1       -0.2666
     16 N           5.3792    1.2513   -0.0388 N.am    1  UNL1       -0.2982
     17 C           6.6432    0.5988   -0.3061 C.3     1  UNL1        0.1092
     18 C           6.4907   -0.2850   -1.4828 C.2     1  UNL1        0.3221
     19 O           7.4776   -0.9641   -1.8856 O.2     1  UNL1       -0.2492
     20 O           5.3141   -0.4281   -2.1971 O.3     1  UNL1       -0.4795
     21 C           1.1138   -0.6107    1.0994 C.ar    1  UNL1        0.0126
     22 C           1.6403   -1.8815    1.0959 C.ar    1  UNL1       -0.0518
     23 C           0.8488   -2.9778    1.3703 C.ar    1  UNL1       -0.0611
     24 C          -0.4882   -2.8356    1.6559 C.ar    1  UNL1       -0.0597
     25 C          -1.0535   -1.5884    1.6705 C.ar    1  UNL1       -0.0359
     26 C          -0.2567   -0.4912    1.3941 C.ar    1  UNL1        0.0729
     27 C          -4.2221   -0.0173    0.7787 C.ar    1  UNL1       -0.0346
     28 C          -5.1767   -0.4058   -0.1458 C.ar    1  UNL1       -0.0570
     29 H          -6.5793   -1.3271   -2.1390 H       1  UNL1        0.0278
     30 H          -7.1981    0.3745   -2.2761 H       1  UNL1        0.0278
     31 H          -5.9112   -0.2823   -3.4204 H       1  UNL1        0.0278
     32 H          -4.4167    1.6076   -2.6782 H       1  UNL1        0.0621
     33 H          -2.7147    2.3188   -1.0662 H       1  UNL1        0.0637
     34 H           0.5806    2.5690    0.9552 H       1  UNL1        0.0835
     35 H           5.3316    2.2639   -0.0721 H       1  UNL1        0.1497
     36 H           6.9096   -0.0656    0.5675 H       1  UNL1        0.0577
     37 H           7.4402    1.3483   -0.4373 H       1  UNL1        0.0577
     38 H           5.2991   -0.5207   -3.2148 H       1  UNL1        0.2951
     39 H           2.6713   -1.9753    0.8793 H       1  UNL1        0.0624
     40 H           1.3308   -3.9599    1.3505 H       1  UNL1        0.0618
     41 H          -1.0709   -3.7437    1.8671 H       1  UNL1        0.0618
     42 H          -2.0892   -1.5025    1.9021 H       1  UNL1        0.0639
     43 H          -4.2514   -0.5374    1.7374 H       1  UNL1        0.0637
     44 H          -5.8906   -1.1857    0.1017 H       1  UNL1        0.0621
@<TRIPOS>BOND
     1     1     2    1
     2     2     3   ar
     3     3     4   ar
     4     4     5   ar
     5     5     6    1
     6     6     7    2
     7     6     8    2
     8     6     9    1
     9     9    10   ar
    10    10    11   ar
    11    11    12    1
    12    12    13    2
    13    12    14    1
    14    14    15    2
    15    14    16   am
    16    16    17    1
    17    17    18    1
    18    18    19    2
    19    18    20    1
    20    11    21   ar
    21    21    22   ar
    22    22    23   ar
    23    23    24   ar
    24    24    25   ar
    25    25    26   ar
    26     5    27   ar
    27    27    28   ar
    28    28     2   ar
    29    26     9   ar
    30    26    21   ar
    31     1    29    1
    32     1    30    1
    33     1    31    1
    34     3    32    1
    35     4    33    1
    36    10    34    1
    37    16    35    1
    38    17    36    1
    39    17    37    1
    40    20    38    1
    41    22    39    1
    42    23    40    1
    43    24    41    1
    44    25    42    1
    45    27    43    1
    46    28    44    1
