@<TRIPOS>MOLECULE
*****
 36 38 0 0 0
SMALL
GASTEIGER

@<TRIPOS>ATOM
      1 C           5.4395   -1.6242    2.3369 C.2     1  UNL1       -0.0938
      2 C           5.0247   -0.3827    2.3511 C.2     1  UNL1       -0.0066
      3 C           4.0764    0.0790    1.3606 C.2     1  UNL1        0.2405
      4 O           3.7037    1.3017    1.4066 O.2     1  UNL1       -0.2705
      5 N           3.5412   -0.7340    0.3541 N.am    1  UNL1       -0.2820
      6 C           2.6028   -0.1915   -0.6018 C.ar    1  UNL1        0.0344
      7 C           3.0520    0.3061   -1.8017 C.ar    1  UNL1       -0.0384
      8 C           2.1101    0.8171   -2.6620 C.ar    1  UNL1       -0.0338
      9 C           0.7564    0.8493   -2.3706 C.ar    1  UNL1        0.0761
     10 N          -0.1340    1.3522   -3.2259 N.ar    1  UNL1       -0.2353
     11 C          -1.4467    1.3834   -2.9444 C.ar    1  UNL1        0.1187
     12 N          -1.8208    0.8906   -1.7730 N.ar    1  UNL1       -0.2200
     13 C          -0.9925    0.3619   -0.8442 C.ar    1  UNL1        0.1339
     14 N          -1.5326   -0.1303    0.3766 N.pl3   1  UNL1       -0.2988
     15 C          -2.9393   -0.1754    0.5643 C.ar    1  UNL1        0.0334
     16 C          -3.7511   -0.5251   -0.4815 C.ar    1  UNL1       -0.0404
     17 C          -5.1385   -0.5574   -0.3470 C.ar    1  UNL1       -0.0590
     18 C          -5.7365   -0.2374    0.8487 C.ar    1  UNL1       -0.0476
     19 C          -4.9302    0.1151    1.9062 C.ar    1  UNL1        0.0196
     20 BR         -5.8015    0.5552    3.5531 Br      1  UNL1       -0.0502
     21 C          -3.5543    0.1465    1.7707 C.ar    1  UNL1       -0.0265
     22 C           0.3609    0.3326   -1.1422 C.ar    1  UNL1        0.0422
     23 C           1.2601   -0.1883   -0.2503 C.ar    1  UNL1       -0.0280
     24 H           5.1044   -2.3437    1.6059 H       1  UNL1        0.0536
     25 H           6.1639   -1.9698    3.0891 H       1  UNL1        0.0536
     26 H           5.3949    0.3168    3.1173 H       1  UNL1        0.0663
     27 H           3.7819   -1.7230    0.2498 H       1  UNL1        0.1551
     28 H           4.1219    0.2916   -2.0545 H       1  UNL1        0.0637
     29 H           2.3996    1.2288   -3.6349 H       1  UNL1        0.0639
     30 H          -2.2063    1.7797   -3.6020 H       1  UNL1        0.1048
     31 H          -0.9501   -0.4719    1.1794 H       1  UNL1        0.1536
     32 H          -3.3283   -0.7996   -1.4464 H       1  UNL1        0.0636
     33 H          -5.7835   -0.8329   -1.1670 H       1  UNL1        0.0618
     34 H          -6.8340   -0.2577    0.9675 H       1  UNL1        0.0629
     35 H          -2.9419    0.4256    2.6169 H       1  UNL1        0.0647
     36 H           0.9275   -0.5851    0.6946 H       1  UNL1        0.0644
@<TRIPOS>BOND
     1     1     2    2
     2     2     3    1
     3     3     4    2
     4     3     5   am
     5     5     6    1
     6     6     7   ar
     7     7     8   ar
     8     8     9   ar
     9     9    10   ar
    10    10    11   ar
    11    11    12   ar
    12    12    13   ar
    13    13    14    1
    14    14    15    1
    15    15    16   ar
    16    16    17   ar
    17    17    18   ar
    18    18    19   ar
    19    19    20    1
    20    19    21   ar
    21    13    22   ar
    22    22    23   ar
    23    23     6   ar
    24    22     9   ar
    25    21    15   ar
    26     1    24    1
    27     1    25    1
    28     2    26    1
    29     5    27    1
    30     7    28    1
    31     8    29    1
    32    11    30    1
    33    14    31    1
    34    16    32    1
    35    17    33    1
    36    18    34    1
    37    21    35    1
    38    23    36    1
