
     RDKit          3D

 36 38  0  0  0  0  0  0  0  0999 V2000
    5.4395   -1.6242    2.3369 C   0  0  0  0  0  0  0  0  0  0  0  0
    5.0247   -0.3827    2.3511 C   0  0  0  0  0  0  0  0  0  0  0  0
    4.0764    0.0790    1.3606 C   0  0  0  0  0  0  0  0  0  0  0  0
    3.7037    1.3017    1.4066 O   0  0  0  0  0  0  0  0  0  0  0  0
    3.5412   -0.7340    0.3541 N   0  0  0  0  0  0  0  0  0  0  0  0
    2.6028   -0.1915   -0.6018 C   0  0  0  0  0  0  0  0  0  0  0  0
    3.0520    0.3061   -1.8017 C   0  0  0  0  0  0  0  0  0  0  0  0
    2.1101    0.8171   -2.6620 C   0  0  0  0  0  0  0  0  0  0  0  0
    0.7564    0.8493   -2.3706 C   0  0  0  0  0  0  0  0  0  0  0  0
   -0.1340    1.3522   -3.2259 N   0  0  0  0  0  0  0  0  0  0  0  0
   -1.4467    1.3834   -2.9444 C   0  0  0  0  0  0  0  0  0  0  0  0
   -1.8208    0.8906   -1.7730 N   0  0  0  0  0  0  0  0  0  0  0  0
   -0.9925    0.3619   -0.8442 C   0  0  0  0  0  0  0  0  0  0  0  0
   -1.5326   -0.1303    0.3766 N   0  0  0  0  0  0  0  0  0  0  0  0
   -2.9393   -0.1754    0.5643 C   0  0  0  0  0  0  0  0  0  0  0  0
   -3.7511   -0.5251   -0.4815 C   0  0  0  0  0  0  0  0  0  0  0  0
   -5.1385   -0.5574   -0.3470 C   0  0  0  0  0  0  0  0  0  0  0  0
   -5.7365   -0.2374    0.8487 C   0  0  0  0  0  0  0  0  0  0  0  0
   -4.9302    0.1151    1.9062 C   0  0  0  0  0  0  0  0  0  0  0  0
   -5.8015    0.5552    3.5531 Br  0  0  0  0  0  0  0  0  0  0  0  0
   -3.5543    0.1465    1.7707 C   0  0  0  0  0  0  0  0  0  0  0  0
    0.3609    0.3326   -1.1422 C   0  0  0  0  0  0  0  0  0  0  0  0
    1.2601   -0.1883   -0.2503 C   0  0  0  0  0  0  0  0  0  0  0  0
    5.1044   -2.3437    1.6059 H   0  0  0  0  0  0  0  0  0  0  0  0
    6.1639   -1.9698    3.0891 H   0  0  0  0  0  0  0  0  0  0  0  0
    5.3949    0.3168    3.1173 H   0  0  0  0  0  0  0  0  0  0  0  0
    3.7819   -1.7230    0.2498 H   0  0  0  0  0  0  0  0  0  0  0  0
    4.1219    0.2916   -2.0545 H   0  0  0  0  0  0  0  0  0  0  0  0
    2.3996    1.2288   -3.6349 H   0  0  0  0  0  0  0  0  0  0  0  0
   -2.2063    1.7797   -3.6020 H   0  0  0  0  0  0  0  0  0  0  0  0
   -0.9501   -0.4719    1.1794 H   0  0  0  0  0  0  0  0  0  0  0  0
   -3.3283   -0.7996   -1.4464 H   0  0  0  0  0  0  0  0  0  0  0  0
   -5.7835   -0.8329   -1.1670 H   0  0  0  0  0  0  0  0  0  0  0  0
   -6.8340   -0.2577    0.9675 H   0  0  0  0  0  0  0  0  0  0  0  0
   -2.9419    0.4256    2.6169 H   0  0  0  0  0  0  0  0  0  0  0  0
    0.9275   -0.5851    0.6946 H   0  0  0  0  0  0  0  0  0  0  0  0
  1  2  2  3
  2  3  1  0
  3  4  2  0
  3  5  1  0
  5  6  1  0
  6  7  2  0
  7  8  1  0
  8  9  2  0
  9 10  1  0
 10 11  2  0
 11 12  1  0
 12 13  2  0
 13 14  1  0
 14 15  1  0
 15 16  2  0
 16 17  1  0
 17 18  2  0
 18 19  1  0
 19 20  1  0
 19 21  2  0
 13 22  1  0
 22 23  2  0
 23  6  1  0
 22  9  1  0
 21 15  1  0
  1 24  1  0
  1 25  1  0
  2 26  1  0
  5 27  1  0
  7 28  1  0
  8 29  1  0
 11 30  1  0
 14 31  1  0
 16 32  1  0
 17 33  1  0
 18 34  1  0
 21 35  1  0
 23 36  1  0
M  END
$$$$
