@<TRIPOS>MOLECULE
*****
 17 16 0 0 0
SMALL
GASTEIGER

@<TRIPOS>ATOM
      1 O           3.6260    0.1448    0.5092 O.3     1  UNL1       -0.3874
      2 C           2.2377    0.0112    0.6560 C.3     1  UNL1        0.1046
      3 C           1.5364    0.1952   -0.6478 C.2     1  UNL1        0.1844
      4 O           2.1764    0.4275   -1.6490 O.2     1  UNL1       -0.2925
      5 C           0.0571    0.0797   -0.6404 C.3     1  UNL1        0.1194
      6 O          -0.4614   -0.1916    0.6257 O.3     1  UNL1       -0.2791
      7 P          -2.1483   -0.2828    0.4108 P.3     1  UNL1        0.4728
      8 O          -2.7862    1.2811    0.5263 O.3     1  UNL1       -0.3026
      9 O          -2.4584   -0.9261   -1.1393 O.3     1  UNL1       -0.3026
     10 O          -2.8122   -1.1821    1.4112 O.2     1  UNL1       -0.2275
     11 H           3.9974   -0.5244   -0.0877 H       1  UNL1        0.2100
     12 H           2.0001   -1.0081    1.0391 H       1  UNL1        0.0637
     13 H           1.8860    0.7645    1.3913 H       1  UNL1        0.0637
     14 H          -0.4264    0.9839   -1.0586 H       1  UNL1        0.0646
     15 H          -0.2909   -0.7799   -1.2734 H       1  UNL1        0.0646
     16 H          -2.9136    1.4615    1.4919 H       1  UNL1        0.2220
     17 H          -3.2198   -0.4545   -1.5653 H       1  UNL1        0.2220
@<TRIPOS>BOND
     1     1     2    1
     2     2     3    1
     3     3     4    2
     4     3     5    1
     5     5     6    1
     6     6     7    1
     7     7     8    1
     8     7     9    1
     9     7    10    2
    10     1    11    1
    11     2    12    1
    12     2    13    1
    13     5    14    1
    14     5    15    1
    15     8    16    1
    16     9    17    1
