@<TRIPOS>MOLECULE
*****
 49 52 0 0 0
SMALL
GASTEIGER

@<TRIPOS>ATOM
      1 C          -2.2427   -4.1242    0.0128 C.3     1  UNL1       -0.0347
      2 C          -2.2760   -2.6286    0.2222 C.3     1  UNL1        0.0783
      3 C          -3.5893   -2.2074    0.8489 C.3     1  UNL1       -0.0347
      4 O          -1.1897   -2.2865    1.0216 O.3     1  UNL1       -0.3874
      5 C          -2.1637   -1.9659   -1.1174 C.3     1  UNL1        0.0530
      6 N          -2.1858   -0.5229   -1.0517 N.ar    1  UNL1       -0.3268
      7 C          -3.2570    0.2738   -1.1034 C.ar    1  UNL1        0.0972
      8 N          -2.8298    1.5226   -1.0101 N.ar    1  UNL1       -0.2351
      9 C          -1.4659    1.5391   -0.8966 C.ar    1  UNL1        0.0967
     10 C          -0.6939    2.7728   -0.7733 C.ar    1  UNL1        0.0026
     11 C          -0.1139    3.1588    0.4098 C.ar    1  UNL1       -0.0498
     12 C           0.6295    4.3401    0.5099 C.ar    1  UNL1       -0.0258
     13 C           0.7972    5.1493   -0.5872 C.ar    1  UNL1        0.1234
     14 F           1.5075    6.3099   -0.5590 F       1  UNL1       -0.2055
     15 C           0.2239    4.7826   -1.7868 C.ar    1  UNL1       -0.0258
     16 C          -0.5091    3.6098   -1.8680 C.ar    1  UNL1       -0.0498
     17 C          -1.0616    0.2249   -0.9243 C.ar    1  UNL1        0.0779
     18 C           0.3136   -0.2312   -0.8380 C.ar    1  UNL1        0.0173
     19 C           0.9314   -0.8488   -1.9071 C.ar    1  UNL1       -0.0477
     20 C           2.2447   -1.2890   -1.8301 C.ar    1  UNL1       -0.0182
     21 C           2.9675   -1.1145   -0.6647 C.ar    1  UNL1        0.1381
     22 N           4.2317   -1.4282   -0.2970 N.ar    1  UNL1       -0.2353
     23 C           4.4027   -1.0205    0.9641 C.ar    1  UNL1        0.0588
     24 C           3.2210   -0.4283    1.4252 C.ar    1  UNL1        0.1280
     25 C           2.9939    0.1440    2.7408 C.2     1  UNL1        0.2599
     26 N           4.0397    0.1339    3.6981 N.am    1  UNL1       -0.3241
     27 O           1.9016    0.6515    3.0685 O.2     1  UNL1       -0.2687
     28 N           2.3737   -0.5171    0.3738 N.ar    1  UNL1       -0.2949
     29 C           1.0812   -0.0864    0.2913 C.ar    1  UNL1        0.0211
     30 H          -2.9417   -4.6565    0.6917 H       1  UNL1        0.0258
     31 H          -2.5059   -4.3232   -1.0575 H       1  UNL1        0.0258
     32 H          -1.1989   -4.4612    0.1582 H       1  UNL1        0.0258
     33 H          -4.3740   -2.1435    0.0687 H       1  UNL1        0.0258
     34 H          -3.4867   -1.1931    1.2892 H       1  UNL1        0.0258
     35 H          -3.9229   -2.9376    1.6089 H       1  UNL1        0.0258
     36 H          -1.5249   -2.0852    1.9325 H       1  UNL1        0.2102
     37 H          -2.9961   -2.3598   -1.7413 H       1  UNL1        0.0520
     38 H          -1.1995   -2.3281   -1.5817 H       1  UNL1        0.0520
     39 H          -4.2688   -0.1170   -1.2058 H       1  UNL1        0.1029
     40 H          -0.2094    2.5765    1.3112 H       1  UNL1        0.0625
     41 H           1.0863    4.6442    1.4404 H       1  UNL1        0.0646
     42 H           0.3599    5.4308   -2.6575 H       1  UNL1        0.0646
     43 H          -0.9710    3.2944   -2.7934 H       1  UNL1        0.0625
     44 H           0.3566   -0.9803   -2.8142 H       1  UNL1        0.0626
     45 H           2.7138   -1.7724   -2.6822 H       1  UNL1        0.0654
     46 H           5.3218   -1.1384    1.5266 H       1  UNL1        0.0853
     47 H           4.9698    0.5467    3.4578 H       1  UNL1        0.1453
     48 H           3.8636   -0.2900    4.6364 H       1  UNL1        0.1453
     49 H           0.6452    0.3802    1.1423 H       1  UNL1        0.0820
@<TRIPOS>BOND
     1     1     2    1
     2     2     3    1
     3     2     4    1
     4     2     5    1
     5     5     6    1
     6     6     7   ar
     7     7     8   ar
     8     8     9   ar
     9     9    10    1
    10    10    11   ar
    11    11    12   ar
    12    12    13   ar
    13    13    14    1
    14    13    15   ar
    15    15    16   ar
    16     9    17   ar
    17    17    18    1
    18    18    19   ar
    19    19    20   ar
    20    20    21   ar
    21    21    22   ar
    22    22    23   ar
    23    23    24   ar
    24    24    25    1
    25    25    26   am
    26    25    27    2
    27    24    28   ar
    28    28    29   ar
    29    17     6   ar
    30    29    18   ar
    31    16    10   ar
    32    28    21   ar
    33     1    30    1
    34     1    31    1
    35     1    32    1
    36     3    33    1
    37     3    34    1
    38     3    35    1
    39     4    36    1
    40     5    37    1
    41     5    38    1
    42     7    39    1
    43    11    40    1
    44    12    41    1
    45    15    42    1
    46    16    43    1
    47    19    44    1
    48    20    45    1
    49    23    46    1
    50    26    47    1
    51    26    48    1
    52    29    49    1
