
     RDKit          3D

 49 52  0  0  0  0  0  0  0  0999 V2000
   -2.2427   -4.1242    0.0128 C   0  0  0  0  0  0  0  0  0  0  0  0
   -2.2760   -2.6286    0.2222 C   0  0  0  0  0  0  0  0  0  0  0  0
   -3.5893   -2.2074    0.8489 C   0  0  0  0  0  0  0  0  0  0  0  0
   -1.1897   -2.2865    1.0216 O   0  0  0  0  0  0  0  0  0  0  0  0
   -2.1637   -1.9659   -1.1174 C   0  0  0  0  0  0  0  0  0  0  0  0
   -2.1858   -0.5229   -1.0517 N   0  0  0  0  0  0  0  0  0  0  0  0
   -3.2570    0.2738   -1.1034 C   0  0  0  0  0  0  0  0  0  0  0  0
   -2.8298    1.5226   -1.0101 N   0  0  0  0  0  0  0  0  0  0  0  0
   -1.4659    1.5391   -0.8966 C   0  0  0  0  0  0  0  0  0  0  0  0
   -0.6939    2.7728   -0.7733 C   0  0  0  0  0  0  0  0  0  0  0  0
   -0.1139    3.1588    0.4098 C   0  0  0  0  0  0  0  0  0  0  0  0
    0.6295    4.3401    0.5099 C   0  0  0  0  0  0  0  0  0  0  0  0
    0.7972    5.1493   -0.5872 C   0  0  0  0  0  0  0  0  0  0  0  0
    1.5075    6.3099   -0.5590 F   0  0  0  0  0  0  0  0  0  0  0  0
    0.2239    4.7826   -1.7868 C   0  0  0  0  0  0  0  0  0  0  0  0
   -0.5091    3.6098   -1.8680 C   0  0  0  0  0  0  0  0  0  0  0  0
   -1.0616    0.2249   -0.9243 C   0  0  0  0  0  0  0  0  0  0  0  0
    0.3136   -0.2312   -0.8380 C   0  0  0  0  0  0  0  0  0  0  0  0
    0.9314   -0.8488   -1.9071 C   0  0  0  0  0  0  0  0  0  0  0  0
    2.2447   -1.2890   -1.8301 C   0  0  0  0  0  0  0  0  0  0  0  0
    2.9675   -1.1145   -0.6647 C   0  0  0  0  0  0  0  0  0  0  0  0
    4.2317   -1.4282   -0.2970 N   0  0  0  0  0  0  0  0  0  0  0  0
    4.4027   -1.0205    0.9641 C   0  0  0  0  0  0  0  0  0  0  0  0
    3.2210   -0.4283    1.4252 C   0  0  0  0  0  0  0  0  0  0  0  0
    2.9939    0.1440    2.7408 C   0  0  0  0  0  0  0  0  0  0  0  0
    4.0397    0.1339    3.6981 N   0  0  0  0  0  0  0  0  0  0  0  0
    1.9016    0.6515    3.0685 O   0  0  0  0  0  0  0  0  0  0  0  0
    2.3737   -0.5171    0.3738 N   0  0  0  0  0  0  0  0  0  0  0  0
    1.0812   -0.0864    0.2913 C   0  0  0  0  0  0  0  0  0  0  0  0
   -2.9417   -4.6565    0.6917 H   0  0  0  0  0  0  0  0  0  0  0  0
   -2.5059   -4.3232   -1.0575 H   0  0  0  0  0  0  0  0  0  0  0  0
   -1.1989   -4.4612    0.1582 H   0  0  0  0  0  0  0  0  0  0  0  0
   -4.3740   -2.1435    0.0687 H   0  0  0  0  0  0  0  0  0  0  0  0
   -3.4867   -1.1931    1.2892 H   0  0  0  0  0  0  0  0  0  0  0  0
   -3.9229   -2.9376    1.6089 H   0  0  0  0  0  0  0  0  0  0  0  0
   -1.5249   -2.0852    1.9325 H   0  0  0  0  0  0  0  0  0  0  0  0
   -2.9961   -2.3598   -1.7413 H   0  0  0  0  0  0  0  0  0  0  0  0
   -1.1995   -2.3281   -1.5817 H   0  0  0  0  0  0  0  0  0  0  0  0
   -4.2688   -0.1170   -1.2058 H   0  0  0  0  0  0  0  0  0  0  0  0
   -0.2094    2.5765    1.3112 H   0  0  0  0  0  0  0  0  0  0  0  0
    1.0863    4.6442    1.4404 H   0  0  0  0  0  0  0  0  0  0  0  0
    0.3599    5.4308   -2.6575 H   0  0  0  0  0  0  0  0  0  0  0  0
   -0.9710    3.2944   -2.7934 H   0  0  0  0  0  0  0  0  0  0  0  0
    0.3566   -0.9803   -2.8142 H   0  0  0  0  0  0  0  0  0  0  0  0
    2.7138   -1.7724   -2.6822 H   0  0  0  0  0  0  0  0  0  0  0  0
    5.3218   -1.1384    1.5266 H   0  0  0  0  0  0  0  0  0  0  0  0
    4.9698    0.5467    3.4578 H   0  0  0  0  0  0  0  0  0  0  0  0
    3.8636   -0.2900    4.6364 H   0  0  0  0  0  0  0  0  0  0  0  0
    0.6452    0.3802    1.1423 H   0  0  0  0  0  0  0  0  0  0  0  0
  1  2  1  0
  2  3  1  0
  2  4  1  0
  2  5  1  0
  5  6  1  0
  6  7  1  0
  7  8  2  0
  8  9  1  0
  9 10  1  0
 10 11  2  0
 11 12  1  0
 12 13  2  0
 13 14  1  0
 13 15  1  0
 15 16  2  0
  9 17  2  0
 17 18  1  0
 18 19  1  0
 19 20  2  0
 20 21  1  0
 21 22  2  0
 22 23  1  0
 23 24  2  0
 24 25  1  0
 25 26  1  0
 25 27  2  0
 24 28  1  0
 28 29  1  0
 17  6  1  0
 29 18  2  0
 16 10  1  0
 28 21  1  0
  1 30  1  0
  1 31  1  0
  1 32  1  0
  3 33  1  0
  3 34  1  0
  3 35  1  0
  4 36  1  0
  5 37  1  0
  5 38  1  0
  7 39  1  0
 11 40  1  0
 12 41  1  0
 15 42  1  0
 16 43  1  0
 19 44  1  0
 20 45  1  0
 23 46  1  0
 26 47  1  0
 26 48  1  0
 29 49  1  0
M  END
$$$$
