@<TRIPOS>MOLECULE
*****
 31 31 0 0 0
SMALL
GASTEIGER

@<TRIPOS>ATOM
      1 C          -1.6299   -0.6136    0.4382 C.3     1  UNL1        0.1126
      2 C          -2.5218   -1.7682    0.0385 C.3     1  UNL1        0.0730
      3 O          -1.9753   -2.9431    0.5107 O.3     1  UNL1       -0.3924
      4 O          -0.3869   -0.8516   -0.1358 O.3     1  UNL1       -0.3442
      5 C           0.4331    0.2441    0.1850 C.3     1  UNL1        0.1848
      6 N           1.7915   -0.2442    0.0786 N.2     1  UNL1       -0.1825
      7 C           2.4664   -0.7869    1.0078 C.2     1  UNL1        0.3856
      8 O           2.0569   -1.0285    2.3124 O.2     1  UNL1       -0.4657
      9 O           3.7546   -1.1661    0.6324 O.2     1  UNL1       -0.4532
     10 C           4.4529   -0.4910   -0.3775 C.3     1  UNL1        0.0834
     11 C           0.1392    1.2988   -0.8511 C.3     1  UNL1        0.1300
     12 O           0.5554    2.5338   -0.3375 O.3     1  UNL1       -0.3846
     13 C          -1.3412    1.2881   -1.1372 C.3     1  UNL1        0.1136
     14 O          -1.6497    0.5754   -2.2924 O.3     1  UNL1       -0.3864
     15 C          -2.1656    0.7127   -0.0241 C.3     1  UNL1        0.1119
     16 O          -2.2040    1.6240    1.0257 O.3     1  UNL1       -0.3865
     17 H          -1.5406   -0.6385    1.5340 H       1  UNL1        0.0647
     18 H          -2.5909   -1.8424   -1.0641 H       1  UNL1        0.0584
     19 H          -3.5466   -1.5702    0.4164 H       1  UNL1        0.0584
     20 H          -2.1550   -2.9980    1.4812 H       1  UNL1        0.2095
     21 H           0.2233    0.6528    1.1847 H       1  UNL1        0.0882
     22 H           1.0487   -1.0427    2.4504 H       1  UNL1        0.2969
     23 H           5.4603   -0.9607   -0.5124 H       1  UNL1        0.0661
     24 H           4.5950    0.5608   -0.0188 H       1  UNL1        0.0661
     25 H           3.9316   -0.4470   -1.3416 H       1  UNL1        0.0661
     26 H           0.6906    1.0816   -1.8066 H       1  UNL1        0.0666
     27 H           0.4919    2.5919    0.6393 H       1  UNL1        0.2101
     28 H          -1.6853    2.3337   -1.2815 H       1  UNL1        0.0647
     29 H          -1.0556    0.8636   -3.0100 H       1  UNL1        0.2100
     30 H          -3.1810    0.5222   -0.4556 H       1  UNL1        0.0647
     31 H          -2.4621    2.5090    0.7109 H       1  UNL1        0.2100
@<TRIPOS>BOND
     1     1     2    1
     2     2     3    1
     3     1     4    1
     4     4     5    1
     5     5     6    1
     6     6     7    2
     7     7     8    1
     8     7     9    1
     9     9    10    1
    10     5    11    1
    11    11    12    1
    12    11    13    1
    13    13    14    1
    14    13    15    1
    15    15    16    1
    16    15     1    1
    17     1    17    1
    18     2    18    1
    19     2    19    1
    20     3    20    1
    21     5    21    1
    22     8    22    1
    23    10    23    1
    24    10    24    1
    25    10    25    1
    26    11    26    1
    27    12    27    1
    28    13    28    1
    29    14    29    1
    30    15    30    1
    31    16    31    1
