
     RDKit          3D

 53 57  0  0  0  0  0  0  0  0999 V2000
   -1.8392    2.4613   -0.0530 O   0  0  0  0  0  0  0  0  0  0  0  0
   -1.2629    1.4959   -0.6382 C   0  0  0  0  0  0  0  0  0  0  0  0
   -2.0937    0.5205   -1.2340 N   0  0  0  0  0  0  0  0  0  0  0  0
   -3.5462    0.6022   -1.1906 C   0  0  1  0  0  0  0  0  0  0  0  0
   -4.4042   -0.0635   -2.1643 C   0  0  0  0  0  0  0  0  0  0  0  0
   -4.1978   -0.7485   -0.8687 C   0  0  2  0  0  0  0  0  0  0  0  0
   -5.1814   -0.6852    0.2141 C   0  0  0  0  0  0  0  0  0  0  0  0
   -6.0410    0.3801    0.4059 C   0  0  0  0  0  0  0  0  0  0  0  0
   -6.9569    0.4036    1.4408 C   0  0  0  0  0  0  0  0  0  0  0  0
   -7.0472   -0.6432    2.3266 C   0  0  0  0  0  0  0  0  0  0  0  0
   -6.1998   -1.7168    2.1548 C   0  0  0  0  0  0  0  0  0  0  0  0
   -5.2847   -1.7265    1.1105 C   0  0  0  0  0  0  0  0  0  0  0  0
    0.1374    1.3847   -0.7006 N   0  0  0  0  0  0  0  0  0  0  0  0
    0.8152    0.3024   -1.3652 C   0  0  0  0  0  0  0  0  0  0  0  0
    1.4207   -0.5401   -0.2306 C   0  0  0  0  0  0  0  0  0  0  0  0
    2.4410    0.3749    0.4425 C   0  0  0  0  0  0  0  0  0  0  0  0
    3.0523   -0.4047    1.5655 C   0  0  0  0  0  0  0  0  0  0  0  0
    4.5281   -0.0905    1.7535 C   0  0  0  0  0  0  0  0  0  0  0  0
    5.1881   -0.4099    0.4552 C   0  0  0  0  0  0  0  0  0  0  0  0
    6.3665   -1.1039    0.3531 C   0  0  0  0  0  0  0  0  0  0  0  0
    6.9261   -1.3671   -0.8896 C   0  0  0  0  0  0  0  0  0  0  0  0
    8.0958   -2.0548   -1.0142 F   0  0  0  0  0  0  0  0  0  0  0  0
    6.2993   -0.9310   -2.0390 C   0  0  0  0  0  0  0  0  0  0  0  0
    5.0994   -0.2227   -1.9641 C   0  0  0  0  0  0  0  0  0  0  0  0
    4.5641    0.0254   -0.7090 C   0  0  0  0  0  0  0  0  0  0  0  0
    3.3846    0.7173   -0.5564 O   0  0  0  0  0  0  0  0  0  0  0  0
    1.8406    1.6448    0.9550 C   0  0  0  0  0  0  0  0  0  0  0  0
    1.0218    2.3791   -0.0760 C   0  0  0  0  0  0  0  0  0  0  0  0
   -1.7293   -0.3164   -1.7405 H   0  0  0  0  0  0  0  0  0  0  0  0
   -3.9187    1.4911   -0.6714 H   0  0  0  0  0  0  0  0  0  0  0  0
   -5.4107    0.3718   -2.3454 H   0  0  0  0  0  0  0  0  0  0  0  0
   -3.9987   -0.5433   -3.0915 H   0  0  0  0  0  0  0  0  0  0  0  0
   -3.5741   -1.6525   -0.9100 H   0  0  0  0  0  0  0  0  0  0  0  0
   -5.9552    1.2022   -0.3069 H   0  0  0  0  0  0  0  0  0  0  0  0
   -7.6186    1.2487    1.5699 H   0  0  0  0  0  0  0  0  0  0  0  0
   -7.7552   -0.6657    3.1571 H   0  0  0  0  0  0  0  0  0  0  0  0
   -6.2816   -2.5409    2.8645 H   0  0  0  0  0  0  0  0  0  0  0  0
   -4.6252   -2.5726    0.9846 H   0  0  0  0  0  0  0  0  0  0  0  0
    1.7342    0.7403   -1.8693 H   0  0  0  0  0  0  0  0  0  0  0  0
    0.2228   -0.2871   -2.0568 H   0  0  0  0  0  0  0  0  0  0  0  0
    0.6071   -0.7855    0.4688 H   0  0  0  0  0  0  0  0  0  0  0  0
    1.9684   -1.3967   -0.6257 H   0  0  0  0  0  0  0  0  0  0  0  0
    2.9929   -1.4931    1.3493 H   0  0  0  0  0  0  0  0  0  0  0  0
    2.4794   -0.1998    2.4943 H   0  0  0  0  0  0  0  0  0  0  0  0
    4.6985    0.9584    2.0208 H   0  0  0  0  0  0  0  0  0  0  0  0
    4.8870   -0.8045    2.5390 H   0  0  0  0  0  0  0  0  0  0  0  0
    6.8470   -1.4386    1.2403 H   0  0  0  0  0  0  0  0  0  0  0  0
    6.6908   -1.1084   -3.0298 H   0  0  0  0  0  0  0  0  0  0  0  0
    4.6115    0.1173   -2.8700 H   0  0  0  0  0  0  0  0  0  0  0  0
    1.1954    1.4520    1.8353 H   0  0  0  0  0  0  0  0  0  0  0  0
    2.6841    2.3162    1.2277 H   0  0  0  0  0  0  0  0  0  0  0  0
    1.7231    2.7912   -0.8381 H   0  0  0  0  0  0  0  0  0  0  0  0
    0.3986    3.1320    0.4023 H   0  0  0  0  0  0  0  0  0  0  0  0
  1  2  2  0
  2  3  1  0
  3  4  1  0
  4  5  1  0
  5  6  1  0
  6  7  1  0
  7  8  2  0
  8  9  1  0
  9 10  2  0
 10 11  1  0
 11 12  2  0
  2 13  1  0
 13 14  1  0
 14 15  1  0
 15 16  1  0
 16 17  1  0
 17 18  1  0
 18 19  1  0
 19 20  2  0
 20 21  1  0
 21 22  1  0
 21 23  2  0
 23 24  1  0
 24 25  2  0
 25 26  1  0
 16 27  1  0
 27 28  1  0
  6  4  1  0
 12  7  1  0
 28 13  1  0
 26 16  1  0
 25 19  1  0
  3 29  1  0
  4 30  1  1
  5 31  1  0
  5 32  1  0
  6 33  1  6
  8 34  1  0
  9 35  1  0
 10 36  1  0
 11 37  1  0
 12 38  1  0
 14 39  1  0
 14 40  1  0
 15 41  1  0
 15 42  1  0
 17 43  1  0
 17 44  1  0
 18 45  1  0
 18 46  1  0
 20 47  1  0
 23 48  1  0
 24 49  1  0
 27 50  1  0
 27 51  1  0
 28 52  1  0
 28 53  1  0
M  END
$$$$
