@<TRIPOS>MOLECULE
*****
 53 57 0 0 0
SMALL
GASTEIGER

@<TRIPOS>ATOM
      1 O          -1.8392    2.4613   -0.0530 O.2     1  UNL1       -0.2526
      2 C          -1.2629    1.4959   -0.6382 C.2     1  UNL1        0.3024
      3 N          -2.0937    0.5205   -1.2340 N.am    1  UNL1       -0.2958
      4 C          -3.5462    0.6022   -1.1906 C.3     1  UNL1        0.0320
      5 C          -4.4042   -0.0635   -2.1643 C.3     1  UNL1       -0.0254
      6 C          -4.1978   -0.7485   -0.8687 C.3     1  UNL1        0.0043
      7 C          -5.1814   -0.6852    0.2141 C.ar    1  UNL1       -0.0425
      8 C          -6.0410    0.3801    0.4059 C.ar    1  UNL1       -0.0582
      9 C          -6.9569    0.4036    1.4408 C.ar    1  UNL1       -0.0615
     10 C          -7.0472   -0.6432    2.3266 C.ar    1  UNL1       -0.0617
     11 C          -6.1998   -1.7168    2.1548 C.ar    1  UNL1       -0.0615
     12 C          -5.2847   -1.7265    1.1105 C.ar    1  UNL1       -0.0582
     13 N           0.1374    1.3847   -0.7006 N.am    1  UNL1       -0.2854
     14 C           0.8152    0.3024   -1.3652 C.3     1  UNL1        0.0197
     15 C           1.4207   -0.5401   -0.2306 C.3     1  UNL1        0.0030
     16 C           2.4410    0.3749    0.4425 C.3     1  UNL1        0.1138
     17 C           3.0523   -0.4047    1.5655 C.3     1  UNL1       -0.0087
     18 C           4.5281   -0.0905    1.7535 C.3     1  UNL1       -0.0205
     19 C           5.1881   -0.4099    0.4552 C.ar    1  UNL1       -0.0028
     20 C           6.3665   -1.1039    0.3531 C.ar    1  UNL1       -0.0198
     21 C           6.9261   -1.3671   -0.8896 C.ar    1  UNL1        0.1239
     22 F           8.0958   -2.0548   -1.0142 F       1  UNL1       -0.2055
     23 C           6.2993   -0.9310   -2.0390 C.ar    1  UNL1       -0.0230
     24 C           5.0994   -0.2227   -1.9641 C.ar    1  UNL1       -0.0169
     25 C           4.5641    0.0254   -0.7090 C.ar    1  UNL1        0.1246
     26 O           3.3846    0.7173   -0.5564 O.3     1  UNL1       -0.4853
     27 C           1.8406    1.6448    0.9550 C.3     1  UNL1        0.0030
     28 C           1.0218    2.3791   -0.0760 C.3     1  UNL1        0.0197
     29 H          -1.7293   -0.3164   -1.7405 H       1  UNL1        0.1505
     30 H          -3.9187    1.4911   -0.6714 H       1  UNL1        0.0505
     31 H          -5.4107    0.3718   -2.3454 H       1  UNL1        0.0290
     32 H          -3.9987   -0.5433   -3.0915 H       1  UNL1        0.0290
     33 H          -3.5741   -1.6525   -0.9100 H       1  UNL1        0.0367
     34 H          -5.9552    1.2022   -0.3069 H       1  UNL1        0.0620
     35 H          -7.6186    1.2487    1.5699 H       1  UNL1        0.0618
     36 H          -7.7552   -0.6657    3.1571 H       1  UNL1        0.0618
     37 H          -6.2816   -2.5409    2.8645 H       1  UNL1        0.0618
     38 H          -4.6252   -2.5726    0.9846 H       1  UNL1        0.0620
     39 H           1.7342    0.7403   -1.8693 H       1  UNL1        0.0466
     40 H           0.2228   -0.2871   -2.0568 H       1  UNL1        0.0466
     41 H           0.6071   -0.7855    0.4688 H       1  UNL1        0.0319
     42 H           1.9684   -1.3967   -0.6257 H       1  UNL1        0.0319
     43 H           2.9929   -1.4931    1.3493 H       1  UNL1        0.0307
     44 H           2.4794   -0.1998    2.4943 H       1  UNL1        0.0307
     45 H           4.6985    0.9584    2.0208 H       1  UNL1        0.0316
     46 H           4.8870   -0.8045    2.5390 H       1  UNL1        0.0316
     47 H           6.8470   -1.4386    1.2403 H       1  UNL1        0.0650
     48 H           6.6908   -1.1084   -3.0298 H       1  UNL1        0.0647
     49 H           4.6115    0.1173   -2.8700 H       1  UNL1        0.0655
     50 H           1.1954    1.4520    1.8353 H       1  UNL1        0.0319
     51 H           2.6841    2.3162    1.2277 H       1  UNL1        0.0319
     52 H           1.7231    2.7912   -0.8381 H       1  UNL1        0.0466
     53 H           0.3986    3.1320    0.4023 H       1  UNL1        0.0466
@<TRIPOS>BOND
     1     1     2    2
     2     2     3   am
     3     3     4    1
     4     4     5    1
     5     5     6    1
     6     6     7    1
     7     7     8   ar
     8     8     9   ar
     9     9    10   ar
    10    10    11   ar
    11    11    12   ar
    12     2    13   am
    13    13    14    1
    14    14    15    1
    15    15    16    1
    16    16    17    1
    17    17    18    1
    18    18    19    1
    19    19    20   ar
    20    20    21   ar
    21    21    22    1
    22    21    23   ar
    23    23    24   ar
    24    24    25   ar
    25    25    26    1
    26    16    27    1
    27    27    28    1
    28     6     4    1
    29    12     7   ar
    30    28    13    1
    31    26    16    1
    32    25    19   ar
    33     3    29    1
    34     4    30    1
    35     5    31    1
    36     5    32    1
    37     6    33    1
    38     8    34    1
    39     9    35    1
    40    10    36    1
    41    11    37    1
    42    12    38    1
    43    14    39    1
    44    14    40    1
    45    15    41    1
    46    15    42    1
    47    17    43    1
    48    17    44    1
    49    18    45    1
    50    18    46    1
    51    20    47    1
    52    23    48    1
    53    24    49    1
    54    27    50    1
    55    27    51    1
    56    28    52    1
    57    28    53    1
