
     RDKit          3D

 32 33  0  0  0  0  0  0  0  0999 V2000
   -4.3631    1.4717    0.2691 C   0  0  0  0  0  0  0  0  0  0  0  0
   -3.2996    0.4631   -0.0435 C   0  0  0  0  0  0  0  0  0  0  0  0
   -1.9744    0.7784    0.1559 C   0  0  0  0  0  0  0  0  0  0  0  0
   -0.9805   -0.1105   -0.1161 N   0  0  0  0  0  0  0  0  0  0  0  0
    0.3628    0.2452    0.0995 C   0  0  1  0  0  0  0  0  0  0  0  0
    1.0997   -0.6433    1.0897 C   0  0  0  0  0  0  0  0  0  0  0  0
    2.4881   -0.0570    0.9016 C   0  0  2  0  0  0  0  0  0  0  0  0
    2.5308    1.2269    1.5406 N   0  0  0  0  0  0  0  0  0  0  0  0
    2.6167    2.2957    0.9482 N   0  0  0  0  0  4  0  0  0  0  0  0
    2.5506    3.3868    0.3983 N   0  0  0  0  0  2  0  0  0  0  0  0
    2.4850    0.1499   -0.5956 C   0  0  1  0  0  0  0  0  0  0  0  0
    3.1991   -0.9663   -1.3199 C   0  0  0  0  0  0  0  0  0  0  0  0
    4.5366   -1.0617   -0.9490 O   0  0  0  0  0  0  0  0  0  0  0  0
    1.1800    0.1754   -1.0159 O   0  0  0  0  0  0  0  0  0  0  0  0
   -1.3623   -1.3004   -0.5852 C   0  0  0  0  0  0  0  0  0  0  0  0
   -0.4705   -2.1381   -0.8442 O   0  0  0  0  0  0  0  0  0  0  0  0
   -2.6494   -1.6501   -0.7950 N   0  0  0  0  0  0  0  0  0  0  0  0
   -3.6423   -0.7805   -0.5302 C   0  0  0  0  0  0  0  0  0  0  0  0
   -4.8528   -1.0918   -0.7210 O   0  0  0  0  0  0  0  0  0  0  0  0
   -4.7687    1.8517   -0.6924 H   0  0  0  0  0  0  0  0  0  0  0  0
   -3.9255    2.3277    0.8045 H   0  0  0  0  0  0  0  0  0  0  0  0
   -5.1457    1.0132    0.8839 H   0  0  0  0  0  0  0  0  0  0  0  0
   -1.7235    1.7578    0.5380 H   0  0  0  0  0  0  0  0  0  0  0  0
    0.4490    1.2769    0.5014 H   0  0  0  0  0  0  0  0  0  0  0  0
    0.7281   -0.5076    2.1252 H   0  0  0  0  0  0  0  0  0  0  0  0
    1.1481   -1.6871    0.7812 H   0  0  0  0  0  0  0  0  0  0  0  0
    3.2802   -0.7454    1.2374 H   0  0  0  0  0  0  0  0  0  0  0  0
    3.0064    1.1191   -0.7997 H   0  0  0  0  0  0  0  0  0  0  0  0
    2.6795   -1.9166   -1.1631 H   0  0  0  0  0  0  0  0  0  0  0  0
    3.1272   -0.7253   -2.4107 H   0  0  0  0  0  0  0  0  0  0  0  0
    4.5825   -1.5537   -0.1091 H   0  0  0  0  0  0  0  0  0  0  0  0
   -2.8918   -2.6042   -1.1672 H   0  0  0  0  0  0  0  0  0  0  0  0
  1  2  1  0
  2  3  2  0
  3  4  1  0
  4  5  1  0
  5  6  1  0
  6  7  1  0
  7  8  1  0
  8  9  2  0
  9 10  2  0
  7 11  1  0
 11 12  1  0
 12 13  1  0
 11 14  1  0
  4 15  1  0
 15 16  2  0
 15 17  1  0
 17 18  1  0
 18 19  2  0
 18  2  1  0
 14  5  1  0
  1 20  1  0
  1 21  1  0
  1 22  1  0
  3 23  1  0
  5 24  1  1
  6 25  1  0
  6 26  1  0
  7 27  1  6
 11 28  1  1
 12 29  1  0
 12 30  1  0
 13 31  1  0
 17 32  1  0
M  CHG  2   9   1  10  -1
M  END
$$$$
