@<TRIPOS>MOLECULE
*****
 32 33 0 0 0
SMALL
GASTEIGER

@<TRIPOS>ATOM
      1 C          -4.3631    1.4717    0.2691 C.3     1  UNL1       -0.0332
      2 C          -3.2996    0.4631   -0.0435 C.ar    1  UNL1        0.0302
      3 C          -1.9744    0.7784    0.1559 C.ar    1  UNL1        0.0199
      4 N          -0.9805   -0.1105   -0.1161 N.ar    1  UNL1       -0.2737
      5 C           0.3628    0.2452    0.0995 C.3     1  UNL1        0.1420
      6 C           1.0997   -0.6433    1.0897 C.3     1  UNL1        0.0244
      7 C           2.4881   -0.0570    0.9016 C.3     1  UNL1        0.1617
      8 N           2.5308    1.2269    1.5406 N.2     1  UNL1        0.0825
      9 N           2.6167    2.2957    0.9482 N.2     1  UNL1       -0.0144
     10 N           2.5506    3.3868    0.3983 N.2     1  UNL1       -0.3282
     11 C           2.4850    0.1499   -0.5956 C.3     1  UNL1        0.1131
     12 C           3.1991   -0.9663   -1.3199 C.3     1  UNL1        0.0727
     13 O           4.5366   -1.0617   -0.9490 O.3     1  UNL1       -0.3924
     14 O           1.1800    0.1754   -1.0159 O.3     1  UNL1       -0.3486
     15 C          -1.3623   -1.3004   -0.5852 C.ar    1  UNL1        0.3313
     16 O          -0.4705   -2.1381   -0.8442 O.2     1  UNL1       -0.2464
     17 N          -2.6494   -1.6501   -0.7950 N.ar    1  UNL1       -0.2747
     18 C          -3.6423   -0.7805   -0.5302 C.ar    1  UNL1        0.2568
     19 O          -4.8528   -1.0918   -0.7210 O.2     1  UNL1       -0.2674
     20 H          -4.7687    1.8517   -0.6924 H       1  UNL1        0.0280
     21 H          -3.9255    2.3277    0.8045 H       1  UNL1        0.0280
     22 H          -5.1457    1.0132    0.8839 H       1  UNL1        0.0280
     23 H          -1.7235    1.7578    0.5380 H       1  UNL1        0.0816
     24 H           0.4490    1.2769    0.5014 H       1  UNL1        0.0840
     25 H           0.7281   -0.5076    2.1252 H       1  UNL1        0.0332
     26 H           1.1481   -1.6871    0.7812 H       1  UNL1        0.0332
     27 H           3.2802   -0.7454    1.2374 H       1  UNL1        0.0643
     28 H           3.0064    1.1191   -0.7997 H       1  UNL1        0.0643
     29 H           2.6795   -1.9166   -1.1631 H       1  UNL1        0.0584
     30 H           3.1272   -0.7253   -2.4107 H       1  UNL1        0.0584
     31 H           4.5825   -1.5537   -0.1091 H       1  UNL1        0.2095
     32 H          -2.8918   -2.6042   -1.1672 H       1  UNL1        0.1734
@<TRIPOS>UNITY_ATOM_ATTR
9 1
charge 1
10 1
charge -1
@<TRIPOS>BOND
     1     1     2    1
     2     2     3   ar
     3     3     4   ar
     4     4     5    1
     5     5     6    1
     6     6     7    1
     7     7     8    1
     8     8     9    2
     9     9    10    2
    10     7    11    1
    11    11    12    1
    12    12    13    1
    13    11    14    1
    14     4    15   ar
    15    15    16    2
    16    15    17   ar
    17    17    18   ar
    18    18    19    2
    19    18     2   ar
    20    14     5    1
    21     1    20    1
    22     1    21    1
    23     1    22    1
    24     3    23    1
    25     5    24    1
    26     6    25    1
    27     6    26    1
    28     7    27    1
    29    11    28    1
    30    12    29    1
    31    12    30    1
    32    13    31    1
    33    17    32    1
