
     RDKit          3D

 70 74  0  0  0  0  0  0  0  0999 V2000
    9.0094   -1.7982    1.8109 C   0  0  0  0  0  0  0  0  0  0  0  0
    9.1104   -0.3534    1.3715 C   0  0  0  0  0  0  0  0  0  0  0  0
   10.3302   -0.2775    0.4456 C   0  0  0  0  0  0  0  0  0  0  0  0
    7.9397    0.0136    0.5332 C   0  0  0  0  0  0  0  0  0  0  0  0
    7.5974   -0.7397   -0.5581 C   0  0  0  0  0  0  0  0  0  0  0  0
    6.4872   -0.3565   -1.3217 C   0  0  0  0  0  0  0  0  0  0  0  0
    5.7451    0.7532   -0.9946 C   0  0  0  0  0  0  0  0  0  0  0  0
    4.6242    1.1410   -1.7642 N   0  0  0  0  0  0  0  0  0  0  0  0
    3.2998    0.7215   -1.5348 C   0  0  0  0  0  0  0  0  0  0  0  0
    3.0903   -0.0663   -0.5604 O   0  0  0  0  0  0  0  0  0  0  0  0
    2.2150    1.1007   -2.2869 O   0  0  0  0  0  0  0  0  0  0  0  0
    0.9081    0.6950   -2.0685 C   0  0  0  0  0  0  0  0  0  0  0  0
    0.4920   -0.4739   -2.6693 C   0  0  0  0  0  0  0  0  0  0  0  0
   -0.7934   -0.9360   -2.4947 C   0  0  0  0  0  0  0  0  0  0  0  0
   -1.6830   -0.2330   -1.7147 C   0  0  0  0  0  0  0  0  0  0  0  0
   -1.2930    0.9400   -1.1018 C   0  0  0  0  0  0  0  0  0  0  0  0
   -0.0057    1.3741   -1.2949 C   0  0  0  0  0  0  0  0  0  0  0  0
   -2.4528    1.4684   -0.3388 C   0  0  2  0  0  0  0  0  0  0  0  0
   -2.5788    2.9381   -0.6365 C   0  0  0  0  0  0  0  0  0  0  0  0
   -2.3833    1.1636    1.1193 C   0  0  0  0  0  0  0  0  0  0  0  0
   -3.3225    0.0152    1.2957 C   0  0  0  0  0  0  0  0  0  0  0  0
   -4.3654    0.2579    0.3529 N   0  0  0  0  0  0  0  0  0  0  0  0
   -5.3256    1.2439    0.7269 C   0  0  0  0  0  0  0  0  0  0  0  0
   -6.2081    0.8420    1.8800 C   0  0  0  0  0  0  0  0  0  0  0  0
   -6.9930   -0.3913    1.5637 C   0  0  0  0  0  0  0  0  0  0  0  0
   -6.4583   -1.6030    1.8625 C   0  0  0  0  0  0  0  0  0  0  0  0
   -7.1959   -2.7506    1.5654 C   0  0  0  0  0  0  0  0  0  0  0  0
   -8.4388   -2.6719    0.9827 C   0  0  0  0  0  0  0  0  0  0  0  0
   -8.9971   -1.4419    0.6724 C   0  0  0  0  0  0  0  0  0  0  0  0
   -8.2381   -0.3330    0.9809 C   0  0  0  0  0  0  0  0  0  0  0  0
   -3.6554    0.6854   -0.8186 C   0  0  0  0  0  0  0  0  0  0  0  0
   -3.0395   -0.5130   -1.3971 N   0  0  0  0  0  0  0  0  0  0  0  0
   -3.6953   -1.7713   -1.6101 C   0  0  0  0  0  0  0  0  0  0  0  0
    6.0909    1.5072    0.1008 C   0  0  0  0  0  0  0  0  0  0  0  0
    7.1993    1.1238    0.8629 C   0  0  0  0  0  0  0  0  0  0  0  0
    8.9742   -2.4191    0.8878 H   0  0  0  0  0  0  0  0  0  0  0  0
    9.9435   -2.0898    2.3349 H   0  0  0  0  0  0  0  0  0  0  0  0
    8.1010   -1.9620    2.4487 H   0  0  0  0  0  0  0  0  0  0  0  0
    9.2373    0.3380    2.2280 H   0  0  0  0  0  0  0  0  0  0  0  0
   11.2628   -0.2523    1.0150 H   0  0  0  0  0  0  0  0  0  0  0  0
   10.1571    0.6508   -0.1657 H   0  0  0  0  0  0  0  0  0  0  0  0
   10.2477   -1.1468   -0.2390 H   0  0  0  0  0  0  0  0  0  0  0  0
    8.1824   -1.6122   -0.8152 H   0  0  0  0  0  0  0  0  0  0  0  0
    6.2412   -0.9673   -2.1740 H   0  0  0  0  0  0  0  0  0  0  0  0
    4.8020    1.7903   -2.5641 H   0  0  0  0  0  0  0  0  0  0  0  0
    1.1958   -1.0392   -3.2926 H   0  0  0  0  0  0  0  0  0  0  0  0
   -1.0595   -1.8621   -2.9936 H   0  0  0  0  0  0  0  0  0  0  0  0
    0.3499    2.2993   -0.8290 H   0  0  0  0  0  0  0  0  0  0  0  0
   -2.8624    3.4630    0.2999 H   0  0  0  0  0  0  0  0  0  0  0  0
   -3.2487    3.1670   -1.4797 H   0  0  0  0  0  0  0  0  0  0  0  0
   -1.5698    3.3180   -0.8985 H   0  0  0  0  0  0  0  0  0  0  0  0
   -2.7360    1.9947    1.7638 H   0  0  0  0  0  0  0  0  0  0  0  0
   -1.3628    0.8223    1.4248 H   0  0  0  0  0  0  0  0  0  0  0  0
   -3.6773   -0.1059    2.3388 H   0  0  0  0  0  0  0  0  0  0  0  0
   -2.8490   -0.9723    1.0316 H   0  0  0  0  0  0  0  0  0  0  0  0
   -4.8788    2.2281    0.9774 H   0  0  0  0  0  0  0  0  0  0  0  0
   -5.9833    1.4271   -0.1501 H   0  0  0  0  0  0  0  0  0  0  0  0
   -5.6796    0.7612    2.8319 H   0  0  0  0  0  0  0  0  0  0  0  0
   -6.9679    1.6510    1.9917 H   0  0  0  0  0  0  0  0  0  0  0  0
   -5.4866   -1.6749    2.3193 H   0  0  0  0  0  0  0  0  0  0  0  0
   -6.7716   -3.7189    1.8028 H   0  0  0  0  0  0  0  0  0  0  0  0
   -9.0417   -3.5536    0.7369 H   0  0  0  0  0  0  0  0  0  0  0  0
   -9.9894   -1.3649    0.2060 H   0  0  0  0  0  0  0  0  0  0  0  0
   -8.6607    0.6396    0.7430 H   0  0  0  0  0  0  0  0  0  0  0  0
   -4.2719    1.2316   -1.5483 H   0  0  0  0  0  0  0  0  0  0  0  0
   -3.7957   -1.9758   -2.7009 H   0  0  0  0  0  0  0  0  0  0  0  0
   -4.6618   -1.8521   -1.0693 H   0  0  0  0  0  0  0  0  0  0  0  0
   -3.0775   -2.6310   -1.2172 H   0  0  0  0  0  0  0  0  0  0  0  0
    5.5010    2.3833    0.3552 H   0  0  0  0  0  0  0  0  0  0  0  0
    7.4200    1.7607    1.7157 H   0  0  0  0  0  0  0  0  0  0  0  0
  1  2  1  0
  2  3  1  0
  2  4  1  0
  4  5  2  0
  5  6  1  0
  6  7  2  0
  7  8  1  0
  8  9  1  0
  9 10  2  0
  9 11  1  0
 11 12  1  0
 12 13  2  0
 13 14  1  0
 14 15  2  0
 15 16  1  0
 16 17  2  0
 16 18  1  0
 18 19  1  1
 18 20  1  0
 20 21  1  0
 21 22  1  0
 22 23  1  0
 23 24  1  0
 24 25  1  0
 25 26  2  0
 26 27  1  0
 27 28  2  0
 28 29  1  0
 29 30  2  0
 22 31  1  0
 31 32  1  0
 32 33  1  0
  7 34  1  0
 34 35  2  0
 35  4  1  0
 17 12  1  0
 31 18  1  0
 32 15  1  0
 30 25  1  0
  1 36  1  0
  1 37  1  0
  1 38  1  0
  2 39  1  0
  3 40  1  0
  3 41  1  0
  3 42  1  0
  5 43  1  0
  6 44  1  0
  8 45  1  0
 13 46  1  0
 14 47  1  0
 17 48  1  0
 19 49  1  0
 19 50  1  0
 19 51  1  0
 20 52  1  0
 20 53  1  0
 21 54  1  0
 21 55  1  0
 23 56  1  0
 23 57  1  0
 24 58  1  0
 24 59  1  0
 26 60  1  0
 27 61  1  0
 28 62  1  0
 29 63  1  0
 30 64  1  0
 31 65  1  0
 33 66  1  0
 33 67  1  0
 33 68  1  0
 34 69  1  0
 35 70  1  0
M  END
$$$$
