@<TRIPOS>MOLECULE
*****
 70 74 0 0 0
SMALL
GASTEIGER

@<TRIPOS>ATOM
      1 C           9.0094   -1.7982    1.8109 C.3     1  UNL1       -0.0587
      2 C           9.1104   -0.3534    1.3715 C.3     1  UNL1       -0.0215
      3 C          10.3302   -0.2775    0.4456 C.3     1  UNL1       -0.0587
      4 C           7.9397    0.0136    0.5332 C.ar    1  UNL1       -0.0447
      5 C           7.5974   -0.7397   -0.5581 C.ar    1  UNL1       -0.0566
      6 C           6.4872   -0.3565   -1.3217 C.ar    1  UNL1       -0.0401
      7 C           5.7451    0.7532   -0.9946 C.ar    1  UNL1        0.0365
      8 N           4.6242    1.1410   -1.7642 N.am    1  UNL1       -0.2508
      9 C           3.2998    0.7215   -1.5348 C.2     1  UNL1        0.4099
     10 O           3.0903   -0.0663   -0.5604 O.2     1  UNL1       -0.2257
     11 O           2.2150    1.1007   -2.2869 O.3     1  UNL1       -0.4113
     12 C           0.9081    0.6950   -2.0685 C.ar    1  UNL1        0.1336
     13 C           0.4920   -0.4739   -2.6693 C.ar    1  UNL1       -0.0174
     14 C          -0.7934   -0.9360   -2.4947 C.ar    1  UNL1       -0.0369
     15 C          -1.6830   -0.2330   -1.7147 C.ar    1  UNL1        0.0347
     16 C          -1.2930    0.9400   -1.1018 C.ar    1  UNL1       -0.0139
     17 C          -0.0057    1.3741   -1.2949 C.ar    1  UNL1       -0.0136
     18 C          -2.4528    1.4684   -0.3388 C.3     1  UNL1        0.0279
     19 C          -2.5788    2.9381   -0.6365 C.3     1  UNL1       -0.0525
     20 C          -2.3833    1.1636    1.1193 C.3     1  UNL1       -0.0277
     21 C          -3.3225    0.0152    1.2957 C.3     1  UNL1        0.0015
     22 N          -4.3654    0.2579    0.3529 N.3     1  UNL1       -0.2833
     23 C          -5.3256    1.2439    0.7269 C.3     1  UNL1        0.0046
     24 C          -6.2081    0.8420    1.8800 C.3     1  UNL1       -0.0148
     25 C          -6.9930   -0.3913    1.5637 C.ar    1  UNL1       -0.0462
     26 C          -6.4583   -1.6030    1.8625 C.ar    1  UNL1       -0.0585
     27 C          -7.1959   -2.7506    1.5654 C.ar    1  UNL1       -0.0615
     28 C          -8.4388   -2.6719    0.9827 C.ar    1  UNL1       -0.0617
     29 C          -8.9971   -1.4419    0.6724 C.ar    1  UNL1       -0.0615
     30 C          -8.2381   -0.3330    0.9809 C.ar    1  UNL1       -0.0585
     31 C          -3.6554    0.6854   -0.8186 C.3     1  UNL1        0.0863
     32 N          -3.0395   -0.5130   -1.3971 N.pl3   1  UNL1       -0.3161
     33 C          -3.6953   -1.7713   -1.6101 C.3     1  UNL1        0.0022
     34 C           6.0909    1.5072    0.1008 C.ar    1  UNL1       -0.0401
     35 C           7.1993    1.1238    0.8629 C.ar    1  UNL1       -0.0566
     36 H           8.9742   -2.4191    0.8878 H       1  UNL1        0.0235
     37 H           9.9435   -2.0898    2.3349 H       1  UNL1        0.0235
     38 H           8.1010   -1.9620    2.4487 H       1  UNL1        0.0235
     39 H           9.2373    0.3380    2.2280 H       1  UNL1        0.0343
     40 H          11.2628   -0.2523    1.0150 H       1  UNL1        0.0235
     41 H          10.1571    0.6508   -0.1657 H       1  UNL1        0.0235
     42 H          10.2477   -1.1468   -0.2390 H       1  UNL1        0.0235
     43 H           8.1824   -1.6122   -0.8152 H       1  UNL1        0.0621
     44 H           6.2412   -0.9673   -2.1740 H       1  UNL1        0.0636
     45 H           4.8020    1.7903   -2.5641 H       1  UNL1        0.1582
     46 H           1.1958   -1.0392   -3.2926 H       1  UNL1        0.0655
     47 H          -1.0595   -1.8621   -2.9936 H       1  UNL1        0.0637
     48 H           0.3499    2.2993   -0.8290 H       1  UNL1        0.0658
     49 H          -2.8624    3.4630    0.2999 H       1  UNL1        0.0239
     50 H          -3.2487    3.1670   -1.4797 H       1  UNL1        0.0239
     51 H          -1.5698    3.3180   -0.8985 H       1  UNL1        0.0239
     52 H          -2.7360    1.9947    1.7638 H       1  UNL1        0.0287
     53 H          -1.3628    0.8223    1.4248 H       1  UNL1        0.0287
     54 H          -3.6773   -0.1059    2.3388 H       1  UNL1        0.0427
     55 H          -2.8490   -0.9723    1.0316 H       1  UNL1        0.0427
     56 H          -4.8788    2.2281    0.9774 H       1  UNL1        0.0430
     57 H          -5.9833    1.4271   -0.1501 H       1  UNL1        0.0430
     58 H          -5.6796    0.7612    2.8319 H       1  UNL1        0.0326
     59 H          -6.9679    1.6510    1.9917 H       1  UNL1        0.0326
     60 H          -5.4866   -1.6749    2.3193 H       1  UNL1        0.0620
     61 H          -6.7716   -3.7189    1.8028 H       1  UNL1        0.0618
     62 H          -9.0417   -3.5536    0.7369 H       1  UNL1        0.0618
     63 H          -9.9894   -1.3649    0.2060 H       1  UNL1        0.0618
     64 H          -8.6607    0.6396    0.7430 H       1  UNL1        0.0620
     65 H          -4.2719    1.2316   -1.5483 H       1  UNL1        0.0680
     66 H          -3.7957   -1.9758   -2.7009 H       1  UNL1        0.0428
     67 H          -4.6618   -1.8521   -1.0693 H       1  UNL1        0.0428
     68 H          -3.0775   -2.6310   -1.2172 H       1  UNL1        0.0428
     69 H           5.5010    2.3833    0.3552 H       1  UNL1        0.0636
     70 H           7.4200    1.7607    1.7157 H       1  UNL1        0.0621
@<TRIPOS>BOND
     1     1     2    1
     2     2     3    1
     3     2     4    1
     4     4     5   ar
     5     5     6   ar
     6     6     7   ar
     7     7     8    1
     8     8     9   am
     9     9    10    2
    10     9    11    1
    11    11    12    1
    12    12    13   ar
    13    13    14   ar
    14    14    15   ar
    15    15    16   ar
    16    16    17   ar
    17    16    18    1
    18    18    19    1
    19    18    20    1
    20    20    21    1
    21    21    22    1
    22    22    23    1
    23    23    24    1
    24    24    25    1
    25    25    26   ar
    26    26    27   ar
    27    27    28   ar
    28    28    29   ar
    29    29    30   ar
    30    22    31    1
    31    31    32    1
    32    32    33    1
    33     7    34   ar
    34    34    35   ar
    35    35     4   ar
    36    17    12   ar
    37    31    18    1
    38    32    15    1
    39    30    25   ar
    40     1    36    1
    41     1    37    1
    42     1    38    1
    43     2    39    1
    44     3    40    1
    45     3    41    1
    46     3    42    1
    47     5    43    1
    48     6    44    1
    49     8    45    1
    50    13    46    1
    51    14    47    1
    52    17    48    1
    53    19    49    1
    54    19    50    1
    55    19    51    1
    56    20    52    1
    57    20    53    1
    58    21    54    1
    59    21    55    1
    60    23    56    1
    61    23    57    1
    62    24    58    1
    63    24    59    1
    64    26    60    1
    65    27    61    1
    66    28    62    1
    67    29    63    1
    68    30    64    1
    69    31    65    1
    70    33    66    1
    71    33    67    1
    72    33    68    1
    73    34    69    1
    74    35    70    1
