
     RDKit          3D

 67 72  0  0  0  0  0  0  0  0999 V2000
   -5.9947    3.1225   -0.2747 C   0  0  0  0  0  0  0  0  0  0  0  0
   -5.9915    2.1175    0.8259 C   0  0  0  0  0  0  0  0  0  0  0  0
   -7.0647    1.6925    1.4324 O   0  0  0  0  0  0  0  0  0  0  0  0
   -6.7770    0.8066    2.3704 C   0  0  0  0  0  0  0  0  0  0  0  0
   -5.4162    0.6534    2.3631 C   0  0  0  0  0  0  0  0  0  0  0  0
   -4.9143    1.4816    1.3848 C   0  0  0  0  0  0  0  0  0  0  0  0
   -3.5369    1.6375    1.0196 C   0  0  0  0  0  0  0  0  0  0  0  0
   -2.8201    2.7916    1.2404 N   0  0  0  0  0  0  0  0  0  0  0  0
   -1.5400    2.8861    0.9482 C   0  0  0  0  0  0  0  0  0  0  0  0
   -0.8339    4.1009    1.2131 N   0  0  0  0  0  0  0  0  0  0  0  0
   -0.8701    1.7962    0.4011 C   0  0  0  0  0  0  0  0  0  0  0  0
    0.4652    1.9737    0.1302 O   0  0  0  0  0  0  0  0  0  0  0  0
    1.3962    1.2767   -0.3141 C   0  0  0  0  0  0  0  0  0  0  0  0
    2.5709    0.5629   -0.8209 C   0  0  1  0  0  0  0  0  0  0  0  0
    3.1138    1.2136   -2.0559 N   0  0  0  0  0  0  0  0  0  0  0  0
    3.7270    0.6381    0.1875 C   0  0  0  0  0  0  0  0  0  0  0  0
    4.9182   -0.0939   -0.2580 C   0  0  0  0  0  0  0  0  0  0  0  0
    5.2168   -1.4495   -0.2391 C   0  0  0  0  0  0  0  0  0  0  0  0
    4.3779   -2.5196    0.2652 C   0  0  0  0  0  0  0  0  0  0  0  0
    3.0946   -2.3233    0.8128 N   0  0  0  0  0  0  0  0  0  0  0  0
    4.8599   -3.7093    0.1956 O   0  0  0  0  0  0  0  0  0  0  0  0
    6.4434   -1.6238   -0.7759 N   0  0  0  0  0  0  0  0  0  0  0  0
    6.9706   -0.4432   -1.1520 C   0  0  0  0  0  0  0  0  0  0  0  0
    8.1988   -0.1792   -1.7426 C   0  0  0  0  0  0  0  0  0  0  0  0
    8.4385    1.1636   -2.0065 C   0  0  0  0  0  0  0  0  0  0  0  0
    7.5294    2.1447   -1.7045 C   0  0  0  0  0  0  0  0  0  0  0  0
    6.3126    1.8424   -1.1143 C   0  0  0  0  0  0  0  0  0  0  0  0
    6.0433    0.5095   -0.8387 C   0  0  0  0  0  0  0  0  0  0  0  0
   -1.5269    0.6257    0.1598 C   0  0  0  0  0  0  0  0  0  0  0  0
   -2.8893    0.5575    0.4789 C   0  0  0  0  0  0  0  0  0  0  0  0
   -3.6508   -0.6643    0.2307 C   0  0  0  0  0  0  0  0  0  0  0  0
   -4.7397   -0.7465   -0.5816 C   0  0  0  0  0  0  0  0  0  0  0  0
   -5.4599   -1.8479   -0.8442 N   0  0  0  0  0  0  0  0  0  0  0  0
   -5.0931   -3.0002   -0.2654 C   0  0  0  0  0  0  0  0  0  0  0  0
   -5.5043   -4.2844   -0.2514 N   0  0  0  0  0  0  0  0  0  0  0  0
   -4.7458   -5.0146    0.5120 N   0  0  0  0  0  0  0  0  0  0  0  0
   -3.7688   -4.2758    1.0680 C   0  0  0  0  0  0  0  0  0  0  0  0
   -2.6884   -4.7192    2.0135 C   0  0  0  0  0  0  0  0  0  0  0  0
   -3.9726   -2.9858    0.5840 C   0  0  0  0  0  0  0  0  0  0  0  0
   -3.2855   -1.8522    0.8166 N   0  0  0  0  0  0  0  0  0  0  0  0
   -5.8155    4.1579    0.1417 H   0  0  0  0  0  0  0  0  0  0  0  0
   -5.2258    2.9676   -1.0244 H   0  0  0  0  0  0  0  0  0  0  0  0
   -6.9884    3.1472   -0.7284 H   0  0  0  0  0  0  0  0  0  0  0  0
   -7.4903    0.2917    3.0279 H   0  0  0  0  0  0  0  0  0  0  0  0
   -4.8337    0.0262    2.9778 H   0  0  0  0  0  0  0  0  0  0  0  0
   -1.2570    4.8010    1.8758 H   0  0  0  0  0  0  0  0  0  0  0  0
    0.0808    4.3313    0.7872 H   0  0  0  0  0  0  0  0  0  0  0  0
    0.8594    1.2495   -1.5691 H   0  0  0  0  0  0  0  0  0  0  0  0
    0.7500    0.1088   -0.1287 H   0  0  0  0  0  0  0  0  0  0  0  0
    2.3945   -0.4651   -1.1406 H   0  0  0  0  0  0  0  0  0  0  0  0
    3.2197    2.2110   -1.8251 H   0  0  0  0  0  0  0  0  0  0  0  0
    2.3962    1.0194   -2.7666 H   0  0  0  0  0  0  0  0  0  0  0  0
    3.9523    1.7558    0.2476 H   0  0  0  0  0  0  0  0  0  0  0  0
    3.3640    0.3608    1.1737 H   0  0  0  0  0  0  0  0  0  0  0  0
    2.2375   -2.7039    0.3011 H   0  0  0  0  0  0  0  0  0  0  0  0
    2.9621   -1.8310    1.7043 H   0  0  0  0  0  0  0  0  0  0  0  0
    6.9122   -2.5449   -0.8886 H   0  0  0  0  0  0  0  0  0  0  0  0
    8.9435   -0.8956   -1.9937 H   0  0  0  0  0  0  0  0  0  0  0  0
    9.3929    1.4576   -2.4780 H   0  0  0  0  0  0  0  0  0  0  0  0
    7.7250    3.1970   -1.9046 H   0  0  0  0  0  0  0  0  0  0  0  0
    5.5665    2.5709   -0.8619 H   0  0  0  0  0  0  0  0  0  0  0  0
   -1.1000   -0.2704   -0.2662 H   0  0  0  0  0  0  0  0  0  0  0  0
   -5.0718    0.1667   -1.0949 H   0  0  0  0  0  0  0  0  0  0  0  0
   -6.3335   -4.6303   -0.7869 H   0  0  0  0  0  0  0  0  0  0  0  0
   -3.0967   -5.2616    2.8863 H   0  0  0  0  0  0  0  0  0  0  0  0
   -1.9443   -5.3127    1.4696 H   0  0  0  0  0  0  0  0  0  0  0  0
   -2.1918   -3.7673    2.3353 H   0  0  0  0  0  0  0  0  0  0  0  0
  1  2  1  0
  2  3  1  0
  3  4  1  0
  4  5  2  0
  5  6  1  0
  6  7  1  0
  7  8  2  0
  8  9  1  0
  9 10  1  0
  9 11  2  0
 11 12  1  0
 12 13  1  0
 13 14  1  0
 14 15  1  0
 14 16  1  0
 16 17  1  0
 17 18  2  0
 18 19  1  0
 19 20  1  0
 19 21  2  0
 18 22  1  0
 22 23  1  0
 23 24  2  0
 24 25  1  0
 25 26  2  0
 26 27  1  0
 27 28  2  0
 11 29  1  0
 29 30  2  0
 30 31  1  0
 31 32  2  0
 32 33  1  0
 33 34  2  0
 34 35  1  0
 35 36  1  0
 36 37  2  0
 37 38  1  0
 37 39  1  0
 39 40  2  0
  6  2  2  0
 30  7  1  0
 40 31  1  0
 28 17  1  0
 39 34  1  0
 28 23  1  0
  1 41  1  0
  1 42  1  0
  1 43  1  0
  4 44  1  0
  5 45  1  0
 10 46  1  0
 10 47  1  0
 13 48  1  0
 13 49  1  0
 14 50  1  6
 15 51  1  0
 15 52  1  0
 16 53  1  0
 16 54  1  0
 20 55  1  0
 20 56  1  0
 22 57  1  0
 24 58  1  0
 25 59  1  0
 26 60  1  0
 27 61  1  0
 29 62  1  0
 32 63  1  0
 35 64  1  0
 38 65  1  0
 38 66  1  0
 38 67  1  0
M  END
$$$$
