@<TRIPOS>MOLECULE
*****
 67 72 0 0 0
SMALL
GASTEIGER

@<TRIPOS>ATOM
      1 C          -5.9947    3.1225   -0.2747 C.3     1  UNL1       -0.0057
      2 C          -5.9915    2.1175    0.8259 C.ar    1  UNL1        0.1109
      3 O          -7.0647    1.6925    1.4324 O.2     1  UNL1       -0.4674
      4 C          -6.7770    0.8066    2.3704 C.ar    1  UNL1        0.0927
      5 C          -5.4162    0.6534    2.3631 C.ar    1  UNL1       -0.0144
      6 C          -4.9143    1.4816    1.3848 C.ar    1  UNL1        0.0416
      7 C          -3.5369    1.6375    1.0196 C.ar    1  UNL1        0.0858
      8 N          -2.8201    2.7916    1.2404 N.ar    1  UNL1       -0.2279
      9 C          -1.5400    2.8861    0.9482 C.ar    1  UNL1        0.1589
     10 N          -0.8339    4.1009    1.2131 N.pl3   1  UNL1       -0.3402
     11 C          -0.8701    1.7962    0.4011 C.ar    1  UNL1        0.1605
     12 O           0.4652    1.9737    0.1302 O.3     1  UNL1       -0.4870
     13 C           1.3962    1.2767   -0.3141 C.3     1  UNL1        0.1051
     14 C           2.5709    0.5629   -0.8209 C.3     1  UNL1        0.0435
     15 N           3.1138    1.2136   -2.0559 N.3     1  UNL1       -0.3242
     16 C           3.7270    0.6381    0.1875 C.3     1  UNL1       -0.0065
     17 C           4.9182   -0.0939   -0.2580 C.ar    1  UNL1       -0.0083
     18 C           5.2168   -1.4495   -0.2391 C.ar    1  UNL1        0.1058
     19 C           4.3779   -2.5196    0.2652 C.2     1  UNL1        0.2581
     20 N           3.0946   -2.3233    0.8128 N.am    1  UNL1       -0.3241
     21 O           4.8599   -3.7093    0.1956 O.2     1  UNL1       -0.2688
     22 N           6.4434   -1.6238   -0.7759 N.ar    1  UNL1       -0.3504
     23 C           6.9706   -0.4432   -1.1520 C.ar    1  UNL1        0.0473
     24 C           8.1988   -0.1792   -1.7426 C.ar    1  UNL1       -0.0378
     25 C           8.4385    1.1636   -2.0065 C.ar    1  UNL1       -0.0598
     26 C           7.5294    2.1447   -1.7045 C.ar    1  UNL1       -0.0611
     27 C           6.3126    1.8424   -1.1143 C.ar    1  UNL1       -0.0523
     28 C           6.0433    0.5095   -0.8387 C.ar    1  UNL1        0.0036
     29 C          -1.5269    0.6257    0.1598 C.ar    1  UNL1       -0.0052
     30 C          -2.8893    0.5575    0.4789 C.ar    1  UNL1        0.0315
     31 C          -3.6508   -0.6643    0.2307 C.ar    1  UNL1        0.0921
     32 C          -4.7397   -0.7465   -0.5816 C.ar    1  UNL1        0.0560
     33 N          -5.4599   -1.8479   -0.8442 N.ar    1  UNL1       -0.2326
     34 C          -5.0931   -3.0002   -0.2654 C.ar    1  UNL1        0.1747
     35 N          -5.5043   -4.2844   -0.2514 N.ar    1  UNL1       -0.2587
     36 N          -4.7458   -5.0146    0.5120 N.ar    1  UNL1       -0.1752
     37 C          -3.7688   -4.2758    1.0680 C.ar    1  UNL1        0.0872
     38 C          -2.6884   -4.7192    2.0135 C.3     1  UNL1       -0.0185
     39 C          -3.9726   -2.9858    0.5840 C.ar    1  UNL1        0.1306
     40 N          -3.2855   -1.8522    0.8166 N.ar    1  UNL1       -0.2401
     41 H          -5.8155    4.1579    0.1417 H       1  UNL1        0.0308
     42 H          -5.2258    2.9676   -1.0244 H       1  UNL1        0.0308
     43 H          -6.9884    3.1472   -0.7284 H       1  UNL1        0.0308
     44 H          -7.4903    0.2917    3.0279 H       1  UNL1        0.1029
     45 H          -4.8337    0.0262    2.9778 H       1  UNL1        0.0656
     46 H          -1.2570    4.8010    1.8758 H       1  UNL1        0.1438
     47 H           0.0808    4.3313    0.7872 H       1  UNL1        0.1438
     48 H           0.8594    1.2495   -1.5691 H       1  UNL1        0.0712
     49 H           0.7500    0.1088   -0.1287 H       1  UNL1        0.0712
     50 H           2.3945   -0.4651   -1.1406 H       1  UNL1        0.0495
     51 H           3.2197    2.2110   -1.8251 H       1  UNL1        0.1186
     52 H           2.3962    1.0194   -2.7666 H       1  UNL1        0.1186
     53 H           3.9523    1.7558    0.2476 H       1  UNL1        0.0330
     54 H           3.3640    0.3608    1.1737 H       1  UNL1        0.0330
     55 H           2.2375   -2.7039    0.3011 H       1  UNL1        0.1453
     56 H           2.9621   -1.8310    1.7043 H       1  UNL1        0.1453
     57 H           6.9122   -2.5449   -0.8886 H       1  UNL1        0.1660
     58 H           8.9435   -0.8956   -1.9937 H       1  UNL1        0.0638
     59 H           9.3929    1.4576   -2.4780 H       1  UNL1        0.0618
     60 H           7.7250    3.1970   -1.9046 H       1  UNL1        0.0618
     61 H           5.5665    2.5709   -0.8619 H       1  UNL1        0.0624
     62 H          -1.1000   -0.2704   -0.2662 H       1  UNL1        0.0662
     63 H          -5.0718    0.1667   -1.0949 H       1  UNL1        0.0852
     64 H          -6.3335   -4.6303   -0.7869 H       1  UNL1        0.1906
     65 H          -3.0967   -5.2616    2.8863 H       1  UNL1        0.0294
     66 H          -1.9443   -5.3127    1.4696 H       1  UNL1        0.0294
     67 H          -2.1918   -3.7673    2.3353 H       1  UNL1        0.0294
@<TRIPOS>BOND
     1     1     2    1
     2     2     3   ar
     3     3     4   ar
     4     4     5   ar
     5     5     6   ar
     6     6     7    1
     7     7     8   ar
     8     8     9   ar
     9     9    10    1
    10     9    11   ar
    11    11    12    1
    12    12    13    1
    13    13    14    1
    14    14    15    1
    15    14    16    1
    16    16    17    1
    17    17    18   ar
    18    18    19    1
    19    19    20   am
    20    19    21    2
    21    18    22   ar
    22    22    23   ar
    23    23    24   ar
    24    24    25   ar
    25    25    26   ar
    26    26    27   ar
    27    27    28   ar
    28    11    29   ar
    29    29    30   ar
    30    30    31    1
    31    31    32   ar
    32    32    33   ar
    33    33    34   ar
    34    34    35   ar
    35    35    36   ar
    36    36    37   ar
    37    37    38    1
    38    37    39   ar
    39    39    40   ar
    40     6     2   ar
    41    30     7   ar
    42    40    31   ar
    43    28    17   ar
    44    39    34   ar
    45    28    23   ar
    46     1    41    1
    47     1    42    1
    48     1    43    1
    49     4    44    1
    50     5    45    1
    51    10    46    1
    52    10    47    1
    53    13    48    1
    54    13    49    1
    55    14    50    1
    56    15    51    1
    57    15    52    1
    58    16    53    1
    59    16    54    1
    60    20    55    1
    61    20    56    1
    62    22    57    1
    63    24    58    1
    64    25    59    1
    65    26    60    1
    66    27    61    1
    67    29    62    1
    68    32    63    1
    69    35    64    1
    70    38    65    1
    71    38    66    1
    72    38    67    1
