@<TRIPOS>MOLECULE
*****
 45 47 0 0 0
SMALL
GASTEIGER

@<TRIPOS>ATOM
      1 C          -2.6058    1.4821   -1.1201 C.3     1  UNL1       -0.0124
      2 N          -2.3574    0.0995   -0.6722 N.3     1  UNL1       -0.3009
      3 C          -1.0119    0.1155   -0.1347 C.3     1  UNL1        0.0030
      4 C          -0.5205   -1.2194    0.3310 C.3     1  UNL1       -0.0119
      5 C           0.8803   -1.0411    0.8539 C.ar    1  UNL1       -0.0082
      6 C           1.2718   -0.7443    2.1422 C.ar    1  UNL1        0.0530
      7 N           2.6124   -0.6796    2.1350 N.ar    1  UNL1       -0.1732
      8 N           3.1108   -0.9137    0.9351 N.ar    1  UNL1       -0.2215
      9 C           4.4778   -0.9221    0.5505 C.ar    1  UNL1        0.1546
     10 C           5.1423    0.2594    0.3120 C.ar    1  UNL1       -0.0035
     11 C           6.4634    0.3051   -0.0651 C.ar    1  UNL1        0.0638
     12 C           7.0898    1.5923   -0.2970 C.2     1  UNL1        0.3370
     13 O           8.3025    1.6391   -0.6455 O.2     1  UNL1       -0.2451
     14 O           6.3484    2.7403   -0.1323 O.3     1  UNL1       -0.4771
     15 C           7.1604   -0.9001   -0.2121 C.ar    1  UNL1       -0.0295
     16 C           6.4694   -2.0647    0.0333 C.ar    1  UNL1        0.0307
     17 N           5.1534   -2.0720    0.4074 N.ar    1  UNL1       -0.2361
     18 C           2.0491   -1.1409    0.1237 C.ar    1  UNL1        0.0361
     19 C          -3.2664   -0.1025    0.4570 C.3     1  UNL1        0.0238
     20 C          -4.6884    0.0590    0.0780 C.ar    1  UNL1       -0.0332
     21 C          -5.4111   -1.0477   -0.3571 C.ar    1  UNL1       -0.0546
     22 C          -6.7414   -0.9374   -0.7200 C.ar    1  UNL1       -0.0262
     23 C          -7.4079    0.2752   -0.6657 C.ar    1  UNL1        0.1234
     24 F          -8.7217    0.3712   -1.0275 F       1  UNL1       -0.2055
     25 C          -6.6923    1.3715   -0.2345 C.ar    1  UNL1       -0.0262
     26 C          -5.3563    1.2598    0.1297 C.ar    1  UNL1       -0.0546
     27 H          -1.7528    1.7249   -1.8218 H       1  UNL1        0.0391
     28 H          -3.5310    1.5575   -1.6998 H       1  UNL1        0.0391
     29 H          -2.5308    2.1842   -0.2660 H       1  UNL1        0.0391
     30 H          -0.3185    0.4712   -0.9239 H       1  UNL1        0.0430
     31 H          -1.0451    0.8209    0.7301 H       1  UNL1        0.0430
     32 H          -0.4163   -1.9058   -0.5553 H       1  UNL1        0.0327
     33 H          -1.1500   -1.7181    1.0836 H       1  UNL1        0.0327
     34 H           0.6020   -0.5907    3.0042 H       1  UNL1        0.0851
     35 H           4.6148    1.1915    0.4228 H       1  UNL1        0.0663
     36 H           6.6457    3.5642   -0.6684 H       1  UNL1        0.2954
     37 H           8.1867   -0.8482   -0.5052 H       1  UNL1        0.0641
     38 H           7.0281   -2.9927   -0.0861 H       1  UNL1        0.0830
     39 H           2.1205   -1.3678   -0.9414 H       1  UNL1        0.0834
     40 H          -3.0605   -1.1456    0.8257 H       1  UNL1        0.0476
     41 H          -2.9552    0.5966    1.2687 H       1  UNL1        0.0476
     42 H          -4.8964   -1.9827   -0.3995 H       1  UNL1        0.0622
     43 H          -7.2827   -1.8076   -1.0541 H       1  UNL1        0.0646
     44 H          -7.2044    2.3228   -0.1887 H       1  UNL1        0.0646
     45 H          -4.8047    2.1409    0.4703 H       1  UNL1        0.0622
@<TRIPOS>BOND
     1     1     2    1
     2     2     3    1
     3     3     4    1
     4     4     5    1
     5     5     6   ar
     6     6     7   ar
     7     7     8   ar
     8     8     9    1
     9     9    10   ar
    10    10    11   ar
    11    11    12    1
    12    12    13    2
    13    12    14    1
    14    11    15   ar
    15    15    16   ar
    16    16    17   ar
    17     8    18   ar
    18     2    19    1
    19    19    20    1
    20    20    21   ar
    21    21    22   ar
    22    22    23   ar
    23    23    24    1
    24    23    25   ar
    25    25    26   ar
    26    18     5   ar
    27    26    20   ar
    28    17     9   ar
    29     1    27    1
    30     1    28    1
    31     1    29    1
    32     3    30    1
    33     3    31    1
    34     4    32    1
    35     4    33    1
    36     6    34    1
    37    10    35    1
    38    14    36    1
    39    15    37    1
    40    16    38    1
    41    18    39    1
    42    19    40    1
    43    19    41    1
    44    21    42    1
    45    22    43    1
    46    25    44    1
    47    26    45    1
