@<TRIPOS>MOLECULE
*****
 61 66 0 0 0
SMALL
GASTEIGER

@<TRIPOS>ATOM
      1 C          -7.7040   -1.0149    1.9977 C.3     1  UNL1       -0.0375
      2 C          -7.5087   -0.5227    0.5947 C.ar    1  UNL1       -0.0189
      3 C          -8.6110   -0.3057   -0.2096 C.ar    1  UNL1       -0.0412
      4 C          -8.4236    0.1456   -1.4944 C.ar    1  UNL1        0.0362
      5 BR         -9.9511    0.4467   -2.6100 Br      1  UNL1       -0.0487
      6 C          -7.1660    0.3820   -1.9865 C.ar    1  UNL1        0.0424
      7 N          -6.1075    0.1646   -1.1876 N.ar    1  UNL1       -0.2490
      8 C          -6.2739   -0.2757    0.0685 C.ar    1  UNL1        0.1286
      9 C          -5.0582   -0.4863    0.8725 C.2     1  UNL1        0.2668
     10 O          -5.2290   -0.8941    2.0347 O.2     1  UNL1       -0.2682
     11 N          -3.7721   -0.2394    0.3536 N.am    1  UNL1       -0.2802
     12 C          -2.5586   -0.4165    1.0602 C.ar    1  UNL1        0.0343
     13 C          -2.4509   -0.8497    2.3513 C.ar    1  UNL1       -0.0370
     14 C          -1.1809   -0.9891    2.9483 C.ar    1  UNL1       -0.0172
     15 C          -0.0301   -0.6979    2.2623 C.ar    1  UNL1        0.1346
     16 C          -0.1157   -0.2571    0.9646 C.ar    1  UNL1        0.0285
     17 C          -1.3722   -0.1232    0.3769 C.ar    1  UNL1       -0.0312
     18 C           1.0184    0.1539    0.1099 C.3     1  UNL1        0.1217
     19 C           1.0265    1.6706   -0.0346 C.3     1  UNL1       -0.0096
     20 C           0.1314    2.2760   -1.0457 C.3     1  UNL1        0.0037
     21 S           0.3416    1.4395   -2.6317 S.3     1  UNL1       -0.0910
     22 C           0.8549   -0.2337   -2.2972 C.2     1  UNL1        0.1478
     23 N           0.9857   -1.1421   -3.4157 N.pl3   1  UNL1       -0.3380
     24 N           1.0842   -0.5662   -1.1104 N.2     1  UNL1       -0.2472
     25 C           2.3289   -0.1115    0.8076 C.ar    1  UNL1        0.0332
     26 C           3.5160    0.1623    0.1014 C.ar    1  UNL1       -0.0265
     27 C           4.7579    0.0051    0.6677 C.ar    1  UNL1        0.0705
     28 C           5.9982    0.2784   -0.0365 C.2     1  UNL1       -0.0215
     29 C           7.1526    0.1081    0.5779 C.2     1  UNL1       -0.0534
     30 C           8.3792    0.4050   -0.1959 C.3     1  UNL1        0.0665
     31 O           8.3526    0.0374   -1.5089 O.3     1  UNL1       -0.3754
     32 C           7.1307   -0.1509   -2.0896 C.3     1  UNL1        0.0521
     33 C           6.0657    0.7434   -1.4359 C.3     1  UNL1       -0.0024
     34 N           4.7693   -0.4335    1.9587 N.ar    1  UNL1       -0.2164
     35 C           3.6494   -0.7011    2.6492 C.ar    1  UNL1        0.2566
     36 F           3.6867   -1.1360    3.9320 F       1  UNL1       -0.1799
     37 C           2.3744   -0.5459    2.0826 C.ar    1  UNL1        0.1883
     38 O           1.2341   -0.8388    2.8197 O.3     1  UNL1       -0.4508
     39 H          -7.3610   -0.2984    2.7528 H       1  UNL1        0.0278
     40 H          -8.8065   -1.1729    2.1490 H       1  UNL1        0.0278
     41 H          -7.2636   -2.0198    2.1222 H       1  UNL1        0.0278
     42 H          -9.6062   -0.5034    0.2108 H       1  UNL1        0.0632
     43 H          -7.0111    0.7434   -3.0146 H       1  UNL1        0.0841
     44 H          -3.7511    0.1060   -0.6498 H       1  UNL1        0.1552
     45 H          -3.3237   -1.0836    2.9125 H       1  UNL1        0.0637
     46 H          -1.1515   -1.3356    3.9712 H       1  UNL1        0.0655
     47 H          -1.4604    0.1867   -0.6319 H       1  UNL1        0.0641
     48 H           0.8670    2.0713    0.9970 H       1  UNL1        0.0303
     49 H           2.0794    1.9738   -0.3217 H       1  UNL1        0.0303
     50 H           0.5498    3.3247   -1.2242 H       1  UNL1        0.0381
     51 H          -0.9370    2.3839   -0.7452 H       1  UNL1        0.0381
     52 H           0.2449   -1.8754   -3.4697 H       1  UNL1        0.1442
     53 H           1.7602   -1.0600   -4.1034 H       1  UNL1        0.1442
     54 H           3.4163    0.5099   -0.9264 H       1  UNL1        0.0644
     55 H           7.1736   -0.2301    1.5899 H       1  UNL1        0.0598
     56 H           8.5319    1.5236   -0.1614 H       1  UNL1        0.0604
     57 H           9.2885   -0.0202    0.2770 H       1  UNL1        0.0604
     58 H           6.7802   -1.1959   -1.8908 H       1  UNL1        0.0563
     59 H           7.1683    0.0447   -3.1819 H       1  UNL1        0.0563
     60 H           6.3640    1.8085   -1.5193 H       1  UNL1        0.0336
     61 H           5.1228    0.6321   -1.9749 H       1  UNL1        0.0336
@<TRIPOS>BOND
     1     1     2    1
     2     2     3   ar
     3     3     4   ar
     4     4     5    1
     5     4     6   ar
     6     6     7   ar
     7     7     8   ar
     8     8     9    1
     9     9    10    2
    10     9    11   am
    11    11    12    1
    12    12    13   ar
    13    13    14   ar
    14    14    15   ar
    15    15    16   ar
    16    16    17   ar
    17    16    18    1
    18    18    19    1
    19    19    20    1
    20    20    21    1
    21    21    22    1
    22    22    23    1
    23    22    24    2
    24    18    25    1
    25    25    26   ar
    26    26    27   ar
    27    27    28    1
    28    28    29    2
    29    29    30    1
    30    30    31    1
    31    31    32    1
    32    32    33    1
    33    27    34   ar
    34    34    35   ar
    35    35    36    1
    36    35    37   ar
    37    37    38    1
    38     8     2   ar
    39    17    12   ar
    40    24    18    1
    41    37    25   ar
    42    38    15    1
    43    33    28    1
    44     1    39    1
    45     1    40    1
    46     1    41    1
    47     3    42    1
    48     6    43    1
    49    11    44    1
    50    13    45    1
    51    14    46    1
    52    17    47    1
    53    19    48    1
    54    19    49    1
    55    20    50    1
    56    20    51    1
    57    23    52    1
    58    23    53    1
    59    26    54    1
    60    29    55    1
    61    30    56    1
    62    30    57    1
    63    32    58    1
    64    32    59    1
    65    33    60    1
    66    33    61    1
