
     RDKit          3D

 70 74  0  0  0  0  0  0  0  0999 V2000
   -5.3375    3.0349    1.4958 C   0  0  0  0  0  0  0  0  0  0  0  0
   -5.6566    1.7537    0.7243 C   0  0  0  0  0  0  0  0  0  0  0  0
   -4.4720    0.8297    0.8967 C   0  0  2  0  0  0  0  0  0  0  0  0
   -3.3035    1.5822    0.3200 C   0  0  0  0  0  0  0  0  0  0  0  0
   -2.8880    2.6625    0.8538 O   0  0  0  0  0  0  0  0  0  0  0  0
   -2.6277    1.1167   -0.8360 N   0  0  0  0  0  0  0  0  0  0  0  0
   -1.5287    1.8838   -1.3281 C   0  0  0  0  0  0  0  0  0  0  0  0
   -1.6633    2.8948   -2.2540 C   0  0  0  0  0  0  0  0  0  0  0  0
   -0.6069    3.6212   -2.7181 C   0  0  0  0  0  0  0  0  0  0  0  0
    0.6681    3.3100   -2.2174 C   0  0  0  0  0  0  0  0  0  0  0  0
    0.8712    2.3132   -1.2899 C   0  0  0  0  0  0  0  0  0  0  0  0
    2.0029    1.8379   -0.6896 C   0  0  0  0  0  0  0  0  0  0  0  0
    3.4146    2.1753   -0.8071 C   0  0  0  0  0  0  0  0  0  0  0  0
    3.8698    3.4060   -1.1658 C   0  0  0  0  0  0  0  0  0  0  0  0
    5.2646    3.6297   -1.1891 C   0  0  0  0  0  0  0  0  0  0  0  0
    6.0814    2.6474   -0.8635 N   0  0  0  0  0  0  0  0  0  0  0  0
    5.6571    1.4100   -0.5002 C   0  0  0  0  0  0  0  0  0  0  0  0
    6.6213    0.4244   -0.1674 N   0  0  0  0  0  0  0  0  0  0  0  0
    6.2886   -0.8937    0.2060 C   0  0  0  0  0  0  0  0  0  0  0  0
    5.0557   -1.4773    0.3115 C   0  0  0  0  0  0  0  0  0  0  0  0
    5.2279   -2.7607    0.6995 N   0  0  0  0  0  0  0  0  0  0  0  0
    4.1028   -3.6713    0.9075 C   0  0  0  0  0  0  0  0  0  0  0  0
    6.5022   -2.9854    0.8347 N   0  0  0  0  0  0  0  0  0  0  0  0
    7.1924   -1.8759    0.5446 C   0  0  0  0  0  0  0  0  0  0  0  0
    8.5889   -1.7345    0.5784 O   0  0  0  0  0  0  0  0  0  0  0  0
    9.3823   -2.8484    0.9499 C   0  0  0  0  0  0  0  0  0  0  0  0
    4.3403    1.2295   -0.4883 N   0  0  0  0  0  0  0  0  0  0  0  0
    1.5242    0.7900    0.1417 C   0  0  0  0  0  0  0  0  0  0  0  0
    0.2021    0.6859    0.0168 N   0  0  0  0  0  0  0  0  0  0  0  0
   -0.2613    1.6019   -0.8546 C   0  0  0  0  0  0  0  0  0  0  0  0
   -4.5856   -0.3930    0.2106 N   0  0  0  0  0  0  0  0  0  0  0  0
   -3.5727   -1.3556    0.4556 C   0  0  0  0  0  0  0  0  0  0  0  0
   -4.0973   -2.3138    1.5095 C   0  0  0  0  0  0  0  0  0  0  0  0
   -5.2601   -2.9586    1.0030 N   0  0  0  0  0  0  0  0  0  0  0  0
   -5.0092   -3.9474   -0.0006 C   0  0  0  0  0  0  0  0  0  0  0  0
   -6.3299   -2.0734    0.6149 C   0  0  0  0  0  0  0  0  0  0  0  0
   -5.8463   -0.8802   -0.1646 C   0  0  0  0  0  0  0  0  0  0  0  0
   -4.9060    3.8150    0.8646 H   0  0  0  0  0  0  0  0  0  0  0  0
   -4.6658    2.8359    2.3429 H   0  0  0  0  0  0  0  0  0  0  0  0
   -6.2618    3.4705    1.9367 H   0  0  0  0  0  0  0  0  0  0  0  0
   -6.5830    1.3730    1.2021 H   0  0  0  0  0  0  0  0  0  0  0  0
   -5.8461    2.0386   -0.3239 H   0  0  0  0  0  0  0  0  0  0  0  0
   -4.2953    0.6872    1.9763 H   0  0  0  0  0  0  0  0  0  0  0  0
   -2.9419    0.2375   -1.3056 H   0  0  0  0  0  0  0  0  0  0  0  0
   -2.6522    3.1289   -2.6353 H   0  0  0  0  0  0  0  0  0  0  0  0
   -0.6722    4.4148   -3.4384 H   0  0  0  0  0  0  0  0  0  0  0  0
    1.5227    3.8474   -2.5859 H   0  0  0  0  0  0  0  0  0  0  0  0
    3.2132    4.2247   -1.4005 H   0  0  0  0  0  0  0  0  0  0  0  0
    5.5634    4.6245   -1.4826 H   0  0  0  0  0  0  0  0  0  0  0  0
    7.6321    0.7055   -0.2054 H   0  0  0  0  0  0  0  0  0  0  0  0
    4.0930   -1.0145    0.1220 H   0  0  0  0  0  0  0  0  0  0  0  0
    3.9932   -4.3117    0.0327 H   0  0  0  0  0  0  0  0  0  0  0  0
    4.3514   -4.2602    1.8226 H   0  0  0  0  0  0  0  0  0  0  0  0
    3.1651   -3.1217    1.0675 H   0  0  0  0  0  0  0  0  0  0  0  0
   10.4460   -2.7010    0.7100 H   0  0  0  0  0  0  0  0  0  0  0  0
    9.2548   -3.0061    2.0232 H   0  0  0  0  0  0  0  0  0  0  0  0
    8.9516   -3.7339    0.4068 H   0  0  0  0  0  0  0  0  0  0  0  0
    2.1272    0.1781    0.7721 H   0  0  0  0  0  0  0  0  0  0  0  0
   -0.4410    0.0046    0.5041 H   0  0  0  0  0  0  0  0  0  0  0  0
   -2.6542   -0.8391    0.8011 H   0  0  0  0  0  0  0  0  0  0  0  0
   -3.3193   -1.9426   -0.4319 H   0  0  0  0  0  0  0  0  0  0  0  0
   -4.3492   -1.7847    2.4358 H   0  0  0  0  0  0  0  0  0  0  0  0
   -3.3111   -3.0898    1.6373 H   0  0  0  0  0  0  0  0  0  0  0  0
   -4.0624   -4.4765    0.1537 H   0  0  0  0  0  0  0  0  0  0  0  0
   -5.8119   -4.7350    0.0168 H   0  0  0  0  0  0  0  0  0  0  0  0
   -5.0669   -3.4994   -1.0282 H   0  0  0  0  0  0  0  0  0  0  0  0
   -7.0230   -2.6547   -0.0287 H   0  0  0  0  0  0  0  0  0  0  0  0
   -6.9024   -1.8047    1.5228 H   0  0  0  0  0  0  0  0  0  0  0  0
   -5.7680   -1.2149   -1.2442 H   0  0  0  0  0  0  0  0  0  0  0  0
   -6.5916   -0.0674   -0.1940 H   0  0  0  0  0  0  0  0  0  0  0  0
  1  2  1  0
  2  3  1  0
  3  4  1  0
  4  5  2  0
  4  6  1  0
  6  7  1  0
  7  8  2  0
  8  9  1  0
  9 10  2  0
 10 11  1  0
 11 12  1  0
 12 13  1  0
 13 14  2  0
 14 15  1  0
 15 16  2  0
 16 17  1  0
 17 18  1  0
 18 19  1  0
 19 20  2  0
 20 21  1  0
 21 22  1  0
 21 23  1  0
 23 24  2  0
 24 25  1  0
 25 26  1  0
 17 27  2  0
 12 28  2  0
 28 29  1  0
 29 30  1  0
  3 31  1  0
 31 32  1  0
 32 33  1  0
 33 34  1  0
 34 35  1  0
 34 36  1  0
 36 37  1  0
 30  7  1  0
 37 31  1  0
 30 11  2  0
 27 13  1  0
 24 19  1  0
  1 38  1  0
  1 39  1  0
  1 40  1  0
  2 41  1  0
  2 42  1  0
  3 43  1  1
  6 44  1  0
  8 45  1  0
  9 46  1  0
 10 47  1  0
 14 48  1  0
 15 49  1  0
 18 50  1  0
 20 51  1  0
 22 52  1  0
 22 53  1  0
 22 54  1  0
 26 55  1  0
 26 56  1  0
 26 57  1  0
 28 58  1  0
 29 59  1  0
 32 60  1  0
 32 61  1  0
 33 62  1  0
 33 63  1  0
 35 64  1  0
 35 65  1  0
 35 66  1  0
 36 67  1  0
 36 68  1  0
 37 69  1  0
 37 70  1  0
M  END
$$$$
