@<TRIPOS>MOLECULE
*****
 70 74 0 0 0
SMALL
GASTEIGER

@<TRIPOS>ATOM
      1 C          -5.3375    3.0349    1.4958 C.3     1  UNL1       -0.0634
      2 C          -5.6566    1.7537    0.7243 C.3     1  UNL1       -0.0317
      3 C          -4.4720    0.8297    0.8967 C.3     1  UNL1        0.0874
      4 C          -3.3035    1.5822    0.3200 C.2     1  UNL1        0.2345
      5 O          -2.8880    2.6625    0.8538 O.2     1  UNL1       -0.2737
      6 N          -2.6277    1.1167   -0.8360 N.am    1  UNL1       -0.2825
      7 C          -1.5287    1.8838   -1.3281 C.ar    1  UNL1        0.0576
      8 C          -1.6633    2.8948   -2.2540 C.ar    1  UNL1       -0.0384
      9 C          -0.6069    3.6212   -2.7181 C.ar    1  UNL1       -0.0593
     10 C           0.6681    3.3100   -2.2174 C.ar    1  UNL1       -0.0518
     11 C           0.8712    2.3132   -1.2899 C.ar    1  UNL1        0.0107
     12 C           2.0029    1.8379   -0.6896 C.ar    1  UNL1        0.0256
     13 C           3.4146    2.1753   -0.8071 C.ar    1  UNL1        0.0780
     14 C           3.8698    3.4060   -1.1658 C.ar    1  UNL1       -0.0173
     15 C           5.2646    3.6297   -1.1891 C.ar    1  UNL1        0.0332
     16 N           6.0814    2.6474   -0.8635 N.ar    1  UNL1       -0.2226
     17 C           5.6571    1.4100   -0.5002 C.ar    1  UNL1        0.2201
     18 N           6.6213    0.4244   -0.1674 N.pl3   1  UNL1       -0.2782
     19 C           6.2886   -0.8937    0.2060 C.ar    1  UNL1        0.1152
     20 C           5.0557   -1.4773    0.3115 C.ar    1  UNL1        0.0503
     21 N           5.2279   -2.7607    0.6995 N.ar    1  UNL1       -0.2692
     22 C           4.1028   -3.6713    0.9075 C.3     1  UNL1        0.0304
     23 N           6.5022   -2.9854    0.8347 N.ar    1  UNL1       -0.1317
     24 C           7.1924   -1.8759    0.5446 C.ar    1  UNL1        0.2552
     25 O           8.5889   -1.7345    0.5784 O.3     1  UNL1       -0.4774
     26 C           9.3823   -2.8484    0.9499 C.3     1  UNL1        0.0805
     27 N           4.3403    1.2295   -0.4883 N.ar    1  UNL1       -0.2142
     28 C           1.5242    0.7900    0.1417 C.ar    1  UNL1        0.0120
     29 N           0.2021    0.6859    0.0168 N.ar    1  UNL1       -0.3586
     30 C          -0.2613    1.6019   -0.8546 C.ar    1  UNL1        0.0686
     31 N          -4.5856   -0.3930    0.2106 N.3     1  UNL1       -0.2891
     32 C          -3.5727   -1.3556    0.4556 C.3     1  UNL1        0.0124
     33 C          -4.0973   -2.3138    1.5095 C.3     1  UNL1        0.0114
     34 N          -5.2601   -2.9586    1.0030 N.3     1  UNL1       -0.3029
     35 C          -5.0092   -3.9474   -0.0006 C.3     1  UNL1       -0.0127
     36 C          -6.3299   -2.0734    0.6149 C.3     1  UNL1        0.0114
     37 C          -5.8463   -0.8802   -0.1646 C.3     1  UNL1        0.0124
     38 H          -4.9060    3.8150    0.8646 H       1  UNL1        0.0230
     39 H          -4.6658    2.8359    2.3429 H       1  UNL1        0.0230
     40 H          -6.2618    3.4705    1.9367 H       1  UNL1        0.0230
     41 H          -6.5830    1.3730    1.2021 H       1  UNL1        0.0282
     42 H          -5.8461    2.0386   -0.3239 H       1  UNL1        0.0282
     43 H          -4.2953    0.6872    1.9763 H       1  UNL1        0.0558
     44 H          -2.9419    0.2375   -1.3056 H       1  UNL1        0.1549
     45 H          -2.6522    3.1289   -2.6353 H       1  UNL1        0.0637
     46 H          -0.6722    4.4148   -3.4384 H       1  UNL1        0.0618
     47 H           1.5227    3.8474   -2.5859 H       1  UNL1        0.0624
     48 H           3.2132    4.2247   -1.4005 H       1  UNL1        0.0654
     49 H           5.5634    4.6245   -1.4826 H       1  UNL1        0.0831
     50 H           7.6321    0.7055   -0.2054 H       1  UNL1        0.1552
     51 H           4.0930   -1.0145    0.1220 H       1  UNL1        0.0846
     52 H           3.9932   -4.3117    0.0327 H       1  UNL1        0.0473
     53 H           4.3514   -4.2602    1.8226 H       1  UNL1        0.0473
     54 H           3.1651   -3.1217    1.0675 H       1  UNL1        0.0473
     55 H          10.4460   -2.7010    0.7100 H       1  UNL1        0.0660
     56 H           9.2548   -3.0061    2.0232 H       1  UNL1        0.0660
     57 H           8.9516   -3.7339    0.4068 H       1  UNL1        0.0660
     58 H           2.1272    0.1781    0.7721 H       1  UNL1        0.0814
     59 H          -0.4410    0.0046    0.5041 H       1  UNL1        0.1654
     60 H          -2.6542   -0.8391    0.8011 H       1  UNL1        0.0439
     61 H          -3.3193   -1.9426   -0.4319 H       1  UNL1        0.0439
     62 H          -4.3492   -1.7847    2.4358 H       1  UNL1        0.0439
     63 H          -3.3111   -3.0898    1.6373 H       1  UNL1        0.0439
     64 H          -4.0624   -4.4765    0.1537 H       1  UNL1        0.0391
     65 H          -5.8119   -4.7350    0.0168 H       1  UNL1        0.0391
     66 H          -5.0669   -3.4994   -1.0282 H       1  UNL1        0.0391
     67 H          -7.0230   -2.6547   -0.0287 H       1  UNL1        0.0439
     68 H          -6.9024   -1.8047    1.5228 H       1  UNL1        0.0439
     69 H          -5.7680   -1.2149   -1.2442 H       1  UNL1        0.0439
     70 H          -6.5916   -0.0674   -0.1940 H       1  UNL1        0.0439
@<TRIPOS>BOND
     1     1     2    1
     2     2     3    1
     3     3     4    1
     4     4     5    2
     5     4     6   am
     6     6     7    1
     7     7     8   ar
     8     8     9   ar
     9     9    10   ar
    10    10    11   ar
    11    11    12   ar
    12    12    13    1
    13    13    14   ar
    14    14    15   ar
    15    15    16   ar
    16    16    17   ar
    17    17    18    1
    18    18    19    1
    19    19    20   ar
    20    20    21   ar
    21    21    22    1
    22    21    23   ar
    23    23    24   ar
    24    24    25    1
    25    25    26    1
    26    17    27   ar
    27    12    28   ar
    28    28    29   ar
    29    29    30   ar
    30     3    31    1
    31    31    32    1
    32    32    33    1
    33    33    34    1
    34    34    35    1
    35    34    36    1
    36    36    37    1
    37    30     7   ar
    38    37    31    1
    39    30    11   ar
    40    27    13   ar
    41    24    19   ar
    42     1    38    1
    43     1    39    1
    44     1    40    1
    45     2    41    1
    46     2    42    1
    47     3    43    1
    48     6    44    1
    49     8    45    1
    50     9    46    1
    51    10    47    1
    52    14    48    1
    53    15    49    1
    54    18    50    1
    55    20    51    1
    56    22    52    1
    57    22    53    1
    58    22    54    1
    59    26    55    1
    60    26    56    1
    61    26    57    1
    62    28    58    1
    63    29    59    1
    64    32    60    1
    65    32    61    1
    66    33    62    1
    67    33    63    1
    68    35    64    1
    69    35    65    1
    70    35    66    1
    71    36    67    1
    72    36    68    1
    73    37    69    1
    74    37    70    1
