@<TRIPOS>MOLECULE
*****
 26 25 0 0 0
SMALL
GASTEIGER

@<TRIPOS>ATOM
      1 N          -2.6180   -1.3182   -0.8402 N.3     1  UNL1        0.0000
      2 CA         -2.5238   -0.3027    0.1658 C.3     1  UNL1        0.0000
      3 C          -1.1263    0.2930    0.1655 C.3     1  UNL1        0.0000
      4 C          -0.1467   -0.8491    0.4631 C.3     1  UNL1        0.0000
      5 C           1.2123   -0.2544    0.4599 C.2     1  UNL1        0.0000
      6 C           2.2372   -0.5556   -0.3123 C.2     1  UNL1        0.0000
      7 B           3.5790    0.2553   -0.0859 B       1  UNL1        0.0000
      8 O           3.2072    1.6122    0.3282 O.3     1  UNL1        0.0000
      9 O           4.3135   -0.4337    0.9948 O.3     1  UNL1        0.0000
     10 O           4.3704    0.3199   -1.3173 O.3     1  UNL1        0.0000
     11 C          -3.5524    0.7273   -0.0141 C.2     1  UNL1        0.0000
     12 O          -3.7032    1.8190    0.7981 O.3     1  UNL1        0.0000
     13 OXT        -4.3525    0.6064   -0.9762 O.2     1  UNL1        0.0000
     14 H1         -3.2120   -1.0073   -1.6562 H       1  UNL1        0.0000
     15 H2         -3.0354   -2.1952   -0.4324 H       1  UNL1        0.0000
     16 HA         -2.6627   -0.7589    1.1667 H       1  UNL1        0.0000
     17 H          -1.0115    1.0187    0.9988 H       1  UNL1        0.0000
     18 H          -0.8959    0.7926   -0.7813 H       1  UNL1        0.0000
     19 H          -0.2584   -1.6293   -0.3226 H       1  UNL1        0.0000
     20 H          -0.4297   -1.2282    1.4688 H       1  UNL1        0.0000
     21 H           1.2740    0.5171    1.2239 H       1  UNL1        0.0000
     22 H           2.0304   -1.3355   -1.0195 H       1  UNL1        0.0000
     23 H           3.8349    2.2608   -0.0789 H       1  UNL1        0.0000
     24 H           3.6616   -0.8205    1.6134 H       1  UNL1        0.0000
     25 H           3.8893   -0.2066   -2.0180 H       1  UNL1        0.0000
     26 H          -4.0813    2.6727    0.4147 H       1  UNL1        0.0000
@<TRIPOS>UNITY_ATOM_ATTR
7 1
charge -1
@<TRIPOS>BOND
     1     1     2    1
     2     2     3    1
     3     3     4    1
     4     4     5    1
     5     5     6    2
     6     6     7    1
     7     7     8    1
     8     7     9    1
     9     7    10    1
    10     2    11    1
    11    11    12    1
    12    11    13    2
    13     1    14    1
    14     1    15    1
    15     2    16    1
    16     3    17    1
    17     3    18    1
    18     4    19    1
    19     4    20    1
    20     5    21    1
    21     6    22    1
    22     8    23    1
    23     9    24    1
    24    10    25    1
    25    12    26    1
