@<TRIPOS>MOLECULE
*****
 47 49 0 0 0
SMALL
GASTEIGER

@<TRIPOS>ATOM
      1 N          -2.5385   -2.5446    0.4159 N.3     1  UNL1       -0.3197
      2 C          -2.7912   -1.0937    0.5288 C.3     1  UNL1        0.0855
      3 C          -4.0638   -0.8849   -0.2133 C.2     1  UNL1        0.2333
      4 O          -4.4355   -1.7670   -1.0788 O.2     1  UNL1       -0.2739
      5 N          -4.8756    0.2531    0.0082 N.am    1  UNL1       -0.2902
      6 C          -6.1054    0.5413   -0.6892 C.3     1  UNL1        0.0246
      7 C          -7.1984    0.6853    0.3403 C.3     1  UNL1        0.0110
      8 S          -6.2684    1.4618    1.7214 S.3     1  UNL1       -0.1401
      9 C          -4.5916    1.2760    0.9886 C.3     1  UNL1        0.0610
     10 C          -1.6665   -0.4546   -0.2341 C.3     1  UNL1       -0.0139
     11 C          -1.6806    1.0482   -0.2599 C.3     1  UNL1       -0.0449
     12 C          -0.2839    1.3917   -0.7809 C.3     1  UNL1       -0.0153
     13 C           0.5725    0.1846   -0.5168 C.3     1  UNL1        0.1050
     14 O           1.7751    0.5035    0.1635 O.3     1  UNL1       -0.4469
     15 C           3.0281    0.1304   -0.3545 C.2     1  UNL1        0.4048
     16 O           2.9860   -0.4881   -1.4344 O.2     1  UNL1       -0.2261
     17 N           4.2309    0.4255    0.2844 N.am    1  UNL1       -0.2511
     18 C           5.5247    0.0834   -0.1753 C.ar    1  UNL1        0.0379
     19 C           6.6347    0.4567    0.5896 C.ar    1  UNL1       -0.0389
     20 C           7.9293    0.1701    0.2264 C.ar    1  UNL1       -0.0402
     21 C           8.2043   -0.5148   -0.9357 C.ar    1  UNL1        0.0594
     22 CL          9.8386   -0.8990   -1.4329 Cl      1  UNL1       -0.0820
     23 C           7.1271   -0.8910   -1.7022 C.ar    1  UNL1        0.0610
     24 CL          7.4401   -1.7631   -3.1858 Cl      1  UNL1       -0.0820
     25 C           5.8056   -0.5938   -1.3234 C.ar    1  UNL1       -0.0206
     26 C          -0.2978   -0.7439    0.3242 C.3     1  UNL1       -0.0109
     27 H          -1.7261   -2.8253    1.0063 H       1  UNL1        0.1189
     28 H          -2.3097   -2.6801   -0.6109 H       1  UNL1        0.1189
     29 H          -2.8850   -0.7577    1.5620 H       1  UNL1        0.0557
     30 H          -6.3648   -0.3414   -1.3030 H       1  UNL1        0.0473
     31 H          -6.0387    1.4071   -1.3645 H       1  UNL1        0.0473
     32 H          -7.6626   -0.2531    0.6376 H       1  UNL1        0.0392
     33 H          -7.9003    1.4604   -0.0218 H       1  UNL1        0.0392
     34 H          -3.9448    0.9541    1.8004 H       1  UNL1        0.0579
     35 H          -4.2851    2.2329    0.5190 H       1  UNL1        0.0579
     36 H          -1.7120   -0.8533   -1.2841 H       1  UNL1        0.0322
     37 H          -2.4480    1.4867   -0.9065 H       1  UNL1        0.0270
     38 H          -1.7763    1.4064    0.8037 H       1  UNL1        0.0270
     39 H           0.1215    2.2910   -0.2599 H       1  UNL1        0.0301
     40 H          -0.3285    1.5559   -1.8777 H       1  UNL1        0.0301
     41 H           0.8236   -0.3756   -1.4648 H       1  UNL1        0.0734
     42 H           4.1259    0.9638    1.2096 H       1  UNL1        0.1582
     43 H           6.4368    0.9974    1.5090 H       1  UNL1        0.0637
     44 H           8.7820    0.4598    0.8192 H       1  UNL1        0.0633
     45 H           5.0225   -0.9262   -1.9831 H       1  UNL1        0.0651
     46 H          -0.2358   -0.3825    1.3692 H       1  UNL1        0.0304
     47 H           0.0055   -1.7936    0.2414 H       1  UNL1        0.0304
@<TRIPOS>BOND
     1     1     2    1
     2     2     3    1
     3     3     4    2
     4     3     5   am
     5     5     6    1
     6     6     7    1
     7     7     8    1
     8     8     9    1
     9     2    10    1
    10    10    11    1
    11    11    12    1
    12    12    13    1
    13    13    14    1
    14    14    15    1
    15    15    16    2
    16    15    17   am
    17    17    18    1
    18    18    19   ar
    19    19    20   ar
    20    20    21   ar
    21    21    22    1
    22    21    23   ar
    23    23    24    1
    24    23    25   ar
    25    13    26    1
    26     9     5    1
    27    26    10    1
    28    25    18   ar
    29     1    27    1
    30     1    28    1
    31     2    29    1
    32     6    30    1
    33     6    31    1
    34     7    32    1
    35     7    33    1
    36     9    34    1
    37     9    35    1
    38    10    36    1
    39    11    37    1
    40    11    38    1
    41    12    39    1
    42    12    40    1
    43    13    41    1
    44    17    42    1
    45    19    43    1
    46    20    44    1
    47    25    45    1
    48    26    46    1
    49    26    47    1
