
     RDKit          3D

 47 49  0  0  0  0  0  0  0  0999 V2000
   -2.5385   -2.5446    0.4159 N   0  0  0  0  0  0  0  0  0  0  0  0
   -2.7912   -1.0937    0.5288 C   0  0  2  0  0  0  0  0  0  0  0  0
   -4.0638   -0.8849   -0.2133 C   0  0  0  0  0  0  0  0  0  0  0  0
   -4.4355   -1.7670   -1.0788 O   0  0  0  0  0  0  0  0  0  0  0  0
   -4.8756    0.2531    0.0082 N   0  0  0  0  0  0  0  0  0  0  0  0
   -6.1054    0.5413   -0.6892 C   0  0  0  0  0  0  0  0  0  0  0  0
   -7.1984    0.6853    0.3403 C   0  0  0  0  0  0  0  0  0  0  0  0
   -6.2684    1.4618    1.7214 S   0  0  0  0  0  0  0  0  0  0  0  0
   -4.5916    1.2760    0.9886 C   0  0  0  0  0  0  0  0  0  0  0  0
   -1.6665   -0.4546   -0.2341 C   0  0  1  0  0  0  0  0  0  0  0  0
   -1.6806    1.0482   -0.2599 C   0  0  0  0  0  0  0  0  0  0  0  0
   -0.2839    1.3917   -0.7809 C   0  0  0  0  0  0  0  0  0  0  0  0
    0.5725    0.1846   -0.5168 C   0  0  1  0  0  0  0  0  0  0  0  0
    1.7751    0.5035    0.1635 O   0  0  0  0  0  0  0  0  0  0  0  0
    3.0281    0.1304   -0.3545 C   0  0  0  0  0  0  0  0  0  0  0  0
    2.9860   -0.4881   -1.4344 O   0  0  0  0  0  0  0  0  0  0  0  0
    4.2309    0.4255    0.2844 N   0  0  0  0  0  0  0  0  0  0  0  0
    5.5247    0.0834   -0.1753 C   0  0  0  0  0  0  0  0  0  0  0  0
    6.6347    0.4567    0.5896 C   0  0  0  0  0  0  0  0  0  0  0  0
    7.9293    0.1701    0.2264 C   0  0  0  0  0  0  0  0  0  0  0  0
    8.2043   -0.5148   -0.9357 C   0  0  0  0  0  0  0  0  0  0  0  0
    9.8386   -0.8990   -1.4329 Cl  0  0  0  0  0  0  0  0  0  0  0  0
    7.1271   -0.8910   -1.7022 C   0  0  0  0  0  0  0  0  0  0  0  0
    7.4401   -1.7631   -3.1858 Cl  0  0  0  0  0  0  0  0  0  0  0  0
    5.8056   -0.5938   -1.3234 C   0  0  0  0  0  0  0  0  0  0  0  0
   -0.2978   -0.7439    0.3242 C   0  0  0  0  0  0  0  0  0  0  0  0
   -1.7261   -2.8253    1.0063 H   0  0  0  0  0  0  0  0  0  0  0  0
   -2.3097   -2.6801   -0.6109 H   0  0  0  0  0  0  0  0  0  0  0  0
   -2.8850   -0.7577    1.5620 H   0  0  0  0  0  0  0  0  0  0  0  0
   -6.3648   -0.3414   -1.3030 H   0  0  0  0  0  0  0  0  0  0  0  0
   -6.0387    1.4071   -1.3645 H   0  0  0  0  0  0  0  0  0  0  0  0
   -7.6626   -0.2531    0.6376 H   0  0  0  0  0  0  0  0  0  0  0  0
   -7.9003    1.4604   -0.0218 H   0  0  0  0  0  0  0  0  0  0  0  0
   -3.9448    0.9541    1.8004 H   0  0  0  0  0  0  0  0  0  0  0  0
   -4.2851    2.2329    0.5190 H   0  0  0  0  0  0  0  0  0  0  0  0
   -1.7120   -0.8533   -1.2841 H   0  0  0  0  0  0  0  0  0  0  0  0
   -2.4480    1.4867   -0.9065 H   0  0  0  0  0  0  0  0  0  0  0  0
   -1.7763    1.4064    0.8037 H   0  0  0  0  0  0  0  0  0  0  0  0
    0.1215    2.2910   -0.2599 H   0  0  0  0  0  0  0  0  0  0  0  0
   -0.3285    1.5559   -1.8777 H   0  0  0  0  0  0  0  0  0  0  0  0
    0.8236   -0.3756   -1.4648 H   0  0  0  0  0  0  0  0  0  0  0  0
    4.1259    0.9638    1.2096 H   0  0  0  0  0  0  0  0  0  0  0  0
    6.4368    0.9974    1.5090 H   0  0  0  0  0  0  0  0  0  0  0  0
    8.7820    0.4598    0.8192 H   0  0  0  0  0  0  0  0  0  0  0  0
    5.0225   -0.9262   -1.9831 H   0  0  0  0  0  0  0  0  0  0  0  0
   -0.2358   -0.3825    1.3692 H   0  0  0  0  0  0  0  0  0  0  0  0
    0.0055   -1.7936    0.2414 H   0  0  0  0  0  0  0  0  0  0  0  0
  1  2  1  0
  2  3  1  0
  3  4  2  0
  3  5  1  0
  5  6  1  0
  6  7  1  0
  7  8  1  0
  8  9  1  0
  2 10  1  0
 10 11  1  0
 11 12  1  0
 12 13  1  0
 13 14  1  0
 14 15  1  0
 15 16  2  0
 15 17  1  0
 17 18  1  0
 18 19  2  0
 19 20  1  0
 20 21  2  0
 21 22  1  0
 21 23  1  0
 23 24  1  0
 23 25  2  0
 13 26  1  0
  9  5  1  0
 26 10  1  0
 25 18  1  0
  1 27  1  0
  1 28  1  0
  2 29  1  1
  6 30  1  0
  6 31  1  0
  7 32  1  0
  7 33  1  0
  9 34  1  0
  9 35  1  0
 10 36  1  6
 11 37  1  0
 11 38  1  0
 12 39  1  0
 12 40  1  0
 13 41  1  6
 17 42  1  0
 19 43  1  0
 20 44  1  0
 25 45  1  0
 26 46  1  0
 26 47  1  0
M  END
$$$$
