@<TRIPOS>MOLECULE
*****
 50 53 0 0 0
SMALL
GASTEIGER

@<TRIPOS>ATOM
      1 C          -2.2816   -0.6508   -0.2705 C.3     1  UNL1       -0.0257
      2 C          -3.2222   -0.8398   -1.4066 C.3     1  UNL1       -0.0309
      3 C          -4.5439   -0.6846   -0.6917 C.2     1  UNL1       -0.0871
      4 C          -4.3333    0.1404    0.3556 C.2     1  UNL1       -0.0817
      5 C          -2.9169    0.5666    0.3991 C.3     1  UNL1       -0.0107
      6 C          -2.7748    1.8245   -0.3749 C.3     1  UNL1       -0.0558
      7 C          -2.3068    0.6844    1.7365 C.3     1  UNL1       -0.0436
      8 C          -0.8450    0.9634    1.5816 C.3     1  UNL1       -0.0487
      9 C          -0.1490   -0.0082    0.6741 C.3     1  UNL1       -0.0322
     10 C          -0.8761   -0.2895   -0.6162 C.3     1  UNL1       -0.0338
     11 C          -0.1394   -1.3657   -1.3499 C.3     1  UNL1       -0.0494
     12 C           1.1168   -1.8264   -0.6999 C.3     1  UNL1       -0.0494
     13 C           1.9652   -0.8037   -0.0501 C.3     1  UNL1       -0.0330
     14 C           3.1938   -0.3927   -0.8049 C.3     1  UNL1       -0.0235
     15 C           4.0526    0.4695    0.0439 C.3     1  UNL1        0.0555
     16 O           5.2096   -0.2801    0.3658 O.3     1  UNL1       -0.3918
     17 C           3.4712    0.9606    1.3054 C.3     1  UNL1       -0.0263
     18 C           1.9913    1.1511    1.3569 C.3     1  UNL1       -0.0448
     19 C           1.2124    0.4753    0.2870 C.3     1  UNL1       -0.0260
     20 C           1.1705    1.4269   -0.8842 C.3     1  UNL1       -0.0590
     21 H          -2.3761   -1.4990    0.4141 H       1  UNL1        0.0315
     22 H          -3.1483   -1.8551   -1.8583 H       1  UNL1        0.0310
     23 H          -3.1104   -0.1163   -2.2331 H       1  UNL1        0.0310
     24 H          -5.4748   -1.1532   -0.9779 H       1  UNL1        0.0569
     25 H          -5.1010    0.4427    1.0607 H       1  UNL1        0.0575
     26 H          -2.8370    1.7509   -1.4585 H       1  UNL1        0.0238
     27 H          -1.8912    2.4444   -0.1290 H       1  UNL1        0.0238
     28 H          -3.6488    2.4723   -0.0702 H       1  UNL1        0.0238
     29 H          -2.4049   -0.2959    2.2611 H       1  UNL1        0.0274
     30 H          -2.7439    1.4839    2.3615 H       1  UNL1        0.0274
     31 H          -0.4039    0.7740    2.6030 H       1  UNL1        0.0268
     32 H          -0.5913    2.0260    1.3864 H       1  UNL1        0.0268
     33 H          -0.0947   -0.9772    1.2146 H       1  UNL1        0.0309
     34 H          -0.9136    0.6068   -1.2687 H       1  UNL1        0.0307
     35 H           0.0272   -1.1502   -2.4350 H       1  UNL1        0.0268
     36 H          -0.8460   -2.2480   -1.3859 H       1  UNL1        0.0268
     37 H           0.8804   -2.6678    0.0024 H       1  UNL1        0.0268
     38 H           1.7489   -2.3159   -1.4967 H       1  UNL1        0.0268
     39 H           2.3310   -1.2056    0.9241 H       1  UNL1        0.0307
     40 H           3.6984   -1.3495   -1.1121 H       1  UNL1        0.0293
     41 H           2.8946    0.0865   -1.7597 H       1  UNL1        0.0293
     42 H           4.4612    1.3080   -0.5864 H       1  UNL1        0.0593
     43 H           5.8616   -0.2514   -0.3656 H       1  UNL1        0.2098
     44 H           3.8247    0.3453    2.1784 H       1  UNL1        0.0290
     45 H           3.9340    1.9704    1.5167 H       1  UNL1        0.0290
     46 H           1.7018    2.2419    1.3518 H       1  UNL1        0.0271
     47 H           1.6200    0.7885    2.3432 H       1  UNL1        0.0271
     48 H           1.0066    0.9634   -1.8578 H       1  UNL1        0.0235
     49 H           0.4491    2.2299   -0.6153 H       1  UNL1        0.0235
     50 H           2.1516    1.9542   -0.9646 H       1  UNL1        0.0235
@<TRIPOS>BOND
     1     1     2    1
     2     2     3    1
     3     3     4    2
     4     4     5    1
     5     5     6    1
     6     5     7    1
     7     7     8    1
     8     8     9    1
     9     9    10    1
    10    10    11    1
    11    11    12    1
    12    12    13    1
    13    13    14    1
    14    14    15    1
    15    15    16    1
    16    15    17    1
    17    17    18    1
    18    18    19    1
    19    19    20    1
    20     5     1    1
    21    19     9    1
    22    10     1    1
    23    19    13    1
    24     1    21    1
    25     2    22    1
    26     2    23    1
    27     3    24    1
    28     4    25    1
    29     6    26    1
    30     6    27    1
    31     6    28    1
    32     7    29    1
    33     7    30    1
    34     8    31    1
    35     8    32    1
    36     9    33    1
    37    10    34    1
    38    11    35    1
    39    11    36    1
    40    12    37    1
    41    12    38    1
    42    13    39    1
    43    14    40    1
    44    14    41    1
    45    15    42    1
    46    16    43    1
    47    17    44    1
    48    17    45    1
    49    18    46    1
    50    18    47    1
    51    20    48    1
    52    20    49    1
    53    20    50    1
