
     RDKit          3D

 50 53  0  0  0  0  0  0  0  0999 V2000
   -2.2816   -0.6508   -0.2705 C   0  0  2  0  0  0  0  0  0  0  0  0
   -3.2222   -0.8398   -1.4066 C   0  0  0  0  0  0  0  0  0  0  0  0
   -4.5439   -0.6846   -0.6917 C   0  0  0  0  0  0  0  0  0  0  0  0
   -4.3333    0.1404    0.3556 C   0  0  0  0  0  0  0  0  0  0  0  0
   -2.9169    0.5666    0.3991 C   0  0  2  0  0  0  0  0  0  0  0  0
   -2.7748    1.8245   -0.3749 C   0  0  0  0  0  0  0  0  0  0  0  0
   -2.3068    0.6844    1.7365 C   0  0  0  0  0  0  0  0  0  0  0  0
   -0.8450    0.9634    1.5816 C   0  0  0  0  0  0  0  0  0  0  0  0
   -0.1490   -0.0082    0.6741 C   0  0  1  0  0  0  0  0  0  0  0  0
   -0.8761   -0.2895   -0.6162 C   0  0  1  0  0  0  0  0  0  0  0  0
   -0.1394   -1.3657   -1.3499 C   0  0  0  0  0  0  0  0  0  0  0  0
    1.1168   -1.8264   -0.6999 C   0  0  0  0  0  0  0  0  0  0  0  0
    1.9652   -0.8037   -0.0501 C   0  0  1  0  0  0  0  0  0  0  0  0
    3.1938   -0.3927   -0.8049 C   0  0  0  0  0  0  0  0  0  0  0  0
    4.0526    0.4695    0.0439 C   0  0  2  0  0  0  0  0  0  0  0  0
    5.2096   -0.2801    0.3658 O   0  0  0  0  0  0  0  0  0  0  0  0
    3.4712    0.9606    1.3054 C   0  0  0  0  0  0  0  0  0  0  0  0
    1.9913    1.1511    1.3569 C   0  0  0  0  0  0  0  0  0  0  0  0
    1.2124    0.4753    0.2870 C   0  0  2  0  0  0  0  0  0  0  0  0
    1.1705    1.4269   -0.8842 C   0  0  0  0  0  0  0  0  0  0  0  0
   -2.3761   -1.4990    0.4141 H   0  0  0  0  0  0  0  0  0  0  0  0
   -3.1483   -1.8551   -1.8583 H   0  0  0  0  0  0  0  0  0  0  0  0
   -3.1104   -0.1163   -2.2331 H   0  0  0  0  0  0  0  0  0  0  0  0
   -5.4748   -1.1532   -0.9779 H   0  0  0  0  0  0  0  0  0  0  0  0
   -5.1010    0.4427    1.0607 H   0  0  0  0  0  0  0  0  0  0  0  0
   -2.8370    1.7509   -1.4585 H   0  0  0  0  0  0  0  0  0  0  0  0
   -1.8912    2.4444   -0.1290 H   0  0  0  0  0  0  0  0  0  0  0  0
   -3.6488    2.4723   -0.0702 H   0  0  0  0  0  0  0  0  0  0  0  0
   -2.4049   -0.2959    2.2611 H   0  0  0  0  0  0  0  0  0  0  0  0
   -2.7439    1.4839    2.3615 H   0  0  0  0  0  0  0  0  0  0  0  0
   -0.4039    0.7740    2.6030 H   0  0  0  0  0  0  0  0  0  0  0  0
   -0.5913    2.0260    1.3864 H   0  0  0  0  0  0  0  0  0  0  0  0
   -0.0947   -0.9772    1.2146 H   0  0  0  0  0  0  0  0  0  0  0  0
   -0.9136    0.6068   -1.2687 H   0  0  0  0  0  0  0  0  0  0  0  0
    0.0272   -1.1502   -2.4350 H   0  0  0  0  0  0  0  0  0  0  0  0
   -0.8460   -2.2480   -1.3859 H   0  0  0  0  0  0  0  0  0  0  0  0
    0.8804   -2.6678    0.0024 H   0  0  0  0  0  0  0  0  0  0  0  0
    1.7489   -2.3159   -1.4967 H   0  0  0  0  0  0  0  0  0  0  0  0
    2.3310   -1.2056    0.9241 H   0  0  0  0  0  0  0  0  0  0  0  0
    3.6984   -1.3495   -1.1121 H   0  0  0  0  0  0  0  0  0  0  0  0
    2.8946    0.0865   -1.7597 H   0  0  0  0  0  0  0  0  0  0  0  0
    4.4612    1.3080   -0.5864 H   0  0  0  0  0  0  0  0  0  0  0  0
    5.8616   -0.2514   -0.3656 H   0  0  0  0  0  0  0  0  0  0  0  0
    3.8247    0.3453    2.1784 H   0  0  0  0  0  0  0  0  0  0  0  0
    3.9340    1.9704    1.5167 H   0  0  0  0  0  0  0  0  0  0  0  0
    1.7018    2.2419    1.3518 H   0  0  0  0  0  0  0  0  0  0  0  0
    1.6200    0.7885    2.3432 H   0  0  0  0  0  0  0  0  0  0  0  0
    1.0066    0.9634   -1.8578 H   0  0  0  0  0  0  0  0  0  0  0  0
    0.4491    2.2299   -0.6153 H   0  0  0  0  0  0  0  0  0  0  0  0
    2.1516    1.9542   -0.9646 H   0  0  0  0  0  0  0  0  0  0  0  0
  1  2  1  0
  2  3  1  0
  3  4  2  0
  4  5  1  0
  5  6  1  6
  5  7  1  0
  7  8  1  0
  8  9  1  0
  9 10  1  0
 10 11  1  0
 11 12  1  0
 12 13  1  0
 13 14  1  0
 14 15  1  0
 15 16  1  0
 15 17  1  0
 17 18  1  0
 18 19  1  0
 19 20  1  6
  5  1  1  0
 19  9  1  0
 10  1  1  0
 19 13  1  0
  1 21  1  1
  2 22  1  0
  2 23  1  0
  3 24  1  0
  4 25  1  0
  6 26  1  0
  6 27  1  0
  6 28  1  0
  7 29  1  0
  7 30  1  0
  8 31  1  0
  8 32  1  0
  9 33  1  1
 10 34  1  6
 11 35  1  0
 11 36  1  0
 12 37  1  0
 12 38  1  0
 13 39  1  1
 14 40  1  0
 14 41  1  0
 15 42  1  6
 16 43  1  0
 17 44  1  0
 17 45  1  0
 18 46  1  0
 18 47  1  0
 20 48  1  0
 20 49  1  0
 20 50  1  0
M  END
$$$$
