
     RDKit          3D

 53 56  0  0  0  0  0  0  0  0999 V2000
    1.9859   -0.4469   -1.8977 O   0  0  0  0  0  0  0  0  0  0  0  0
    1.3118   -1.0873   -1.0194 C   0  0  0  0  0  0  0  0  0  0  0  0
    0.1365   -1.8401   -1.4460 C   0  0  0  0  0  0  0  0  0  0  0  0
   -1.1361   -1.1890   -1.2407 N   0  0  0  0  0  0  0  0  0  0  0  0
   -1.8112   -1.4055   -0.0656 C   0  0  0  0  0  0  0  0  0  0  0  0
   -1.3048   -2.1581    0.7860 O   0  0  0  0  0  0  0  0  0  0  0  0
   -3.0254   -0.8285    0.2141 C   0  0  0  0  0  0  0  0  0  0  0  0
   -3.7647   -1.0558    1.4835 C   0  0  0  0  0  0  0  0  0  0  0  0
   -5.0750   -0.3804    1.4801 C   0  0  0  0  0  0  0  0  0  0  0  0
   -5.1967    0.9125    1.9436 C   0  0  0  0  0  0  0  0  0  0  0  0
   -6.4102    1.5752    1.9464 C   0  0  0  0  0  0  0  0  0  0  0  0
   -7.5467    0.9567    1.4819 C   0  0  0  0  0  0  0  0  0  0  0  0
   -7.4423   -0.3386    1.0144 C   0  0  0  0  0  0  0  0  0  0  0  0
   -6.2141   -0.9923    1.0175 C   0  0  0  0  0  0  0  0  0  0  0  0
   -3.5661   -0.0199   -0.7062 N   0  0  0  0  0  0  0  0  0  0  0  0
   -2.9618    0.2388   -1.8813 C   0  0  0  0  0  0  0  0  0  0  0  0
   -3.5448    1.0703   -2.7994 C   0  0  0  0  0  0  0  0  0  0  0  0
   -2.8828    1.3019   -3.9906 C   0  0  0  0  0  0  0  0  0  0  0  0
   -1.6653    0.7194   -4.2648 C   0  0  0  0  0  0  0  0  0  0  0  0
   -1.0813   -0.1248   -3.3238 C   0  0  0  0  0  0  0  0  0  0  0  0
   -1.7272   -0.3702   -2.1249 C   0  0  0  0  0  0  0  0  0  0  0  0
    1.7783   -1.0045    0.3158 N   0  0  0  0  0  0  0  0  0  0  0  0
    2.9459   -0.2326    0.5598 N   0  0  0  0  0  0  0  0  0  0  0  0
    4.2235   -0.8573    0.5686 C   0  0  0  0  0  0  0  0  0  0  0  0
    4.2584   -2.1237    0.3531 O   0  0  0  0  0  0  0  0  0  0  0  0
    5.4709   -0.1516    0.8073 C   0  0  0  0  0  0  0  0  0  0  0  0
    6.6389   -0.8494    0.9615 C   0  0  0  0  0  0  0  0  0  0  0  0
    7.8249   -0.1656    1.1838 C   0  0  0  0  0  0  0  0  0  0  0  0
    7.8624    1.2054    1.2541 C   0  0  0  0  0  0  0  0  0  0  0  0
    9.0566    1.9284    1.4783 N   0  0  0  0  0  4  0  0  0  0  0  0
   10.1275    1.2950    1.6285 O   0  0  0  0  0  0  0  0  0  0  0  0
    9.0705    3.2917    1.5364 O   0  0  0  0  0  1  0  0  0  0  0  0
    6.6862    1.8883    1.0978 C   0  0  0  0  0  0  0  0  0  0  0  0
    5.5015    1.2198    0.8768 C   0  0  0  0  0  0  0  0  0  0  0  0
    0.2766   -2.2171   -2.4800 H   0  0  0  0  0  0  0  0  0  0  0  0
    0.1492   -2.7955   -0.8261 H   0  0  0  0  0  0  0  0  0  0  0  0
   -3.1590   -0.7026    2.3678 H   0  0  0  0  0  0  0  0  0  0  0  0
   -3.8741   -2.1595    1.6742 H   0  0  0  0  0  0  0  0  0  0  0  0
   -4.2758    1.3885    2.3104 H   0  0  0  0  0  0  0  0  0  0  0  0
   -6.4955    2.5870    2.3123 H   0  0  0  0  0  0  0  0  0  0  0  0
   -8.5157    1.4749    1.4792 H   0  0  0  0  0  0  0  0  0  0  0  0
   -8.3065   -0.8678    0.6400 H   0  0  0  0  0  0  0  0  0  0  0  0
   -6.1590   -1.9950    0.6502 H   0  0  0  0  0  0  0  0  0  0  0  0
   -4.5004    1.5224   -2.5716 H   0  0  0  0  0  0  0  0  0  0  0  0
   -3.3584    1.9703   -4.7205 H   0  0  0  0  0  0  0  0  0  0  0  0
   -1.1336    0.8990   -5.2061 H   0  0  0  0  0  0  0  0  0  0  0  0
   -0.1492   -0.5689   -3.5485 H   0  0  0  0  0  0  0  0  0  0  0  0
    1.2998   -1.4814    1.0868 H   0  0  0  0  0  0  0  0  0  0  0  0
    2.8938    0.7867    0.7347 H   0  0  0  0  0  0  0  0  0  0  0  0
    6.7081   -1.9414    0.9210 H   0  0  0  0  0  0  0  0  0  0  0  0
    8.7823   -0.6874    1.3141 H   0  0  0  0  0  0  0  0  0  0  0  0
    6.6817    2.9640    1.1480 H   0  0  0  0  0  0  0  0  0  0  0  0
    4.6127    1.8427    0.7628 H   0  0  0  0  0  0  0  0  0  0  0  0
  1  2  2  0
  2  3  1  0
  3  4  1  0
  4  5  1  0
  5  6  2  0
  5  7  1  0
  7  8  1  0
  8  9  1  0
  9 10  2  0
 10 11  1  0
 11 12  2  0
 12 13  1  0
 13 14  2  0
  7 15  2  0
 15 16  1  0
 16 17  2  0
 17 18  1  0
 18 19  2  0
 19 20  1  0
 20 21  2  0
  2 22  1  0
 22 23  1  0
 23 24  1  0
 24 25  2  0
 24 26  1  0
 26 27  2  0
 27 28  1  0
 28 29  2  0
 29 30  1  0
 30 31  2  0
 30 32  1  0
 29 33  1  0
 33 34  2  0
 21  4  1  0
 34 26  1  0
 14  9  1  0
 21 16  1  0
  3 35  1  0
  3 36  1  0
  8 37  1  0
  8 38  1  0
 10 39  1  0
 11 40  1  0
 12 41  1  0
 13 42  1  0
 14 43  1  0
 17 44  1  0
 18 45  1  0
 19 46  1  0
 20 47  1  0
 22 48  1  0
 23 49  1  0
 27 50  1  0
 28 51  1  0
 33 52  1  0
 34 53  1  0
M  CHG  2  30   1  32  -1
M  END
$$$$
