@<TRIPOS>MOLECULE
*****
 53 56 0 0 0
SMALL
GASTEIGER

@<TRIPOS>ATOM
      1 O           1.9859   -0.4469   -1.8977 O.2     1  UNL1       -0.2723
      2 C           1.3118   -1.0873   -1.0194 C.2     1  UNL1        0.2490
      3 C           0.1365   -1.8401   -1.4460 C.3     1  UNL1        0.1044
      4 N          -1.1361   -1.1890   -1.2407 N.ar    1  UNL1       -0.2963
      5 C          -1.8112   -1.4055   -0.0656 C.ar    1  UNL1        0.2739
      6 O          -1.3048   -2.1581    0.7860 O.2     1  UNL1       -0.2657
      7 C          -3.0254   -0.8285    0.2141 C.ar    1  UNL1        0.1105
      8 C          -3.7647   -1.0558    1.4835 C.3     1  UNL1        0.0201
      9 C          -5.0750   -0.3804    1.4801 C.ar    1  UNL1       -0.0414
     10 C          -5.1967    0.9125    1.9436 C.ar    1  UNL1       -0.0582
     11 C          -6.4102    1.5752    1.9464 C.ar    1  UNL1       -0.0615
     12 C          -7.5467    0.9567    1.4819 C.ar    1  UNL1       -0.0617
     13 C          -7.4423   -0.3386    1.0144 C.ar    1  UNL1       -0.0615
     14 C          -6.2141   -0.9923    1.0175 C.ar    1  UNL1       -0.0582
     15 N          -3.5661   -0.0199   -0.7062 N.ar    1  UNL1       -0.2444
     16 C          -2.9618    0.2388   -1.8813 C.ar    1  UNL1        0.0879
     17 C          -3.5448    1.0703   -2.7994 C.ar    1  UNL1       -0.0343
     18 C          -2.8828    1.3019   -3.9906 C.ar    1  UNL1       -0.0596
     19 C          -1.6653    0.7194   -4.2648 C.ar    1  UNL1       -0.0597
     20 C          -1.0813   -0.1248   -3.3238 C.ar    1  UNL1       -0.0360
     21 C          -1.7272   -0.3702   -2.1249 C.ar    1  UNL1        0.0708
     22 N           1.7783   -1.0045    0.3158 N.am    1  UNL1       -0.2327
     23 N           2.9459   -0.2326    0.5598 N.am    1  UNL1       -0.2303
     24 C           4.2235   -0.8573    0.5686 C.2     1  UNL1        0.2601
     25 O           4.2584   -2.1237    0.3531 O.2     1  UNL1       -0.2687
     26 C           5.4709   -0.1516    0.8073 C.ar    1  UNL1        0.0386
     27 C           6.6389   -0.8494    0.9615 C.ar    1  UNL1       -0.0432
     28 C           7.8249   -0.1656    1.1838 C.ar    1  UNL1        0.0163
     29 C           7.8624    1.2054    1.2541 C.ar    1  UNL1        0.2732
     30 N           9.0566    1.9284    1.4783 N.pl3   1  UNL1        0.0796
     31 O          10.1275    1.2950    1.6285 O.2     1  UNL1        0.0414
     32 O           9.0705    3.2917    1.5364 O.co2   1  UNL1       -0.5760
     33 C           6.6862    1.8883    1.0978 C.ar    1  UNL1        0.0163
     34 C           5.5015    1.2198    0.8768 C.ar    1  UNL1       -0.0432
     35 H           0.2766   -2.2171   -2.4800 H       1  UNL1        0.0589
     36 H           0.1492   -2.7955   -0.8261 H       1  UNL1        0.0589
     37 H          -3.1590   -0.7026    2.3678 H       1  UNL1        0.0378
     38 H          -3.8741   -2.1595    1.6742 H       1  UNL1        0.0378
     39 H          -4.2758    1.3885    2.3104 H       1  UNL1        0.0620
     40 H          -6.4955    2.5870    2.3123 H       1  UNL1        0.0618
     41 H          -8.5157    1.4749    1.4792 H       1  UNL1        0.0618
     42 H          -8.3065   -0.8678    0.6400 H       1  UNL1        0.0618
     43 H          -6.1590   -1.9950    0.6502 H       1  UNL1        0.0620
     44 H          -4.5004    1.5224   -2.5716 H       1  UNL1        0.0639
     45 H          -3.3584    1.9703   -4.7205 H       1  UNL1        0.0618
     46 H          -1.1336    0.8990   -5.2061 H       1  UNL1        0.0618
     47 H          -0.1492   -0.5689   -3.5485 H       1  UNL1        0.0639
     48 H           1.2998   -1.4814    1.0868 H       1  UNL1        0.1729
     49 H           2.8938    0.7867    0.7347 H       1  UNL1        0.1731
     50 H           6.7081   -1.9414    0.9210 H       1  UNL1        0.0627
     51 H           8.7823   -0.6874    1.3141 H       1  UNL1        0.0685
     52 H           6.6817    2.9640    1.1480 H       1  UNL1        0.0685
     53 H           4.6127    1.8427    0.7628 H       1  UNL1        0.0627
@<TRIPOS>UNITY_ATOM_ATTR
30 1
charge 1
32 1
charge -1
@<TRIPOS>BOND
     1     1     2    2
     2     2     3    1
     3     3     4    1
     4     4     5   ar
     5     5     6    2
     6     5     7   ar
     7     7     8    1
     8     8     9    1
     9     9    10   ar
    10    10    11   ar
    11    11    12   ar
    12    12    13   ar
    13    13    14   ar
    14     7    15   ar
    15    15    16   ar
    16    16    17   ar
    17    17    18   ar
    18    18    19   ar
    19    19    20   ar
    20    20    21   ar
    21     2    22   am
    22    22    23    1
    23    23    24   am
    24    24    25    2
    25    24    26    1
    26    26    27   ar
    27    27    28   ar
    28    28    29   ar
    29    29    30    1
    30    30    31    2
    31    30    32    1
    32    29    33   ar
    33    33    34   ar
    34    21     4   ar
    35    34    26   ar
    36    14     9   ar
    37    21    16   ar
    38     3    35    1
    39     3    36    1
    40     8    37    1
    41     8    38    1
    42    10    39    1
    43    11    40    1
    44    12    41    1
    45    13    42    1
    46    14    43    1
    47    17    44    1
    48    18    45    1
    49    19    46    1
    50    20    47    1
    51    22    48    1
    52    23    49    1
    53    27    50    1
    54    28    51    1
    55    33    52    1
    56    34    53    1
