@<TRIPOS>MOLECULE
*****
 46 49 0 0 0
SMALL
GASTEIGER

@<TRIPOS>ATOM
      1 C          -0.0617   -2.4158   -2.2092 C.3     1  UNL1       -0.0526
      2 C          -1.2319   -1.6917   -1.5074 C.3     1  UNL1        0.0151
      3 S          -2.1138   -2.9844   -0.6151 S.3     1  UNL1       -0.0876
      4 C          -2.6356   -2.2555    0.9255 C.2     1  UNL1        0.1478
      5 N          -3.4732   -2.9887    1.8379 N.pl3   1  UNL1       -0.3380
      6 N          -2.2575   -1.0965    1.1928 N.2     1  UNL1       -0.2495
      7 C          -1.4465   -0.1453    0.5072 C.3     1  UNL1        0.1188
      8 C          -2.2271    1.0942    0.1749 C.ar    1  UNL1        0.0178
      9 C          -1.8345    2.3273    0.6170 C.ar    1  UNL1       -0.0507
     10 C          -2.5236    3.5128    0.3149 C.ar    1  UNL1       -0.0259
     11 C          -3.6495    3.3958   -0.4690 C.ar    1  UNL1        0.1261
     12 F          -4.3779    4.5068   -0.8089 F       1  UNL1       -0.2054
     13 C          -4.0446    2.1525   -0.9135 C.ar    1  UNL1        0.0091
     14 C          -3.3691    0.9863   -0.6176 C.ar    1  UNL1        0.1317
     15 F          -3.8036   -0.2191   -1.0580 F       1  UNL1       -0.2050
     16 C          -0.4334    0.2760    1.5907 C.3     1  UNL1        0.0781
     17 O           0.6284    0.9848    1.1450 O.3     1  UNL1       -0.3691
     18 C           1.3695    0.4252    0.1479 C.3     1  UNL1        0.0870
     19 C           2.8089    0.2980    0.4647 C.ar    1  UNL1        0.0185
     20 C           3.3363   -0.1655    1.6572 C.ar    1  UNL1        0.0550
     21 N           4.6745   -0.1284    1.5506 N.ar    1  UNL1       -0.1796
     22 N           5.0013    0.3409    0.3362 N.ar    1  UNL1       -0.2741
     23 C           6.3474    0.5309   -0.1651 C.3     1  UNL1        0.0302
     24 C           3.8799    0.6073   -0.3426 C.ar    1  UNL1        0.0308
     25 C           0.7552   -0.9141   -0.2246 C.3     1  UNL1       -0.0159
     26 C          -0.6831   -0.5996   -0.6642 C.3     1  UNL1        0.0053
     27 H           0.5162   -1.7581   -2.8527 H       1  UNL1        0.0240
     28 H           0.4794   -3.0481   -1.5072 H       1  UNL1        0.0240
     29 H          -0.5766   -3.1376   -2.9165 H       1  UNL1        0.0240
     30 H          -1.8368   -1.3154   -2.3868 H       1  UNL1        0.0417
     31 H          -3.3307   -2.7938    2.8468 H       1  UNL1        0.1442
     32 H          -4.1526   -3.6528    1.4243 H       1  UNL1        0.1442
     33 H          -0.9558    2.5121    1.2463 H       1  UNL1        0.0623
     34 H          -2.1744    4.4634    0.6874 H       1  UNL1        0.0646
     35 H          -4.9331    2.0241   -1.5372 H       1  UNL1        0.0675
     36 H          -0.9979    0.8558    2.3353 H       1  UNL1        0.0588
     37 H          -0.1280   -0.6635    2.1461 H       1  UNL1        0.0588
     38 H           1.2614    1.0733   -0.7621 H       1  UNL1        0.0647
     39 H           2.8092   -0.5057    2.5398 H       1  UNL1        0.0851
     40 H           6.3867    0.0438   -1.1723 H       1  UNL1        0.0473
     41 H           7.0776    0.1009    0.5434 H       1  UNL1        0.0473
     42 H           6.5906    1.6017   -0.3161 H       1  UNL1        0.0473
     43 H           3.7901    0.9957   -1.3446 H       1  UNL1        0.0830
     44 H           1.3604   -1.2904   -1.0903 H       1  UNL1        0.0297
     45 H           0.7306   -1.6317    0.5991 H       1  UNL1        0.0297
     46 H          -0.5513    0.2923   -1.3499 H       1  UNL1        0.0340
@<TRIPOS>BOND
     1     1     2    1
     2     2     3    1
     3     3     4    1
     4     4     5    1
     5     4     6    2
     6     6     7    1
     7     7     8    1
     8     8     9   ar
     9     9    10   ar
    10    10    11   ar
    11    11    12    1
    12    11    13   ar
    13    13    14   ar
    14    14    15    1
    15     7    16    1
    16    16    17    1
    17    17    18    1
    18    18    19    1
    19    19    20   ar
    20    20    21   ar
    21    21    22   ar
    22    22    23    1
    23    22    24   ar
    24    18    25    1
    25    25    26    1
    26    26     2    1
    27    26     7    1
    28    14     8   ar
    29    24    19   ar
    30     1    27    1
    31     1    28    1
    32     1    29    1
    33     2    30    1
    34     5    31    1
    35     5    32    1
    36     9    33    1
    37    10    34    1
    38    13    35    1
    39    16    36    1
    40    16    37    1
    41    18    38    1
    42    20    39    1
    43    23    40    1
    44    23    41    1
    45    23    42    1
    46    24    43    1
    47    25    44    1
    48    25    45    1
    49    26    46    1
