
     RDKit          3D

 46 49  0  0  0  0  0  0  0  0999 V2000
   -0.0617   -2.4158   -2.2092 C   0  0  0  0  0  0  0  0  0  0  0  0
   -1.2319   -1.6917   -1.5074 C   0  0  1  0  0  0  0  0  0  0  0  0
   -2.1138   -2.9844   -0.6151 S   0  0  0  0  0  0  0  0  0  0  0  0
   -2.6356   -2.2555    0.9255 C   0  0  0  0  0  0  0  0  0  0  0  0
   -3.4732   -2.9887    1.8379 N   0  0  0  0  0  0  0  0  0  0  0  0
   -2.2575   -1.0965    1.1928 N   0  0  0  0  0  0  0  0  0  0  0  0
   -1.4465   -0.1453    0.5072 C   0  0  1  0  0  0  0  0  0  0  0  0
   -2.2271    1.0942    0.1749 C   0  0  0  0  0  0  0  0  0  0  0  0
   -1.8345    2.3273    0.6170 C   0  0  0  0  0  0  0  0  0  0  0  0
   -2.5236    3.5128    0.3149 C   0  0  0  0  0  0  0  0  0  0  0  0
   -3.6495    3.3958   -0.4690 C   0  0  0  0  0  0  0  0  0  0  0  0
   -4.3779    4.5068   -0.8089 F   0  0  0  0  0  0  0  0  0  0  0  0
   -4.0446    2.1525   -0.9135 C   0  0  0  0  0  0  0  0  0  0  0  0
   -3.3691    0.9863   -0.6176 C   0  0  0  0  0  0  0  0  0  0  0  0
   -3.8036   -0.2191   -1.0580 F   0  0  0  0  0  0  0  0  0  0  0  0
   -0.4334    0.2760    1.5907 C   0  0  0  0  0  0  0  0  0  0  0  0
    0.6284    0.9848    1.1450 O   0  0  0  0  0  0  0  0  0  0  0  0
    1.3695    0.4252    0.1479 C   0  0  1  0  0  0  0  0  0  0  0  0
    2.8089    0.2980    0.4647 C   0  0  0  0  0  0  0  0  0  0  0  0
    3.3363   -0.1655    1.6572 C   0  0  0  0  0  0  0  0  0  0  0  0
    4.6745   -0.1284    1.5506 N   0  0  0  0  0  0  0  0  0  0  0  0
    5.0013    0.3409    0.3362 N   0  0  0  0  0  0  0  0  0  0  0  0
    6.3474    0.5309   -0.1651 C   0  0  0  0  0  0  0  0  0  0  0  0
    3.8799    0.6073   -0.3426 C   0  0  0  0  0  0  0  0  0  0  0  0
    0.7552   -0.9141   -0.2246 C   0  0  0  0  0  0  0  0  0  0  0  0
   -0.6831   -0.5996   -0.6642 C   0  0  1  0  0  0  0  0  0  0  0  0
    0.5162   -1.7581   -2.8527 H   0  0  0  0  0  0  0  0  0  0  0  0
    0.4794   -3.0481   -1.5072 H   0  0  0  0  0  0  0  0  0  0  0  0
   -0.5766   -3.1376   -2.9165 H   0  0  0  0  0  0  0  0  0  0  0  0
   -1.8368   -1.3154   -2.3868 H   0  0  0  0  0  0  0  0  0  0  0  0
   -3.3307   -2.7938    2.8468 H   0  0  0  0  0  0  0  0  0  0  0  0
   -4.1526   -3.6528    1.4243 H   0  0  0  0  0  0  0  0  0  0  0  0
   -0.9558    2.5121    1.2463 H   0  0  0  0  0  0  0  0  0  0  0  0
   -2.1744    4.4634    0.6874 H   0  0  0  0  0  0  0  0  0  0  0  0
   -4.9331    2.0241   -1.5372 H   0  0  0  0  0  0  0  0  0  0  0  0
   -0.9979    0.8558    2.3353 H   0  0  0  0  0  0  0  0  0  0  0  0
   -0.1280   -0.6635    2.1461 H   0  0  0  0  0  0  0  0  0  0  0  0
    1.2614    1.0733   -0.7621 H   0  0  0  0  0  0  0  0  0  0  0  0
    2.8092   -0.5057    2.5398 H   0  0  0  0  0  0  0  0  0  0  0  0
    6.3867    0.0438   -1.1723 H   0  0  0  0  0  0  0  0  0  0  0  0
    7.0776    0.1009    0.5434 H   0  0  0  0  0  0  0  0  0  0  0  0
    6.5906    1.6017   -0.3161 H   0  0  0  0  0  0  0  0  0  0  0  0
    3.7901    0.9957   -1.3446 H   0  0  0  0  0  0  0  0  0  0  0  0
    1.3604   -1.2904   -1.0903 H   0  0  0  0  0  0  0  0  0  0  0  0
    0.7306   -1.6317    0.5991 H   0  0  0  0  0  0  0  0  0  0  0  0
   -0.5513    0.2923   -1.3499 H   0  0  0  0  0  0  0  0  0  0  0  0
  1  2  1  0
  2  3  1  0
  3  4  1  0
  4  5  1  0
  4  6  2  0
  6  7  1  0
  7  8  1  6
  8  9  2  0
  9 10  1  0
 10 11  2  0
 11 12  1  0
 11 13  1  0
 13 14  2  0
 14 15  1  0
  7 16  1  0
 16 17  1  0
 17 18  1  0
 18 19  1  0
 19 20  1  0
 20 21  2  0
 21 22  1  0
 22 23  1  0
 22 24  1  0
 18 25  1  0
 25 26  1  0
 26  2  1  0
 26  7  1  0
 14  8  1  0
 24 19  2  0
  1 27  1  0
  1 28  1  0
  1 29  1  0
  2 30  1  6
  5 31  1  0
  5 32  1  0
  9 33  1  0
 10 34  1  0
 13 35  1  0
 16 36  1  0
 16 37  1  0
 18 38  1  6
 20 39  1  0
 23 40  1  0
 23 41  1  0
 23 42  1  0
 24 43  1  0
 25 44  1  0
 25 45  1  0
 26 46  1  6
M  END
$$$$
