@<TRIPOS>MOLECULE
*****
 41 42 0 0 0
SMALL
GASTEIGER

@<TRIPOS>ATOM
      1 N          -7.6029    0.8950   -0.7740 N.3     1  UNL1       -0.3300
      2 C          -7.4356   -0.3939   -0.1506 C.3     1  UNL1       -0.0065
      3 C          -6.0247   -0.8825   -0.3969 C.3     1  UNL1       -0.0324
      4 C          -5.0984    0.1171    0.2028 C.3     1  UNL1        0.0254
      5 C          -3.6692   -0.2424    0.0315 C.2     1  UNL1        0.2172
      6 O          -3.4724   -1.3173   -0.5831 O.2     1  UNL1       -0.2755
      7 N          -2.5873    0.5166    0.4961 N.am    1  UNL1       -0.2855
      8 C          -1.2029    0.2559    0.3806 C.ar    1  UNL1        0.0336
      9 C          -0.6141   -0.8238   -0.2268 C.ar    1  UNL1       -0.0370
     10 C           0.7458   -1.0309   -0.3120 C.ar    1  UNL1       -0.0182
     11 C           1.6013   -0.1118    0.2392 C.ar    1  UNL1        0.1211
     12 O           2.9732   -0.3081    0.1606 O.3     1  UNL1       -0.4874
     13 C           3.8477    0.6412    0.7297 C.3     1  UNL1        0.1146
     14 C           5.2639    0.1836    0.5016 C.ar    1  UNL1       -0.0104
     15 C           5.9542    0.5656   -0.6407 C.ar    1  UNL1       -0.0554
     16 C           7.2577    0.1696   -0.8933 C.ar    1  UNL1       -0.0614
     17 C           7.8544   -0.6405    0.0628 C.ar    1  UNL1       -0.0617
     18 C           7.2041   -1.0458    1.2162 C.ar    1  UNL1       -0.0614
     19 C           5.8930   -0.6165    1.4176 C.ar    1  UNL1       -0.0554
     20 C           1.0419    0.9845    0.8569 C.ar    1  UNL1       -0.0182
     21 C          -0.3224    1.1556    0.9212 C.ar    1  UNL1       -0.0370
     22 H          -7.2462    1.6360   -0.1400 H       1  UNL1        0.1182
     23 H          -7.0901    0.9651   -1.6866 H       1  UNL1        0.1182
     24 H          -8.1081   -1.1545   -0.6275 H       1  UNL1        0.0422
     25 H          -7.6393   -0.2884    0.9173 H       1  UNL1        0.0422
     26 H          -5.8521   -1.8705    0.0729 H       1  UNL1        0.0282
     27 H          -5.8354   -0.9389   -1.4819 H       1  UNL1        0.0282
     28 H          -5.2827    0.3121    1.2751 H       1  UNL1        0.0359
     29 H          -5.2243    1.1167   -0.2861 H       1  UNL1        0.0359
     30 H          -2.9145    1.3777    0.9842 H       1  UNL1        0.1548
     31 H          -1.2220   -1.5750   -0.6750 H       1  UNL1        0.0637
     32 H           1.1525   -1.9031   -0.8044 H       1  UNL1        0.0655
     33 H           3.7189    1.6431    0.3133 H       1  UNL1        0.0748
     34 H           3.7056    0.7502    1.8348 H       1  UNL1        0.0748
     35 H           5.4682    1.2039   -1.3827 H       1  UNL1        0.0621
     36 H           7.8065    0.4544   -1.7692 H       1  UNL1        0.0618
     37 H           8.8810   -0.9583   -0.1261 H       1  UNL1        0.0618
     38 H           7.7179   -1.6824    1.9357 H       1  UNL1        0.0618
     39 H           5.4022   -0.9384    2.3155 H       1  UNL1        0.0621
     40 H           1.6641    1.7393    1.3076 H       1  UNL1        0.0655
     41 H          -0.7098    2.0396    1.4209 H       1  UNL1        0.0637
@<TRIPOS>BOND
     1     1     2    1
     2     2     3    1
     3     3     4    1
     4     4     5    1
     5     5     6    2
     6     5     7   am
     7     7     8    1
     8     8     9   ar
     9     9    10   ar
    10    10    11   ar
    11    11    12    1
    12    12    13    1
    13    13    14    1
    14    14    15   ar
    15    15    16   ar
    16    16    17   ar
    17    17    18   ar
    18    18    19   ar
    19    11    20   ar
    20    20    21   ar
    21    21     8   ar
    22    19    14   ar
    23     1    22    1
    24     1    23    1
    25     2    24    1
    26     2    25    1
    27     3    26    1
    28     3    27    1
    29     4    28    1
    30     4    29    1
    31     7    30    1
    32     9    31    1
    33    10    32    1
    34    13    33    1
    35    13    34    1
    36    15    35    1
    37    16    36    1
    38    17    37    1
    39    18    38    1
    40    19    39    1
    41    20    40    1
    42    21    41    1
