@<TRIPOS>MOLECULE
*****
 56 60 0 0 0
SMALL
GASTEIGER

@<TRIPOS>ATOM
      1 O          -1.9070    1.1588   -0.8710 O.2     1  UNL1       -0.2705
      2 C          -2.2050   -0.0544   -0.9566 C.2     1  UNL1        0.2411
      3 C          -3.4369   -0.6191   -0.3357 C.2     1  UNL1        0.0011
      4 C          -4.2393    0.1759    0.3236 C.2     1  UNL1       -0.0468
      5 C          -5.4730   -0.1369    1.0099 C.ar    1  UNL1        0.0160
      6 CA         -5.9332   -1.2954    1.5302 C.ar    1  UNL1        0.1325
      7 C          -5.2370   -2.5504    1.7482 C.2     1  UNL1        0.3539
      8 O          -4.0631   -2.8328    1.4990 O.2     1  UNL1       -0.2435
      9 OXT        -5.9615   -3.6346    2.3248 O.3     1  UNL1       -0.4761
     10 N          -7.2359   -1.1013    1.9240 N.ar    1  UNL1       -0.3485
     11 C          -7.6319    0.1371    1.6830 C.ar    1  UNL1        0.0490
     12 C          -8.8234    0.8035    1.8933 C.ar    1  UNL1       -0.0377
     13 C          -8.9509    2.1178    1.5324 C.ar    1  UNL1       -0.0584
     14 C          -7.9013    2.7694    0.9647 C.ar    1  UNL1       -0.0427
     15 C          -6.6916    2.0903    0.7519 C.ar    1  UNL1        0.0507
     16 CL         -5.3677    2.9810   -0.0032 Cl      1  UNL1       -0.0828
     17 C          -6.5359    0.7940    1.0983 C.ar    1  UNL1        0.0259
     18 N          -1.3355   -0.9180   -1.6712 N.am    1  UNL1       -0.2820
     19 C          -0.1288   -0.4274   -2.2932 C.ar    1  UNL1        0.0342
     20 C          -0.1406    0.0294   -3.5898 C.ar    1  UNL1       -0.0404
     21 C           1.0009    0.4988   -4.1931 C.ar    1  UNL1       -0.0595
     22 C           2.2212    0.5298   -3.5095 C.ar    1  UNL1       -0.0545
     23 C           2.2423    0.0766   -2.2173 C.ar    1  UNL1       -0.0232
     24 C           3.4668    0.0767   -1.4437 C.2     1  UNL1       -0.0525
     25 C           4.5932    0.4992   -1.9242 C.2     1  UNL1       -0.0357
     26 C           5.7833    0.4633   -1.0707 C.ar    1  UNL1        0.0646
     27 C           7.0138    0.9024   -1.5323 C.ar    1  UNL1       -0.0357
     28 C           8.1177    0.8597   -0.7142 C.ar    1  UNL1       -0.0506
     29 C           7.9631    0.3717    0.5651 C.ar    1  UNL1        0.0005
     30 C           9.0331    0.3093    1.4174 C.ar    1  UNL1       -0.0512
     31 C           8.8792   -0.1790    2.6982 C.ar    1  UNL1       -0.0427
     32 C           7.6657   -0.6135    3.1575 C.ar    1  UNL1        0.0430
     33 CL          7.4738   -1.2317    4.7807 Cl      1  UNL1       -0.0835
     34 C           6.5856   -0.5564    2.3138 C.ar    1  UNL1       -0.0174
     35 C           6.7408   -0.0612    1.0145 C.ar    1  UNL1        0.0730
     36 N           5.7030    0.0068    0.1669 N.ar    1  UNL1       -0.2472
     37 C           1.0645   -0.4011   -1.6133 C.ar    1  UNL1       -0.0333
     38 H          -3.6738   -1.6418   -0.4825 H       1  UNL1        0.0670
     39 H          -3.8615    1.2327    0.3594 H       1  UNL1        0.0626
     40 HXT        -5.6226   -4.5861    2.1880 H       1  UNL1        0.2955
     41 H          -7.8471   -1.8369    2.3614 H       1  UNL1        0.1661
     42 H          -9.6473    0.2925    2.3386 H       1  UNL1        0.0638
     43 H          -9.9042    2.6522    1.7006 H       1  UNL1        0.0619
     44 H          -7.9537    3.8075    0.6625 H       1  UNL1        0.0632
     45 H          -1.5892   -1.9334   -1.7403 H       1  UNL1        0.1551
     46 H          -1.0744    0.0095   -4.1237 H       1  UNL1        0.0636
     47 H           0.9939    0.8580   -5.2113 H       1  UNL1        0.0618
     48 H           3.0824    0.9060   -4.0270 H       1  UNL1        0.0623
     49 H           3.4431   -0.2960   -0.4068 H       1  UNL1        0.0624
     50 H           4.7035    0.8816   -2.9334 H       1  UNL1        0.0639
     51 H           7.0615    1.2726   -2.5469 H       1  UNL1        0.0639
     52 H           9.0862    1.2005   -1.0639 H       1  UNL1        0.0625
     53 H          10.0055    0.6412    1.0955 H       1  UNL1        0.0625
     54 H           9.7425   -0.2113    3.3349 H       1  UNL1        0.0632
     55 H           5.6253   -0.8828    2.6280 H       1  UNL1        0.0653
     56 H           1.0813   -0.7594   -0.5915 H       1  UNL1        0.0642
@<TRIPOS>BOND
     1     1     2    2
     2     2     3    1
     3     3     4    2
     4     4     5    1
     5     5     6   ar
     6     6     7    1
     7     7     8    2
     8     7     9    1
     9     6    10   ar
    10    10    11   ar
    11    11    12   ar
    12    12    13   ar
    13    13    14   ar
    14    14    15   ar
    15    15    16    1
    16    15    17   ar
    17     2    18   am
    18    18    19    1
    19    19    20   ar
    20    20    21   ar
    21    21    22   ar
    22    22    23   ar
    23    23    24    1
    24    24    25    2
    25    25    26    1
    26    26    27   ar
    27    27    28   ar
    28    28    29   ar
    29    29    30   ar
    30    30    31   ar
    31    31    32   ar
    32    32    33    1
    33    32    34   ar
    34    34    35   ar
    35    35    36   ar
    36    23    37   ar
    37    17     5   ar
    38    37    19   ar
    39    17    11   ar
    40    36    26   ar
    41    35    29   ar
    42     3    38    1
    43     4    39    1
    44     9    40    1
    45    10    41    1
    46    12    42    1
    47    13    43    1
    48    14    44    1
    49    18    45    1
    50    20    46    1
    51    21    47    1
    52    22    48    1
    53    24    49    1
    54    25    50    1
    55    27    51    1
    56    28    52    1
    57    30    53    1
    58    31    54    1
    59    34    55    1
    60    37    56    1
