
     RDKit          3D

 56 60  0  0  0  0  0  0  0  0999 V2000
   -1.9070    1.1588   -0.8710 O   0  0  0  0  0  0  0  0  0  0  0  0
   -2.2050   -0.0544   -0.9566 C   0  0  0  0  0  0  0  0  0  0  0  0
   -3.4369   -0.6191   -0.3357 C   0  0  0  0  0  0  0  0  0  0  0  0
   -4.2393    0.1759    0.3236 C   0  0  0  0  0  0  0  0  0  0  0  0
   -5.4730   -0.1369    1.0099 C   0  0  0  0  0  0  0  0  0  0  0  0
   -5.9332   -1.2954    1.5302 C   0  0  0  0  0  0  0  0  0  0  0  0
   -5.2370   -2.5504    1.7482 C   0  0  0  0  0  0  0  0  0  0  0  0
   -4.0631   -2.8328    1.4990 O   0  0  0  0  0  0  0  0  0  0  0  0
   -5.9615   -3.6346    2.3248 O   0  0  0  0  0  0  0  0  0  0  0  0
   -7.2359   -1.1013    1.9240 N   0  0  0  0  0  0  0  0  0  0  0  0
   -7.6319    0.1371    1.6830 C   0  0  0  0  0  0  0  0  0  0  0  0
   -8.8234    0.8035    1.8933 C   0  0  0  0  0  0  0  0  0  0  0  0
   -8.9509    2.1178    1.5324 C   0  0  0  0  0  0  0  0  0  0  0  0
   -7.9013    2.7694    0.9647 C   0  0  0  0  0  0  0  0  0  0  0  0
   -6.6916    2.0903    0.7519 C   0  0  0  0  0  0  0  0  0  0  0  0
   -5.3677    2.9810   -0.0032 Cl  0  0  0  0  0  0  0  0  0  0  0  0
   -6.5359    0.7940    1.0983 C   0  0  0  0  0  0  0  0  0  0  0  0
   -1.3355   -0.9180   -1.6712 N   0  0  0  0  0  0  0  0  0  0  0  0
   -0.1288   -0.4274   -2.2932 C   0  0  0  0  0  0  0  0  0  0  0  0
   -0.1406    0.0294   -3.5898 C   0  0  0  0  0  0  0  0  0  0  0  0
    1.0009    0.4988   -4.1931 C   0  0  0  0  0  0  0  0  0  0  0  0
    2.2212    0.5298   -3.5095 C   0  0  0  0  0  0  0  0  0  0  0  0
    2.2423    0.0766   -2.2173 C   0  0  0  0  0  0  0  0  0  0  0  0
    3.4668    0.0767   -1.4437 C   0  0  0  0  0  0  0  0  0  0  0  0
    4.5932    0.4992   -1.9242 C   0  0  0  0  0  0  0  0  0  0  0  0
    5.7833    0.4633   -1.0707 C   0  0  0  0  0  0  0  0  0  0  0  0
    7.0138    0.9024   -1.5323 C   0  0  0  0  0  0  0  0  0  0  0  0
    8.1177    0.8597   -0.7142 C   0  0  0  0  0  0  0  0  0  0  0  0
    7.9631    0.3717    0.5651 C   0  0  0  0  0  0  0  0  0  0  0  0
    9.0331    0.3093    1.4174 C   0  0  0  0  0  0  0  0  0  0  0  0
    8.8792   -0.1790    2.6982 C   0  0  0  0  0  0  0  0  0  0  0  0
    7.6657   -0.6135    3.1575 C   0  0  0  0  0  0  0  0  0  0  0  0
    7.4738   -1.2317    4.7807 Cl  0  0  0  0  0  0  0  0  0  0  0  0
    6.5856   -0.5564    2.3138 C   0  0  0  0  0  0  0  0  0  0  0  0
    6.7408   -0.0612    1.0145 C   0  0  0  0  0  0  0  0  0  0  0  0
    5.7030    0.0068    0.1669 N   0  0  0  0  0  0  0  0  0  0  0  0
    1.0645   -0.4011   -1.6133 C   0  0  0  0  0  0  0  0  0  0  0  0
   -3.6738   -1.6418   -0.4825 H   0  0  0  0  0  0  0  0  0  0  0  0
   -3.8615    1.2327    0.3594 H   0  0  0  0  0  0  0  0  0  0  0  0
   -5.6226   -4.5861    2.1880 H   0  0  0  0  0  0  0  0  0  0  0  0
   -7.8471   -1.8369    2.3614 H   0  0  0  0  0  0  0  0  0  0  0  0
   -9.6473    0.2925    2.3386 H   0  0  0  0  0  0  0  0  0  0  0  0
   -9.9042    2.6522    1.7006 H   0  0  0  0  0  0  0  0  0  0  0  0
   -7.9537    3.8075    0.6625 H   0  0  0  0  0  0  0  0  0  0  0  0
   -1.5892   -1.9334   -1.7403 H   0  0  0  0  0  0  0  0  0  0  0  0
   -1.0744    0.0095   -4.1237 H   0  0  0  0  0  0  0  0  0  0  0  0
    0.9939    0.8580   -5.2113 H   0  0  0  0  0  0  0  0  0  0  0  0
    3.0824    0.9060   -4.0270 H   0  0  0  0  0  0  0  0  0  0  0  0
    3.4431   -0.2960   -0.4068 H   0  0  0  0  0  0  0  0  0  0  0  0
    4.7035    0.8816   -2.9334 H   0  0  0  0  0  0  0  0  0  0  0  0
    7.0615    1.2726   -2.5469 H   0  0  0  0  0  0  0  0  0  0  0  0
    9.0862    1.2005   -1.0639 H   0  0  0  0  0  0  0  0  0  0  0  0
   10.0055    0.6412    1.0955 H   0  0  0  0  0  0  0  0  0  0  0  0
    9.7425   -0.2113    3.3349 H   0  0  0  0  0  0  0  0  0  0  0  0
    5.6253   -0.8828    2.6280 H   0  0  0  0  0  0  0  0  0  0  0  0
    1.0813   -0.7594   -0.5915 H   0  0  0  0  0  0  0  0  0  0  0  0
  1  2  2  0
  2  3  1  0
  3  4  2  0
  4  5  1  0
  5  6  2  0
  6  7  1  0
  7  8  2  0
  7  9  1  0
  6 10  1  0
 10 11  1  0
 11 12  2  0
 12 13  1  0
 13 14  2  0
 14 15  1  0
 15 16  1  0
 15 17  2  0
  2 18  1  0
 18 19  1  0
 19 20  2  0
 20 21  1  0
 21 22  2  0
 22 23  1  0
 23 24  1  0
 24 25  2  0
 25 26  1  0
 26 27  2  0
 27 28  1  0
 28 29  2  0
 29 30  1  0
 30 31  2  0
 31 32  1  0
 32 33  1  0
 32 34  2  0
 34 35  1  0
 35 36  2  0
 23 37  2  0
 17  5  1  0
 37 19  1  0
 17 11  1  0
 36 26  1  0
 35 29  1  0
  3 38  1  0
  4 39  1  0
  9 40  1  0
 10 41  1  0
 12 42  1  0
 13 43  1  0
 14 44  1  0
 18 45  1  0
 20 46  1  0
 21 47  1  0
 22 48  1  0
 24 49  1  0
 25 50  1  0
 27 51  1  0
 28 52  1  0
 30 53  1  0
 31 54  1  0
 34 55  1  0
 37 56  1  0
M  END
$$$$
