@<TRIPOS>MOLECULE
*****
 45 45 0 0 0
SMALL
GASTEIGER

@<TRIPOS>ATOM
      1 C           0.1916    0.9631   -0.3076 C.3     1  UNL1        0.1360
      2 C          -0.1669    2.4114    0.0246 C.3     1  UNL1       -0.0222
      3 C          -1.5412    2.7589   -0.5083 C.3     1  UNL1       -0.0510
      4 C          -1.8283    4.2009   -0.1443 C.3     1  UNL1       -0.0558
      5 C          -3.1995    4.6001   -0.6577 C.3     1  UNL1       -0.0653
      6 N          -0.7703    0.0888    0.2868 N.am    1  UNL1       -0.3008
      7 C          -1.5764   -0.7799   -0.5024 C.2     1  UNL1        0.2142
      8 O          -1.4197   -0.7584   -1.7444 O.2     1  UNL1       -0.2758
      9 C          -2.5600   -1.6671    0.1707 C.3     1  UNL1        0.0340
     10 C          -3.2985   -2.4951   -0.8552 C.3     1  UNL1        0.0530
     11 C          -4.2923   -3.3906   -0.1672 C.2     1  UNL1        0.3052
     12 O          -5.0366   -4.2061   -1.0209 O.3     1  UNL1       -0.4806
     13 O          -4.4491   -3.4105    1.0903 O.2     1  UNL1       -0.2510
     14 P           1.8735    0.6714    0.2900 P.3     1  UNL1        0.3991
     15 O           2.1387    1.4611    1.7630 O.3     1  UNL1       -0.3139
     16 O           2.8999    1.1909   -0.6917 O.2     1  UNL1       -0.2422
     17 O           2.1847   -0.9796    0.5587 O.3     1  UNL1       -0.4228
     18 C           3.5022   -1.4125    0.4843 C.ar    1  UNL1        0.1299
     19 C           3.6076   -2.7298    0.0316 C.ar    1  UNL1       -0.0195
     20 C           4.8492   -3.3315   -0.1060 C.ar    1  UNL1       -0.0583
     21 C           5.9887   -2.6510    0.1970 C.ar    1  UNL1       -0.0615
     22 C           5.8821   -1.3448    0.6458 C.ar    1  UNL1       -0.0583
     23 C           4.6580   -0.7177    0.7932 C.ar    1  UNL1       -0.0195
     24 H           0.2433    0.8968   -1.4142 H       1  UNL1        0.0636
     25 H          -0.1295    2.5809    1.1121 H       1  UNL1        0.0289
     26 H           0.5494    3.1166   -0.4360 H       1  UNL1        0.0289
     27 H          -1.5661    2.6451   -1.6066 H       1  UNL1        0.0266
     28 H          -2.3235    2.0927   -0.0957 H       1  UNL1        0.0266
     29 H          -1.0620    4.8586   -0.5554 H       1  UNL1        0.0263
     30 H          -1.7749    4.2657    0.9656 H       1  UNL1        0.0263
     31 H          -3.3830    4.0087   -1.5928 H       1  UNL1        0.0230
     32 H          -3.1417    5.6620   -0.9859 H       1  UNL1        0.0230
     33 H          -3.9386    4.4114    0.1249 H       1  UNL1        0.0230
     34 H          -0.8195    0.1507    1.3278 H       1  UNL1        0.1496
     35 H          -3.3493   -1.0302    0.6613 H       1  UNL1        0.0364
     36 H          -2.0949   -2.3187    0.9212 H       1  UNL1        0.0364
     37 H          -2.6246   -3.1383   -1.4386 H       1  UNL1        0.0382
     38 H          -3.9051   -1.8513   -1.5247 H       1  UNL1        0.0382
     39 H          -5.6733   -4.9110   -0.6288 H       1  UNL1        0.2951
     40 H           1.3324    1.3629    2.3478 H       1  UNL1        0.2208
     41 H           2.7882   -3.3897   -0.2457 H       1  UNL1        0.0654
     42 H           5.0005   -4.3507   -0.4522 H       1  UNL1        0.0619
     43 H           6.9952   -3.0671    0.1104 H       1  UNL1        0.0618
     44 H           6.7593   -0.7491    0.9041 H       1  UNL1        0.0619
     45 H           4.4805    0.2819    1.1311 H       1  UNL1        0.0654
@<TRIPOS>BOND
     1     1     2    1
     2     2     3    1
     3     3     4    1
     4     4     5    1
     5     1     6    1
     6     6     7   am
     7     7     8    2
     8     7     9    1
     9     9    10    1
    10    10    11    1
    11    11    12    1
    12    11    13    2
    13     1    14    1
    14    14    15    1
    15    14    16    2
    16    14    17    1
    17    17    18    1
    18    18    19   ar
    19    19    20   ar
    20    20    21   ar
    21    21    22   ar
    22    22    23   ar
    23    23    18   ar
    24     1    24    1
    25     2    25    1
    26     2    26    1
    27     3    27    1
    28     3    28    1
    29     4    29    1
    30     4    30    1
    31     5    31    1
    32     5    32    1
    33     5    33    1
    34     6    34    1
    35     9    35    1
    36     9    36    1
    37    10    37    1
    38    10    38    1
    39    12    39    1
    40    15    40    1
    41    19    41    1
    42    20    42    1
    43    21    43    1
    44    22    44    1
    45    23    45    1
