
     RDKit          3D

 57 56  0  0  0  0  0  0  0  0999 V2000
   -5.9754    1.2738   -4.0592 C   0  0  0  0  0  0  0  0  0  0  0  0
   -6.2954    0.8110   -2.6558 C   0  0  0  0  0  0  0  0  0  0  0  0
   -5.7260    1.8315   -1.6917 C   0  0  0  0  0  0  0  0  0  0  0  0
   -5.9931    1.4542   -0.2565 C   0  0  0  0  0  0  0  0  0  0  0  0
   -5.3920    0.1289    0.1156 C   0  0  0  0  0  0  0  0  0  0  0  0
   -3.8814    0.0900   -0.0558 C   0  0  0  0  0  0  0  0  0  0  0  0
   -3.1927    1.1115    0.7927 C   0  0  0  0  0  0  0  0  0  0  0  0
   -1.7111    1.0381    0.5530 C   0  0  0  0  0  0  0  0  0  0  0  0
   -1.2098   -0.3133    0.9201 C   0  0  0  0  0  0  0  0  0  0  0  0
    0.2850   -0.4629    0.7240 C   0  0  0  0  0  0  0  0  0  0  0  0
    1.0510    0.5240    1.5795 C   0  0  0  0  0  0  0  0  0  0  0  0
    2.4813    0.3181    1.3394 C   0  0  0  0  0  0  0  0  0  0  0  0
    2.5137   -0.5993    0.5157 O   0  0  0  0  0  0  0  0  0  0  0  0
    3.6287    0.9328    1.8460 N   0  0  0  0  0  0  0  0  0  0  0  0
    5.0292    0.8948    1.7691 C   0  0  0  0  0  0  0  0  0  0  0  0
    5.6638   -0.3571    2.2301 C   0  0  0  0  0  0  0  0  0  0  0  0
    5.3469   -1.6231    1.5251 C   0  0  0  0  0  0  0  0  0  0  0  0
    5.6710   -1.6888    0.1373 N   0  0  0  0  0  4  0  0  0  0  0  0
    4.9900   -2.8542   -0.4110 C   0  0  0  0  0  0  0  0  0  0  0  0
    7.1175   -1.8656    0.0386 C   0  0  0  0  0  0  0  0  0  0  0  0
    5.3449   -0.6422   -0.6103 O   0  0  0  0  0  1  0  0  0  0  0  0
   -6.1569    2.3564   -4.1358 H   0  0  0  0  0  0  0  0  0  0  0  0
   -4.9410    0.9795   -4.3397 H   0  0  0  0  0  0  0  0  0  0  0  0
   -6.6327    0.7866   -4.8202 H   0  0  0  0  0  0  0  0  0  0  0  0
   -7.4123    0.8752   -2.5614 H   0  0  0  0  0  0  0  0  0  0  0  0
   -5.9130   -0.1910   -2.4375 H   0  0  0  0  0  0  0  0  0  0  0  0
   -6.2772    2.7739   -1.8909 H   0  0  0  0  0  0  0  0  0  0  0  0
   -4.6718    1.9522   -1.9489 H   0  0  0  0  0  0  0  0  0  0  0  0
   -7.0822    1.3521   -0.1478 H   0  0  0  0  0  0  0  0  0  0  0  0
   -5.6126    2.2322    0.3999 H   0  0  0  0  0  0  0  0  0  0  0  0
   -5.7994   -0.7167   -0.4699 H   0  0  0  0  0  0  0  0  0  0  0  0
   -5.6625   -0.0629    1.1719 H   0  0  0  0  0  0  0  0  0  0  0  0
   -3.5999   -0.9532    0.1916 H   0  0  0  0  0  0  0  0  0  0  0  0
   -3.7015    0.2236   -1.1414 H   0  0  0  0  0  0  0  0  0  0  0  0
   -3.3308    0.7795    1.8654 H   0  0  0  0  0  0  0  0  0  0  0  0
   -3.5981    2.1344    0.6507 H   0  0  0  0  0  0  0  0  0  0  0  0
   -1.5610    1.1332   -0.5666 H   0  0  0  0  0  0  0  0  0  0  0  0
   -1.1607    1.8660    1.0421 H   0  0  0  0  0  0  0  0  0  0  0  0
   -1.6575   -1.1166    0.2781 H   0  0  0  0  0  0  0  0  0  0  0  0
   -1.4359   -0.6254    1.9603 H   0  0  0  0  0  0  0  0  0  0  0  0
    0.5849   -0.2901   -0.3322 H   0  0  0  0  0  0  0  0  0  0  0  0
    0.5557   -1.4778    1.0812 H   0  0  0  0  0  0  0  0  0  0  0  0
    0.7836    1.5689    1.4332 H   0  0  0  0  0  0  0  0  0  0  0  0
    0.8810    0.2752    2.6700 H   0  0  0  0  0  0  0  0  0  0  0  0
    3.1968    1.6668    2.5070 H   0  0  0  0  0  0  0  0  0  0  0  0
    5.4192    1.7189    2.4459 H   0  0  0  0  0  0  0  0  0  0  0  0
    5.3917    1.2070    0.7458 H   0  0  0  0  0  0  0  0  0  0  0  0
    6.7846   -0.2581    2.3217 H   0  0  0  0  0  0  0  0  0  0  0  0
    5.3726   -0.5389    3.3222 H   0  0  0  0  0  0  0  0  0  0  0  0
    4.3252   -2.0141    1.7597 H   0  0  0  0  0  0  0  0  0  0  0  0
    6.0445   -2.4088    2.0146 H   0  0  0  0  0  0  0  0  0  0  0  0
    5.4455   -3.7976   -0.0305 H   0  0  0  0  0  0  0  0  0  0  0  0
    3.9385   -2.8498   -0.0986 H   0  0  0  0  0  0  0  0  0  0  0  0
    5.1541   -2.8653   -1.5054 H   0  0  0  0  0  0  0  0  0  0  0  0
    7.6635   -1.3709    0.8653 H   0  0  0  0  0  0  0  0  0  0  0  0
    7.5087   -1.4115   -0.9049 H   0  0  0  0  0  0  0  0  0  0  0  0
    7.4110   -2.9351    0.0830 H   0  0  0  0  0  0  0  0  0  0  0  0
  1  2  1  0
  2  3  1  0
  3  4  1  0
  4  5  1  0
  5  6  1  0
  6  7  1  0
  7  8  1  0
  8  9  1  0
  9 10  1  0
 10 11  1  0
 11 12  1  0
 12 13  2  0
 12 14  1  0
 14 15  1  0
 15 16  1  0
 16 17  1  0
 17 18  1  0
 18 19  1  0
 18 20  1  0
 18 21  1  0
  1 22  1  0
  1 23  1  0
  1 24  1  0
  2 25  1  0
  2 26  1  0
  3 27  1  0
  3 28  1  0
  4 29  1  0
  4 30  1  0
  5 31  1  0
  5 32  1  0
  6 33  1  0
  6 34  1  0
  7 35  1  0
  7 36  1  0
  8 37  1  0
  8 38  1  0
  9 39  1  0
  9 40  1  0
 10 41  1  0
 10 42  1  0
 11 43  1  0
 11 44  1  0
 14 45  1  0
 15 46  1  0
 15 47  1  0
 16 48  1  0
 16 49  1  0
 17 50  1  0
 17 51  1  0
 19 52  1  0
 19 53  1  0
 19 54  1  0
 20 55  1  0
 20 56  1  0
 20 57  1  0
M  CHG  2  18   1  21  -1
M  END
$$$$
