@<TRIPOS>MOLECULE
*****
 44 46 0 0 0
SMALL
GASTEIGER

@<TRIPOS>ATOM
      1 C           1.2805    0.5175    2.3164 C.3     1  UNL1        0.0163
      2 N          -0.0269    0.4808    1.6592 N.ar    1  UNL1       -0.2993
      3 C          -0.3032   -0.3441    0.6609 C.ar    1  UNL1        0.1230
      4 C           0.6098   -1.3045    0.0476 C.3     1  UNL1        0.0826
      5 C           2.0143   -1.0061   -0.0300 C.2     1  UNL1        0.2245
      6 O           2.8127   -1.9934    0.1842 O.2     1  UNL1       -0.2750
      7 N           2.6728    0.2169   -0.3082 N.am    1  UNL1       -0.2851
      8 C           4.1004    0.2285   -0.3388 C.ar    1  UNL1        0.0349
      9 C           4.8533    0.5096   -1.4405 C.ar    1  UNL1       -0.0377
     10 C           6.2316    0.4498   -1.4681 C.ar    1  UNL1       -0.0232
     11 C           6.9194    0.0877   -0.3299 C.ar    1  UNL1        0.1417
     12 F           8.2637    0.0499   -0.3442 F       1  UNL1       -0.2040
     13 C           6.1927   -0.2086    0.8106 C.ar    1  UNL1        0.0778
     14 CL          7.0592   -0.7144    2.2446 Cl      1  UNL1       -0.0805
     15 C           4.8148   -0.1389    0.8096 C.ar    1  UNL1       -0.0193
     16 N          -1.5742   -0.3346    0.1361 N.ar    1  UNL1       -0.2184
     17 C          -2.5621    0.4459    0.5534 C.ar    1  UNL1        0.1285
     18 N          -3.8831    0.3225    0.0347 N.pl3   1  UNL1       -0.3106
     19 C          -4.5479    1.1055   -0.9477 C.3     1  UNL1        0.0370
     20 C          -5.3874    0.2260   -1.8827 C.3     1  UNL1        0.0634
     21 O          -6.0410   -0.8090   -1.2409 O.3     1  UNL1       -0.3767
     22 C          -5.1119   -1.6397   -0.5773 C.3     1  UNL1        0.0634
     23 C          -4.6624   -0.7969    0.6225 C.3     1  UNL1        0.0370
     24 C          -2.2844    1.3111    1.5863 C.ar    1  UNL1        0.0429
     25 C          -1.0077    1.2935    2.1088 C.ar    1  UNL1        0.2556
     26 O          -0.7054    2.0640    3.0564 O.2     1  UNL1       -0.2675
     27 H           1.1271    0.6857    3.4401 H       1  UNL1        0.0457
     28 H           1.8825    1.4141    2.0300 H       1  UNL1        0.0457
     29 H           1.8153   -0.4323    2.2674 H       1  UNL1        0.0457
     30 H           0.2425   -1.5749   -0.9696 H       1  UNL1        0.0438
     31 H           0.4289   -2.2714    0.6506 H       1  UNL1        0.0438
     32 H           2.0958    1.0572   -0.4771 H       1  UNL1        0.1548
     33 H           4.3737    0.8005   -2.3494 H       1  UNL1        0.0637
     34 H           6.7650    0.6802   -2.3765 H       1  UNL1        0.0647
     35 H           4.3061   -0.3863    1.7492 H       1  UNL1        0.0652
     36 H          -3.9175    1.7253   -1.5874 H       1  UNL1        0.0487
     37 H          -5.3091    1.7917   -0.4608 H       1  UNL1        0.0487
     38 H          -4.7271   -0.1435   -2.6946 H       1  UNL1        0.0575
     39 H          -6.2177    0.8802   -2.2888 H       1  UNL1        0.0575
     40 H          -4.2746   -1.8928   -1.2371 H       1  UNL1        0.0575
     41 H          -5.6032   -2.5547   -0.2500 H       1  UNL1        0.0575
     42 H          -4.0872   -1.3994    1.3245 H       1  UNL1        0.0487
     43 H          -5.5780   -0.3797    1.0602 H       1  UNL1        0.0487
     44 H          -3.0500    1.9807    1.9599 H       1  UNL1        0.0706
@<TRIPOS>BOND
     1     1     2    1
     2     2     3   ar
     3     3     4    1
     4     4     5    1
     5     5     6    2
     6     5     7   am
     7     7     8    1
     8     8     9   ar
     9     9    10   ar
    10    10    11   ar
    11    11    12    1
    12    11    13   ar
    13    13    14    1
    14    13    15   ar
    15     3    16   ar
    16    16    17   ar
    17    17    18    1
    18    18    19    1
    19    19    20    1
    20    20    21    1
    21    21    22    1
    22    22    23    1
    23    17    24   ar
    24    24    25   ar
    25    25    26    2
    26    25     2   ar
    27    15     8   ar
    28    23    18    1
    29     1    27    1
    30     1    28    1
    31     1    29    1
    32     4    30    1
    33     4    31    1
    34     7    32    1
    35     9    33    1
    36    10    34    1
    37    15    35    1
    38    19    36    1
    39    19    37    1
    40    20    38    1
    41    20    39    1
    42    22    40    1
    43    22    41    1
    44    23    42    1
    45    23    43    1
    46    24    44    1
