
     RDKit          3D

 44 46  0  0  0  0  0  0  0  0999 V2000
    1.2805    0.5175    2.3164 C   0  0  0  0  0  0  0  0  0  0  0  0
   -0.0269    0.4808    1.6592 N   0  0  0  0  0  0  0  0  0  0  0  0
   -0.3032   -0.3441    0.6609 C   0  0  0  0  0  0  0  0  0  0  0  0
    0.6098   -1.3045    0.0476 C   0  0  0  0  0  0  0  0  0  0  0  0
    2.0143   -1.0061   -0.0300 C   0  0  0  0  0  0  0  0  0  0  0  0
    2.8127   -1.9934    0.1842 O   0  0  0  0  0  0  0  0  0  0  0  0
    2.6728    0.2169   -0.3082 N   0  0  0  0  0  0  0  0  0  0  0  0
    4.1004    0.2285   -0.3388 C   0  0  0  0  0  0  0  0  0  0  0  0
    4.8533    0.5096   -1.4405 C   0  0  0  0  0  0  0  0  0  0  0  0
    6.2316    0.4498   -1.4681 C   0  0  0  0  0  0  0  0  0  0  0  0
    6.9194    0.0877   -0.3299 C   0  0  0  0  0  0  0  0  0  0  0  0
    8.2637    0.0499   -0.3442 F   0  0  0  0  0  0  0  0  0  0  0  0
    6.1927   -0.2086    0.8106 C   0  0  0  0  0  0  0  0  0  0  0  0
    7.0592   -0.7144    2.2446 Cl  0  0  0  0  0  0  0  0  0  0  0  0
    4.8148   -0.1389    0.8096 C   0  0  0  0  0  0  0  0  0  0  0  0
   -1.5742   -0.3346    0.1361 N   0  0  0  0  0  0  0  0  0  0  0  0
   -2.5621    0.4459    0.5534 C   0  0  0  0  0  0  0  0  0  0  0  0
   -3.8831    0.3225    0.0347 N   0  0  0  0  0  0  0  0  0  0  0  0
   -4.5479    1.1055   -0.9477 C   0  0  0  0  0  0  0  0  0  0  0  0
   -5.3874    0.2260   -1.8827 C   0  0  0  0  0  0  0  0  0  0  0  0
   -6.0410   -0.8090   -1.2409 O   0  0  0  0  0  0  0  0  0  0  0  0
   -5.1119   -1.6397   -0.5773 C   0  0  0  0  0  0  0  0  0  0  0  0
   -4.6624   -0.7969    0.6225 C   0  0  0  0  0  0  0  0  0  0  0  0
   -2.2844    1.3111    1.5863 C   0  0  0  0  0  0  0  0  0  0  0  0
   -1.0077    1.2935    2.1088 C   0  0  0  0  0  0  0  0  0  0  0  0
   -0.7054    2.0640    3.0564 O   0  0  0  0  0  0  0  0  0  0  0  0
    1.1271    0.6857    3.4401 H   0  0  0  0  0  0  0  0  0  0  0  0
    1.8825    1.4141    2.0300 H   0  0  0  0  0  0  0  0  0  0  0  0
    1.8153   -0.4323    2.2674 H   0  0  0  0  0  0  0  0  0  0  0  0
    0.2425   -1.5749   -0.9696 H   0  0  0  0  0  0  0  0  0  0  0  0
    0.4289   -2.2714    0.6506 H   0  0  0  0  0  0  0  0  0  0  0  0
    2.0958    1.0572   -0.4771 H   0  0  0  0  0  0  0  0  0  0  0  0
    4.3737    0.8005   -2.3494 H   0  0  0  0  0  0  0  0  0  0  0  0
    6.7650    0.6802   -2.3765 H   0  0  0  0  0  0  0  0  0  0  0  0
    4.3061   -0.3863    1.7492 H   0  0  0  0  0  0  0  0  0  0  0  0
   -3.9175    1.7253   -1.5874 H   0  0  0  0  0  0  0  0  0  0  0  0
   -5.3091    1.7917   -0.4608 H   0  0  0  0  0  0  0  0  0  0  0  0
   -4.7271   -0.1435   -2.6946 H   0  0  0  0  0  0  0  0  0  0  0  0
   -6.2177    0.8802   -2.2888 H   0  0  0  0  0  0  0  0  0  0  0  0
   -4.2746   -1.8928   -1.2371 H   0  0  0  0  0  0  0  0  0  0  0  0
   -5.6032   -2.5547   -0.2500 H   0  0  0  0  0  0  0  0  0  0  0  0
   -4.0872   -1.3994    1.3245 H   0  0  0  0  0  0  0  0  0  0  0  0
   -5.5780   -0.3797    1.0602 H   0  0  0  0  0  0  0  0  0  0  0  0
   -3.0500    1.9807    1.9599 H   0  0  0  0  0  0  0  0  0  0  0  0
  1  2  1  0
  2  3  1  0
  3  4  1  0
  4  5  1  0
  5  6  2  0
  5  7  1  0
  7  8  1  0
  8  9  2  0
  9 10  1  0
 10 11  2  0
 11 12  1  0
 11 13  1  0
 13 14  1  0
 13 15  2  0
  3 16  2  0
 16 17  1  0
 17 18  1  0
 18 19  1  0
 19 20  1  0
 20 21  1  0
 21 22  1  0
 22 23  1  0
 17 24  2  0
 24 25  1  0
 25 26  2  0
 25  2  1  0
 15  8  1  0
 23 18  1  0
  1 27  1  0
  1 28  1  0
  1 29  1  0
  4 30  1  0
  4 31  1  0
  7 32  1  0
  9 33  1  0
 10 34  1  0
 15 35  1  0
 19 36  1  0
 19 37  1  0
 20 38  1  0
 20 39  1  0
 22 40  1  0
 22 41  1  0
 23 42  1  0
 23 43  1  0
 24 44  1  0
M  END
$$$$
