@<TRIPOS>MOLECULE
*****
 48 52 0 0 0
SMALL
GASTEIGER

@<TRIPOS>ATOM
      1 N           5.6954   -1.0296   -1.4768 N.am    1  UNL1       -0.3240
      2 C           4.3536   -0.7333   -1.1838 C.2     1  UNL1        0.2615
      3 O           3.4716   -0.9012   -2.0770 O.2     1  UNL1       -0.2687
      4 C           3.9505   -0.2373    0.1210 C.ar    1  UNL1        0.1470
      5 C           4.8127    0.0023    1.1727 C.ar    1  UNL1        0.0605
      6 N           4.0550    0.4420    2.1911 N.ar    1  UNL1       -0.2339
      7 C           2.7683    0.4911    1.8369 C.ar    1  UNL1        0.1549
      8 C           1.6172    0.8701    2.5291 C.ar    1  UNL1       -0.0153
      9 C           0.4301    0.7841    1.8155 C.ar    1  UNL1       -0.0290
     10 C           0.3661    0.3542    0.5039 C.ar    1  UNL1        0.1103
     11 C          -0.9059    0.2961   -0.1530 C.ar    1  UNL1        0.0969
     12 C          -1.8127    1.2816   -0.4299 C.ar    1  UNL1        0.0982
     13 C          -1.7010    2.6803   -0.1031 C.ar    1  UNL1        0.0027
     14 C          -1.2075    3.5562   -1.0375 C.ar    1  UNL1       -0.0498
     15 C          -1.1015    4.9204   -0.7283 C.ar    1  UNL1       -0.0258
     16 C          -1.4880    5.3835    0.5021 C.ar    1  UNL1        0.1234
     17 F          -1.3941    6.7130    0.8284 F       1  UNL1       -0.2055
     18 C          -1.9814    4.5069    1.4360 C.ar    1  UNL1       -0.0258
     19 C          -2.0788    3.1716    1.1165 C.ar    1  UNL1       -0.0498
     20 N          -2.8882    0.7652   -1.0748 N.ar    1  UNL1       -0.2351
     21 C          -2.6617   -0.5486   -1.2058 C.ar    1  UNL1        0.0974
     22 N          -1.4699   -0.8417   -0.6538 N.ar    1  UNL1       -0.3251
     23 C          -0.9255   -2.1803   -0.6278 C.3     1  UNL1        0.0416
     24 C          -1.4970   -3.0007   -1.7787 C.3     1  UNL1       -0.0265
     25 C          -2.4173   -4.0125   -1.1907 C.3     1  UNL1        0.0127
     26 C          -2.4792   -3.7787    0.2986 C.3     1  UNL1        0.2509
     27 F          -3.6895   -3.1443    0.6039 F       1  UNL1       -0.2056
     28 F          -2.4938   -4.9729    1.0090 F       1  UNL1       -0.2056
     29 C          -1.2927   -2.9239    0.6282 C.3     1  UNL1        0.0316
     30 N           1.5419    0.0059   -0.0857 N.ar    1  UNL1       -0.1628
     31 N           2.7048    0.0704    0.5546 N.ar    1  UNL1       -0.2076
     32 H           5.9587   -1.5168   -2.3737 H       1  UNL1        0.1453
     33 H           6.4781   -0.7888   -0.8379 H       1  UNL1        0.1453
     34 H           5.8854   -0.1284    1.1977 H       1  UNL1        0.0854
     35 H           1.6753    1.2045    3.5523 H       1  UNL1        0.0655
     36 H          -0.4996    1.0624    2.2966 H       1  UNL1        0.0641
     37 H          -0.8783    3.2817   -2.0322 H       1  UNL1        0.0625
     38 H          -0.7142    5.6252   -1.4537 H       1  UNL1        0.0646
     39 H          -2.2934    4.8800    2.4256 H       1  UNL1        0.0646
     40 H          -2.4666    2.4976    1.8583 H       1  UNL1        0.0625
     41 H          -3.3819   -1.1981   -1.6939 H       1  UNL1        0.1029
     42 H           0.1643   -2.2066   -0.7300 H       1  UNL1        0.0530
     43 H          -0.6818   -3.5642   -2.3144 H       1  UNL1        0.0287
     44 H          -1.9483   -2.3569   -2.5491 H       1  UNL1        0.0287
     45 H          -2.1157   -5.0617   -1.4410 H       1  UNL1        0.0323
     46 H          -3.4237   -3.8792   -1.6229 H       1  UNL1        0.0323
     47 H          -1.5824   -2.2356    1.4551 H       1  UNL1        0.0343
     48 H          -0.4578   -3.6048    0.9223 H       1  UNL1        0.0343
@<TRIPOS>BOND
     1     1     2   am
     2     2     3    2
     3     2     4    1
     4     4     5   ar
     5     5     6   ar
     6     6     7   ar
     7     7     8   ar
     8     8     9   ar
     9     9    10   ar
    10    10    11    1
    11    11    12   ar
    12    12    13    1
    13    13    14   ar
    14    14    15   ar
    15    15    16   ar
    16    16    17    1
    17    16    18   ar
    18    18    19   ar
    19    12    20   ar
    20    20    21   ar
    21    21    22   ar
    22    22    23    1
    23    23    24    1
    24    24    25    1
    25    25    26    1
    26    26    27    1
    27    26    28    1
    28    26    29    1
    29    10    30   ar
    30    30    31   ar
    31    31     4   ar
    32    31     7   ar
    33    22    11   ar
    34    29    23    1
    35    19    13   ar
    36     1    32    1
    37     1    33    1
    38     5    34    1
    39     8    35    1
    40     9    36    1
    41    14    37    1
    42    15    38    1
    43    18    39    1
    44    19    40    1
    45    21    41    1
    46    23    42    1
    47    24    43    1
    48    24    44    1
    49    25    45    1
    50    25    46    1
    51    29    47    1
    52    29    48    1
