
     RDKit          3D

 48 52  0  0  0  0  0  0  0  0999 V2000
    5.6954   -1.0296   -1.4768 N   0  0  0  0  0  0  0  0  0  0  0  0
    4.3536   -0.7333   -1.1838 C   0  0  0  0  0  0  0  0  0  0  0  0
    3.4716   -0.9012   -2.0770 O   0  0  0  0  0  0  0  0  0  0  0  0
    3.9505   -0.2373    0.1210 C   0  0  0  0  0  0  0  0  0  0  0  0
    4.8127    0.0023    1.1727 C   0  0  0  0  0  0  0  0  0  0  0  0
    4.0550    0.4420    2.1911 N   0  0  0  0  0  0  0  0  0  0  0  0
    2.7683    0.4911    1.8369 C   0  0  0  0  0  0  0  0  0  0  0  0
    1.6172    0.8701    2.5291 C   0  0  0  0  0  0  0  0  0  0  0  0
    0.4301    0.7841    1.8155 C   0  0  0  0  0  0  0  0  0  0  0  0
    0.3661    0.3542    0.5039 C   0  0  0  0  0  0  0  0  0  0  0  0
   -0.9059    0.2961   -0.1530 C   0  0  0  0  0  0  0  0  0  0  0  0
   -1.8127    1.2816   -0.4299 C   0  0  0  0  0  0  0  0  0  0  0  0
   -1.7010    2.6803   -0.1031 C   0  0  0  0  0  0  0  0  0  0  0  0
   -1.2075    3.5562   -1.0375 C   0  0  0  0  0  0  0  0  0  0  0  0
   -1.1015    4.9204   -0.7283 C   0  0  0  0  0  0  0  0  0  0  0  0
   -1.4880    5.3835    0.5021 C   0  0  0  0  0  0  0  0  0  0  0  0
   -1.3941    6.7130    0.8284 F   0  0  0  0  0  0  0  0  0  0  0  0
   -1.9814    4.5069    1.4360 C   0  0  0  0  0  0  0  0  0  0  0  0
   -2.0788    3.1716    1.1165 C   0  0  0  0  0  0  0  0  0  0  0  0
   -2.8882    0.7652   -1.0748 N   0  0  0  0  0  0  0  0  0  0  0  0
   -2.6617   -0.5486   -1.2058 C   0  0  0  0  0  0  0  0  0  0  0  0
   -1.4699   -0.8417   -0.6538 N   0  0  0  0  0  0  0  0  0  0  0  0
   -0.9255   -2.1803   -0.6278 C   0  0  0  0  0  0  0  0  0  0  0  0
   -1.4970   -3.0007   -1.7787 C   0  0  0  0  0  0  0  0  0  0  0  0
   -2.4173   -4.0125   -1.1907 C   0  0  0  0  0  0  0  0  0  0  0  0
   -2.4792   -3.7787    0.2986 C   0  0  0  0  0  0  0  0  0  0  0  0
   -3.6895   -3.1443    0.6039 F   0  0  0  0  0  0  0  0  0  0  0  0
   -2.4938   -4.9729    1.0090 F   0  0  0  0  0  0  0  0  0  0  0  0
   -1.2927   -2.9239    0.6282 C   0  0  0  0  0  0  0  0  0  0  0  0
    1.5419    0.0059   -0.0857 N   0  0  0  0  0  0  0  0  0  0  0  0
    2.7048    0.0704    0.5546 N   0  0  0  0  0  0  0  0  0  0  0  0
    5.9587   -1.5168   -2.3737 H   0  0  0  0  0  0  0  0  0  0  0  0
    6.4781   -0.7888   -0.8379 H   0  0  0  0  0  0  0  0  0  0  0  0
    5.8854   -0.1284    1.1977 H   0  0  0  0  0  0  0  0  0  0  0  0
    1.6753    1.2045    3.5523 H   0  0  0  0  0  0  0  0  0  0  0  0
   -0.4996    1.0624    2.2966 H   0  0  0  0  0  0  0  0  0  0  0  0
   -0.8783    3.2817   -2.0322 H   0  0  0  0  0  0  0  0  0  0  0  0
   -0.7142    5.6252   -1.4537 H   0  0  0  0  0  0  0  0  0  0  0  0
   -2.2934    4.8800    2.4256 H   0  0  0  0  0  0  0  0  0  0  0  0
   -2.4666    2.4976    1.8583 H   0  0  0  0  0  0  0  0  0  0  0  0
   -3.3819   -1.1981   -1.6939 H   0  0  0  0  0  0  0  0  0  0  0  0
    0.1643   -2.2066   -0.7300 H   0  0  0  0  0  0  0  0  0  0  0  0
   -0.6818   -3.5642   -2.3144 H   0  0  0  0  0  0  0  0  0  0  0  0
   -1.9483   -2.3569   -2.5491 H   0  0  0  0  0  0  0  0  0  0  0  0
   -2.1157   -5.0617   -1.4410 H   0  0  0  0  0  0  0  0  0  0  0  0
   -3.4237   -3.8792   -1.6229 H   0  0  0  0  0  0  0  0  0  0  0  0
   -1.5824   -2.2356    1.4551 H   0  0  0  0  0  0  0  0  0  0  0  0
   -0.4578   -3.6048    0.9223 H   0  0  0  0  0  0  0  0  0  0  0  0
  1  2  1  0
  2  3  2  0
  2  4  1  0
  4  5  2  0
  5  6  1  0
  6  7  2  0
  7  8  1  0
  8  9  2  0
  9 10  1  0
 10 11  1  0
 11 12  2  0
 12 13  1  0
 13 14  2  0
 14 15  1  0
 15 16  2  0
 16 17  1  0
 16 18  1  0
 18 19  2  0
 12 20  1  0
 20 21  2  0
 21 22  1  0
 22 23  1  0
 23 24  1  0
 24 25  1  0
 25 26  1  0
 26 27  1  0
 26 28  1  0
 26 29  1  0
 10 30  2  0
 30 31  1  0
 31  4  1  0
 31  7  1  0
 22 11  1  0
 29 23  1  0
 19 13  1  0
  1 32  1  0
  1 33  1  0
  5 34  1  0
  8 35  1  0
  9 36  1  0
 14 37  1  0
 15 38  1  0
 18 39  1  0
 19 40  1  0
 21 41  1  0
 23 42  1  0
 24 43  1  0
 24 44  1  0
 25 45  1  0
 25 46  1  0
 29 47  1  0
 29 48  1  0
M  END
$$$$
