
     RDKit          3D

 69 72  0  0  0  0  0  0  0  0999 V2000
    0.9095    2.1286   -0.5780 C   0  0  0  0  0  0  0  0  0  0  0  0
   -0.0211    1.9007   -1.7037 C   0  0  0  0  0  0  0  0  0  0  0  0
   -0.6381    0.5466   -1.7453 C   0  0  0  0  0  0  0  0  0  0  0  0
   -1.4345    0.1454   -0.5633 C   0  0  0  0  0  0  0  0  0  0  0  0
   -2.7992    0.4614   -0.5870 C   0  0  0  0  0  0  0  0  0  0  0  0
   -3.6098    0.1461    0.4650 C   0  0  0  0  0  0  0  0  0  0  0  0
   -5.0520    0.5158    0.3644 C   0  0  0  0  0  0  0  0  0  0  0  0
   -5.8972   -0.5632   -0.2222 C   0  0  0  0  0  0  0  0  0  0  0  0
   -5.5351   -0.9893   -1.6050 C   0  0  0  0  0  0  0  0  0  0  0  0
   -6.2028   -2.3224   -1.8856 C   0  0  0  0  0  0  0  0  0  0  0  0
   -7.5062   -2.3524   -1.1196 C   0  0  0  0  0  0  0  0  0  0  0  0
   -8.1539   -0.9906   -1.0527 C   0  0  0  0  0  0  0  0  0  0  0  0
   -7.3251    0.0004   -0.2830 C   0  0  0  0  0  0  0  0  0  0  0  0
   -3.0799   -0.4845    1.5498 C   0  0  0  0  0  0  0  0  0  0  0  0
   -1.7436   -0.8007    1.5857 C   0  0  0  0  0  0  0  0  0  0  0  0
   -0.8739   -0.5044    0.5472 C   0  0  0  0  0  0  0  0  0  0  0  0
    0.4326   -0.7938    0.5321 O   0  0  0  0  0  0  0  0  0  0  0  0
    1.3834   -1.3763    1.2770 C   0  0  0  0  0  0  0  0  0  0  0  0
    1.6626   -0.7853    2.6182 C   0  0  0  0  0  0  0  0  0  0  0  0
    2.1216    0.6591    2.5539 C   0  0  0  0  0  0  0  0  0  0  0  0
    3.2496    0.7843    1.8042 O   0  0  0  0  0  0  0  0  0  0  0  0
    4.5220    0.3626    1.8534 C   0  0  0  0  0  0  0  0  0  0  0  0
    5.0385   -0.3996    2.8614 C   0  0  0  0  0  0  0  0  0  0  0  0
    6.3667   -0.7964    2.8332 C   0  0  0  0  0  0  0  0  0  0  0  0
    7.1548   -0.4150    1.7835 C   0  0  0  0  0  0  0  0  0  0  0  0
    6.6660    0.3571    0.7455 C   0  0  0  0  0  0  0  0  0  0  0  0
    7.5959    0.7218   -0.3505 C   0  0  0  0  0  0  0  0  0  0  0  0
    9.2824    0.2443   -0.4129 S   0  0  0  0  0  0  0  0  0  0  0  0
    9.6420    1.0633   -1.9887 C   0  0  0  0  0  0  0  0  0  0  0  0
   10.7702    1.0753   -2.5926 O   0  0  0  0  0  0  0  0  0  0  0  0
    8.4413    1.6104   -2.2959 N   0  0  0  0  0  0  0  0  0  0  0  0
    7.4440    1.4289   -1.4719 C   0  0  0  0  0  0  0  0  0  0  0  0
    6.1492    1.9965   -1.7652 O   0  0  0  0  0  0  0  0  0  0  0  0
    5.3587    0.7416    0.7832 C   0  0  0  0  0  0  0  0  0  0  0  0
    0.3247    2.2558    0.3578 H   0  0  0  0  0  0  0  0  0  0  0  0
    1.4622    3.0988   -0.7199 H   0  0  0  0  0  0  0  0  0  0  0  0
    1.6504    1.3545   -0.4426 H   0  0  0  0  0  0  0  0  0  0  0  0
    0.5583    2.0265   -2.6676 H   0  0  0  0  0  0  0  0  0  0  0  0
   -0.8575    2.6534   -1.6795 H   0  0  0  0  0  0  0  0  0  0  0  0
   -1.2208    0.3757   -2.6870 H   0  0  0  0  0  0  0  0  0  0  0  0
    0.2300   -0.1817   -1.8254 H   0  0  0  0  0  0  0  0  0  0  0  0
   -3.2052    0.9749   -1.4739 H   0  0  0  0  0  0  0  0  0  0  0  0
   -5.4832    0.7961    1.3401 H   0  0  0  0  0  0  0  0  0  0  0  0
   -5.1800    1.4218   -0.2889 H   0  0  0  0  0  0  0  0  0  0  0  0
   -5.9746   -1.4418    0.4748 H   0  0  0  0  0  0  0  0  0  0  0  0
   -4.4433   -1.0323   -1.7973 H   0  0  0  0  0  0  0  0  0  0  0  0
   -5.9407   -0.2170   -2.3130 H   0  0  0  0  0  0  0  0  0  0  0  0
   -5.5305   -3.1238   -1.4766 H   0  0  0  0  0  0  0  0  0  0  0  0
   -6.3743   -2.4747   -2.9698 H   0  0  0  0  0  0  0  0  0  0  0  0
   -7.4022   -2.7744   -0.0997 H   0  0  0  0  0  0  0  0  0  0  0  0
   -8.2079   -3.0113   -1.6817 H   0  0  0  0  0  0  0  0  0  0  0  0
   -9.1274   -1.1146   -0.5348 H   0  0  0  0  0  0  0  0  0  0  0  0
   -8.3675   -0.6145   -2.0710 H   0  0  0  0  0  0  0  0  0  0  0  0
   -7.2510    0.9520   -0.8302 H   0  0  0  0  0  0  0  0  0  0  0  0
   -7.7022    0.1637    0.7559 H   0  0  0  0  0  0  0  0  0  0  0  0
   -3.7510   -0.7209    2.3688 H   0  0  0  0  0  0  0  0  0  0  0  0
   -1.3390   -1.3180    2.4533 H   0  0  0  0  0  0  0  0  0  0  0  0
    2.3649   -1.3353    0.6656 H   0  0  0  0  0  0  0  0  0  0  0  0
    1.2569   -2.5060    1.3788 H   0  0  0  0  0  0  0  0  0  0  0  0
    0.7310   -0.8411    3.2367 H   0  0  0  0  0  0  0  0  0  0  0  0
    2.4119   -1.4541    3.1214 H   0  0  0  0  0  0  0  0  0  0  0  0
    1.3137    1.3105    2.1646 H   0  0  0  0  0  0  0  0  0  0  0  0
    2.2523    1.0460    3.6176 H   0  0  0  0  0  0  0  0  0  0  0  0
    4.4819   -0.7197    3.7189 H   0  0  0  0  0  0  0  0  0  0  0  0
    6.7588   -1.4132    3.6619 H   0  0  0  0  0  0  0  0  0  0  0  0
    8.1828   -0.7279    1.7704 H   0  0  0  0  0  0  0  0  0  0  0  0
    8.3518    2.1834   -3.2227 H   0  0  0  0  0  0  0  0  0  0  0  0
    5.7805    1.7512   -2.6755 H   0  0  0  0  0  0  0  0  0  0  0  0
    4.9278    1.3419    0.0035 H   0  0  0  0  0  0  0  0  0  0  0  0
  1  2  1  0
  2  3  1  0
  3  4  1  0
  4  5  2  0
  5  6  1  0
  6  7  1  0
  7  8  1  0
  8  9  1  0
  9 10  1  0
 10 11  1  0
 11 12  1  0
 12 13  1  0
  6 14  2  0
 14 15  1  0
 15 16  2  0
 16 17  1  0
 17 18  1  0
 18 19  1  0
 19 20  1  0
 20 21  1  0
 21 22  1  0
 22 23  2  0
 23 24  1  0
 24 25  2  0
 25 26  1  0
 26 27  1  0
 27 28  1  0
 28 29  1  0
 29 30  2  0
 29 31  1  0
 31 32  1  0
 32 33  1  0
 26 34  2  0
 16  4  1  0
 34 22  1  0
 13  8  1  0
 32 27  2  0
  1 35  1  0
  1 36  1  0
  1 37  1  0
  2 38  1  0
  2 39  1  0
  3 40  1  0
  3 41  1  0
  5 42  1  0
  7 43  1  0
  7 44  1  0
  8 45  1  0
  9 46  1  0
  9 47  1  0
 10 48  1  0
 10 49  1  0
 11 50  1  0
 11 51  1  0
 12 52  1  0
 12 53  1  0
 13 54  1  0
 13 55  1  0
 14 56  1  0
 15 57  1  0
 18 58  1  0
 18 59  1  0
 19 60  1  0
 19 61  1  0
 20 62  1  0
 20 63  1  0
 23 64  1  0
 24 65  1  0
 25 66  1  0
 31 67  1  0
 33 68  1  0
 34 69  1  0
M  END
$$$$
