@<TRIPOS>MOLECULE
*****
 69 72 0 0 0
SMALL
GASTEIGER

@<TRIPOS>ATOM
      1 C           0.9095    2.1286   -0.5780 C.3     1  UNL1       -0.0650
      2 C          -0.0211    1.9007   -1.7037 C.3     1  UNL1       -0.0518
      3 C          -0.6381    0.5466   -1.7453 C.3     1  UNL1       -0.0245
      4 C          -1.4345    0.1454   -0.5633 C.ar    1  UNL1       -0.0055
      5 C          -2.7992    0.4614   -0.5870 C.ar    1  UNL1       -0.0519
      6 C          -3.6098    0.1461    0.4650 C.ar    1  UNL1       -0.0466
      7 C          -5.0520    0.5158    0.3644 C.3     1  UNL1       -0.0248
      8 C          -5.8972   -0.5632   -0.2222 C.3     1  UNL1       -0.0371
      9 C          -5.5351   -0.9893   -1.6050 C.3     1  UNL1       -0.0499
     10 C          -6.2028   -2.3224   -1.8856 C.3     1  UNL1       -0.0528
     11 C          -7.5062   -2.3524   -1.1196 C.3     1  UNL1       -0.0530
     12 C          -8.1539   -0.9906   -1.0527 C.3     1  UNL1       -0.0528
     13 C          -7.3251    0.0004   -0.2830 C.3     1  UNL1       -0.0499
     14 C          -3.0799   -0.4845    1.5498 C.ar    1  UNL1       -0.0551
     15 C          -1.7436   -0.8007    1.5857 C.ar    1  UNL1       -0.0194
     16 C          -0.8739   -0.5044    0.5472 C.ar    1  UNL1        0.1237
     17 O           0.4326   -0.7938    0.5321 O.3     1  UNL1       -0.4916
     18 C           1.3834   -1.3763    1.2770 C.3     1  UNL1        0.0927
     19 C           1.6626   -0.7853    2.6182 C.3     1  UNL1        0.0157
     20 C           2.1216    0.6591    2.5539 C.3     1  UNL1        0.0927
     21 O           3.2496    0.7843    1.8042 O.3     1  UNL1       -0.4918
     22 C           4.5220    0.3626    1.8534 C.ar    1  UNL1        0.1211
     23 C           5.0385   -0.3996    2.8614 C.ar    1  UNL1       -0.0199
     24 C           6.3667   -0.7964    2.8332 C.ar    1  UNL1       -0.0577
     25 C           7.1548   -0.4150    1.7835 C.ar    1  UNL1       -0.0531
     26 C           6.6660    0.3571    0.7455 C.ar    1  UNL1       -0.0026
     27 C           7.5959    0.7218   -0.3505 C.ar    1  UNL1        0.0838
     28 S           9.2824    0.2443   -0.4129 S.2     1  UNL1       -0.0230
     29 C           9.6420    1.0633   -1.9887 C.ar    1  UNL1        0.2913
     30 O          10.7702    1.0753   -2.5926 O.2     1  UNL1       -0.2596
     31 N           8.4413    1.6104   -2.2959 N.ar    1  UNL1       -0.2870
     32 C           7.4440    1.4289   -1.4719 C.ar    1  UNL1        0.2081
     33 O           6.1492    1.9965   -1.7652 O.3     1  UNL1       -0.4928
     34 C           5.3587    0.7416    0.7832 C.ar    1  UNL1       -0.0116
     35 H           0.3247    2.2558    0.3578 H       1  UNL1        0.0230
     36 H           1.4622    3.0988   -0.7199 H       1  UNL1        0.0230
     37 H           1.6504    1.3545   -0.4426 H       1  UNL1        0.0230
     38 H           0.5583    2.0265   -2.6676 H       1  UNL1        0.0266
     39 H          -0.8575    2.6534   -1.6795 H       1  UNL1        0.0266
     40 H          -1.2208    0.3757   -2.6870 H       1  UNL1        0.0314
     41 H           0.2300   -0.1817   -1.8254 H       1  UNL1        0.0314
     42 H          -3.2052    0.9749   -1.4739 H       1  UNL1        0.0624
     43 H          -5.4832    0.7961    1.3401 H       1  UNL1        0.0316
     44 H          -5.1800    1.4218   -0.2889 H       1  UNL1        0.0316
     45 H          -5.9746   -1.4418    0.4748 H       1  UNL1        0.0304
     46 H          -4.4433   -1.0323   -1.7973 H       1  UNL1        0.0268
     47 H          -5.9407   -0.2170   -2.3130 H       1  UNL1        0.0268
     48 H          -5.5305   -3.1238   -1.4766 H       1  UNL1        0.0265
     49 H          -6.3743   -2.4747   -2.9698 H       1  UNL1        0.0265
     50 H          -7.4022   -2.7744   -0.0997 H       1  UNL1        0.0265
     51 H          -8.2079   -3.0113   -1.6817 H       1  UNL1        0.0265
     52 H          -9.1274   -1.1146   -0.5348 H       1  UNL1        0.0265
     53 H          -8.3675   -0.6145   -2.0710 H       1  UNL1        0.0265
     54 H          -7.2510    0.9520   -0.8302 H       1  UNL1        0.0268
     55 H          -7.7022    0.1637    0.7559 H       1  UNL1        0.0268
     56 H          -3.7510   -0.7209    2.3688 H       1  UNL1        0.0621
     57 H          -1.3390   -1.3180    2.4533 H       1  UNL1        0.0654
     58 H           2.3649   -1.3353    0.6656 H       1  UNL1        0.0697
     59 H           1.2569   -2.5060    1.3788 H       1  UNL1        0.0697
     60 H           0.7310   -0.8411    3.2367 H       1  UNL1        0.0331
     61 H           2.4119   -1.4541    3.1214 H       1  UNL1        0.0331
     62 H           1.3137    1.3105    2.1646 H       1  UNL1        0.0697
     63 H           2.2523    1.0460    3.6176 H       1  UNL1        0.0697
     64 H           4.4819   -0.7197    3.7189 H       1  UNL1        0.0654
     65 H           6.7588   -1.4132    3.6619 H       1  UNL1        0.0619
     66 H           8.1828   -0.7279    1.7704 H       1  UNL1        0.0624
     67 H           8.3518    2.1834   -3.2227 H       1  UNL1        0.1723
     68 H           5.7805    1.7512   -2.6755 H       1  UNL1        0.2937
     69 H           4.9278    1.3419    0.0035 H       1  UNL1        0.0660
@<TRIPOS>BOND
     1     1     2    1
     2     2     3    1
     3     3     4    1
     4     4     5   ar
     5     5     6   ar
     6     6     7    1
     7     7     8    1
     8     8     9    1
     9     9    10    1
    10    10    11    1
    11    11    12    1
    12    12    13    1
    13     6    14   ar
    14    14    15   ar
    15    15    16   ar
    16    16    17    1
    17    17    18    1
    18    18    19    1
    19    19    20    1
    20    20    21    1
    21    21    22    1
    22    22    23   ar
    23    23    24   ar
    24    24    25   ar
    25    25    26   ar
    26    26    27    1
    27    27    28   ar
    28    28    29   ar
    29    29    30    2
    30    29    31   ar
    31    31    32   ar
    32    32    33    1
    33    26    34   ar
    34    16     4   ar
    35    34    22   ar
    36    13     8    1
    37    32    27   ar
    38     1    35    1
    39     1    36    1
    40     1    37    1
    41     2    38    1
    42     2    39    1
    43     3    40    1
    44     3    41    1
    45     5    42    1
    46     7    43    1
    47     7    44    1
    48     8    45    1
    49     9    46    1
    50     9    47    1
    51    10    48    1
    52    10    49    1
    53    11    50    1
    54    11    51    1
    55    12    52    1
    56    12    53    1
    57    13    54    1
    58    13    55    1
    59    14    56    1
    60    15    57    1
    61    18    58    1
    62    18    59    1
    63    19    60    1
    64    19    61    1
    65    20    62    1
    66    20    63    1
    67    23    64    1
    68    24    65    1
    69    25    66    1
    70    31    67    1
    71    33    68    1
    72    34    69    1
