@<TRIPOS>MOLECULE
*****
 50 53 0 0 0
SMALL
GASTEIGER

@<TRIPOS>ATOM
      1 C          -3.2447    2.5349    0.6667 C.3     1  UNL1       -0.0062
      2 C          -3.8174    1.2710    0.1852 C.ar    1  UNL1        0.1079
      3 N          -5.0684    1.0481   -0.3011 N.ar    1  UNL1       -0.2326
      4 C          -5.2201   -0.2377   -0.6417 C.ar    1  UNL1        0.0893
      5 C          -6.2912   -0.9225   -1.1693 C.ar    1  UNL1       -0.0342
      6 C          -6.1593   -2.2707   -1.4257 C.ar    1  UNL1       -0.0596
      7 C          -4.9525   -2.8739   -1.1398 C.ar    1  UNL1       -0.0597
      8 C          -3.9007   -2.1832   -0.6177 C.ar    1  UNL1       -0.0360
      9 C          -4.0097   -0.8310   -0.3524 C.ar    1  UNL1        0.0691
     10 N          -3.1448    0.0978    0.1573 N.ar    1  UNL1       -0.3245
     11 C          -1.8132   -0.2143    0.5513 C.3     1  UNL1        0.0385
     12 C          -0.7877   -0.0005   -0.5093 C.3     1  UNL1       -0.0192
     13 C           0.6258   -0.2924   -0.0762 C.3     1  UNL1        0.0012
     14 N           0.9174   -0.0223    1.2834 N.3     1  UNL1       -0.2939
     15 C           1.4373    1.3092    1.4000 C.3     1  UNL1        0.0760
     16 C           2.8142    1.3692    0.8584 C.2     1  UNL1        0.2313
     17 O           3.4111    2.4909    0.7995 O.2     1  UNL1       -0.2741
     18 N           3.4440    0.1864    0.4216 N.am    1  UNL1       -0.2835
     19 C           4.7396    0.1283   -0.1212 C.ar    1  UNL1        0.0475
     20 C           5.5590    1.1856   -0.3181 C.ar    1  UNL1       -0.0394
     21 C           6.8350    1.0038   -0.8701 C.ar    1  UNL1       -0.0599
     22 C           7.3072   -0.2314   -1.2311 C.ar    1  UNL1       -0.0606
     23 C           6.4784   -1.3166   -1.0341 C.ar    1  UNL1       -0.0460
     24 C           5.2255   -1.1337   -0.4913 C.ar    1  UNL1        0.0390
     25 BR          4.1657   -2.7026   -0.2622 Br      1  UNL1       -0.0484
     26 C          -0.1004   -0.2275    2.2436 C.3     1  UNL1        0.0012
     27 C          -1.3425    0.5219    1.7855 C.3     1  UNL1       -0.0192
     28 H          -2.3448    2.8646    0.1090 H       1  UNL1        0.0307
     29 H          -3.1362    2.5816    1.7686 H       1  UNL1        0.0307
     30 H          -4.0014    3.3456    0.4367 H       1  UNL1        0.0307
     31 H          -7.2412   -0.4629   -1.3966 H       1  UNL1        0.0639
     32 H          -7.0047   -2.8318   -1.8461 H       1  UNL1        0.0618
     33 H          -4.8744   -3.9446   -1.3534 H       1  UNL1        0.0618
     34 H          -2.9392   -2.6576   -0.3890 H       1  UNL1        0.0639
     35 H          -1.7538   -1.3063    0.8301 H       1  UNL1        0.0529
     36 H          -0.9841   -0.5935   -1.4452 H       1  UNL1        0.0298
     37 H          -0.8191    1.0820   -0.7920 H       1  UNL1        0.0298
     38 H           1.2944    0.2658   -0.7974 H       1  UNL1        0.0427
     39 H           0.7899   -1.3664   -0.2896 H       1  UNL1        0.0427
     40 H           1.4566    1.6677    2.4577 H       1  UNL1        0.0522
     41 H           0.8356    2.0407    0.8057 H       1  UNL1        0.0522
     42 H           2.9024   -0.7401    0.5379 H       1  UNL1        0.1549
     43 H           5.3268    2.2066   -0.0869 H       1  UNL1        0.0636
     44 H           7.4768    1.8630   -1.0204 H       1  UNL1        0.0618
     45 H           8.2820   -0.3719   -1.6531 H       1  UNL1        0.0618
     46 H           6.8637   -2.2778   -1.3227 H       1  UNL1        0.0629
     47 H          -0.4090   -1.2826    2.3904 H       1  UNL1        0.0427
     48 H           0.2255    0.2046    3.2330 H       1  UNL1        0.0427
     49 H          -0.9848    1.5544    1.5685 H       1  UNL1        0.0298
     50 H          -2.0686    0.4720    2.6056 H       1  UNL1        0.0298
@<TRIPOS>BOND
     1     1     2    1
     2     2     3   ar
     3     3     4   ar
     4     4     5   ar
     5     5     6   ar
     6     6     7   ar
     7     7     8   ar
     8     8     9   ar
     9     9    10   ar
    10    10    11    1
    11    11    12    1
    12    12    13    1
    13    13    14    1
    14    14    15    1
    15    15    16    1
    16    16    17    2
    17    16    18   am
    18    18    19    1
    19    19    20   ar
    20    20    21   ar
    21    21    22   ar
    22    22    23   ar
    23    23    24   ar
    24    24    25    1
    25    14    26    1
    26    26    27    1
    27    10     2   ar
    28    27    11    1
    29     9     4   ar
    30    24    19   ar
    31     1    28    1
    32     1    29    1
    33     1    30    1
    34     5    31    1
    35     6    32    1
    36     7    33    1
    37     8    34    1
    38    11    35    1
    39    12    36    1
    40    12    37    1
    41    13    38    1
    42    13    39    1
    43    15    40    1
    44    15    41    1
    45    18    42    1
    46    20    43    1
    47    21    44    1
    48    22    45    1
    49    23    46    1
    50    26    47    1
    51    26    48    1
    52    27    49    1
    53    27    50    1
