
     RDKit          3D

 50 53  0  0  0  0  0  0  0  0999 V2000
   -3.2447    2.5349    0.6667 C   0  0  0  0  0  0  0  0  0  0  0  0
   -3.8174    1.2710    0.1852 C   0  0  0  0  0  0  0  0  0  0  0  0
   -5.0684    1.0481   -0.3011 N   0  0  0  0  0  0  0  0  0  0  0  0
   -5.2201   -0.2377   -0.6417 C   0  0  0  0  0  0  0  0  0  0  0  0
   -6.2912   -0.9225   -1.1693 C   0  0  0  0  0  0  0  0  0  0  0  0
   -6.1593   -2.2707   -1.4257 C   0  0  0  0  0  0  0  0  0  0  0  0
   -4.9525   -2.8739   -1.1398 C   0  0  0  0  0  0  0  0  0  0  0  0
   -3.9007   -2.1832   -0.6177 C   0  0  0  0  0  0  0  0  0  0  0  0
   -4.0097   -0.8310   -0.3524 C   0  0  0  0  0  0  0  0  0  0  0  0
   -3.1448    0.0978    0.1573 N   0  0  0  0  0  0  0  0  0  0  0  0
   -1.8132   -0.2143    0.5513 C   0  0  0  0  0  0  0  0  0  0  0  0
   -0.7877   -0.0005   -0.5093 C   0  0  0  0  0  0  0  0  0  0  0  0
    0.6258   -0.2924   -0.0762 C   0  0  0  0  0  0  0  0  0  0  0  0
    0.9174   -0.0223    1.2834 N   0  0  0  0  0  0  0  0  0  0  0  0
    1.4373    1.3092    1.4000 C   0  0  0  0  0  0  0  0  0  0  0  0
    2.8142    1.3692    0.8584 C   0  0  0  0  0  0  0  0  0  0  0  0
    3.4111    2.4909    0.7995 O   0  0  0  0  0  0  0  0  0  0  0  0
    3.4440    0.1864    0.4216 N   0  0  0  0  0  0  0  0  0  0  0  0
    4.7396    0.1283   -0.1212 C   0  0  0  0  0  0  0  0  0  0  0  0
    5.5590    1.1856   -0.3181 C   0  0  0  0  0  0  0  0  0  0  0  0
    6.8350    1.0038   -0.8701 C   0  0  0  0  0  0  0  0  0  0  0  0
    7.3072   -0.2314   -1.2311 C   0  0  0  0  0  0  0  0  0  0  0  0
    6.4784   -1.3166   -1.0341 C   0  0  0  0  0  0  0  0  0  0  0  0
    5.2255   -1.1337   -0.4913 C   0  0  0  0  0  0  0  0  0  0  0  0
    4.1657   -2.7026   -0.2622 Br  0  0  0  0  0  0  0  0  0  0  0  0
   -0.1004   -0.2275    2.2436 C   0  0  0  0  0  0  0  0  0  0  0  0
   -1.3425    0.5219    1.7855 C   0  0  0  0  0  0  0  0  0  0  0  0
   -2.3448    2.8646    0.1090 H   0  0  0  0  0  0  0  0  0  0  0  0
   -3.1362    2.5816    1.7686 H   0  0  0  0  0  0  0  0  0  0  0  0
   -4.0014    3.3456    0.4367 H   0  0  0  0  0  0  0  0  0  0  0  0
   -7.2412   -0.4629   -1.3966 H   0  0  0  0  0  0  0  0  0  0  0  0
   -7.0047   -2.8318   -1.8461 H   0  0  0  0  0  0  0  0  0  0  0  0
   -4.8744   -3.9446   -1.3534 H   0  0  0  0  0  0  0  0  0  0  0  0
   -2.9392   -2.6576   -0.3890 H   0  0  0  0  0  0  0  0  0  0  0  0
   -1.7538   -1.3063    0.8301 H   0  0  0  0  0  0  0  0  0  0  0  0
   -0.9841   -0.5935   -1.4452 H   0  0  0  0  0  0  0  0  0  0  0  0
   -0.8191    1.0820   -0.7920 H   0  0  0  0  0  0  0  0  0  0  0  0
    1.2944    0.2658   -0.7974 H   0  0  0  0  0  0  0  0  0  0  0  0
    0.7899   -1.3664   -0.2896 H   0  0  0  0  0  0  0  0  0  0  0  0
    1.4566    1.6677    2.4577 H   0  0  0  0  0  0  0  0  0  0  0  0
    0.8356    2.0407    0.8057 H   0  0  0  0  0  0  0  0  0  0  0  0
    2.9024   -0.7401    0.5379 H   0  0  0  0  0  0  0  0  0  0  0  0
    5.3268    2.2066   -0.0869 H   0  0  0  0  0  0  0  0  0  0  0  0
    7.4768    1.8630   -1.0204 H   0  0  0  0  0  0  0  0  0  0  0  0
    8.2820   -0.3719   -1.6531 H   0  0  0  0  0  0  0  0  0  0  0  0
    6.8637   -2.2778   -1.3227 H   0  0  0  0  0  0  0  0  0  0  0  0
   -0.4090   -1.2826    2.3904 H   0  0  0  0  0  0  0  0  0  0  0  0
    0.2255    0.2046    3.2330 H   0  0  0  0  0  0  0  0  0  0  0  0
   -0.9848    1.5544    1.5685 H   0  0  0  0  0  0  0  0  0  0  0  0
   -2.0686    0.4720    2.6056 H   0  0  0  0  0  0  0  0  0  0  0  0
  1  2  1  0
  2  3  2  0
  3  4  1  0
  4  5  2  0
  5  6  1  0
  6  7  2  0
  7  8  1  0
  8  9  2  0
  9 10  1  0
 10 11  1  0
 11 12  1  0
 12 13  1  0
 13 14  1  0
 14 15  1  0
 15 16  1  0
 16 17  2  0
 16 18  1  0
 18 19  1  0
 19 20  2  0
 20 21  1  0
 21 22  2  0
 22 23  1  0
 23 24  2  0
 24 25  1  0
 14 26  1  0
 26 27  1  0
 10  2  1  0
 27 11  1  0
  9  4  1  0
 24 19  1  0
  1 28  1  0
  1 29  1  0
  1 30  1  0
  5 31  1  0
  6 32  1  0
  7 33  1  0
  8 34  1  0
 11 35  1  0
 12 36  1  0
 12 37  1  0
 13 38  1  0
 13 39  1  0
 15 40  1  0
 15 41  1  0
 18 42  1  0
 20 43  1  0
 21 44  1  0
 22 45  1  0
 23 46  1  0
 26 47  1  0
 26 48  1  0
 27 49  1  0
 27 50  1  0
M  END
$$$$
