@<TRIPOS>MOLECULE
*****
 51 55 0 0 0
SMALL
GASTEIGER

@<TRIPOS>ATOM
      1 O          -1.0929    1.4059    0.8067 O.2     1  UNL1       -0.2699
      2 C          -1.7326    0.7690   -0.0578 C.2     1  UNL1        0.2491
      3 C          -3.1617    1.0345   -0.2343 C.ar    1  UNL1        0.0653
      4 C          -3.5562    2.0065   -1.1548 C.ar    1  UNL1       -0.0292
      5 C          -4.8982    2.2217   -1.2889 C.ar    1  UNL1        0.0418
      6 CL         -5.4806    3.4210   -2.4188 Cl      1  UNL1       -0.0835
      7 C          -5.8352    1.5181   -0.5548 C.ar    1  UNL1       -0.0413
      8 C          -5.4234    0.5524    0.3585 C.ar    1  UNL1       -0.0324
      9 C          -4.0585    0.3105    0.5174 C.ar    1  UNL1        0.0983
     10 N          -3.5696   -0.6545    1.4357 N.ar    1  UNL1       -0.1496
     11 N          -2.8233   -1.7118    1.2967 N.ar    1  UNL1       -0.1556
     12 C          -2.6179   -2.3297    2.4787 C.ar    1  UNL1        0.0697
     13 C          -3.3096   -1.5661    3.4146 C.ar    1  UNL1        0.0697
     14 N          -3.8664   -0.5697    2.7431 N.ar    1  UNL1       -0.1556
     15 N          -1.0470   -0.1957   -0.8444 N.am    1  UNL1       -0.2897
     16 C          -1.7223   -0.9765   -1.8564 C.3     1  UNL1        0.0388
     17 C          -0.9389   -1.2054   -3.1066 C.3     1  UNL1        0.0635
     18 O           0.4144   -1.2756   -2.9264 O.3     1  UNL1       -0.3764
     19 C           0.7055   -1.5895   -1.6087 C.3     1  UNL1        0.0666
     20 C           0.3879   -0.4554   -0.6635 C.3     1  UNL1        0.0537
     21 C           1.2354    0.7242   -0.9292 C.3     1  UNL1       -0.0041
     22 C           2.6811    0.4859   -0.7284 C.ar    1  UNL1       -0.0097
     23 C           3.2431    0.7544    0.5315 C.ar    1  UNL1       -0.0450
     24 C           4.5457    0.5394    0.8557 C.ar    1  UNL1        0.0229
     25 C           5.0971    0.8284    2.1815 C.ar    1  UNL1        0.2018
     26 N           6.2771    1.3713    2.4944 N.ar    1  UNL1       -0.1942
     27 C           6.3096    1.4243    3.8535 C.ar    1  UNL1        0.2147
     28 O           5.1826    0.9283    4.3492 O.2     1  UNL1       -0.3411
     29 N           4.4708    0.5778    3.3415 N.ar    1  UNL1       -0.0564
     30 C           5.3938    0.0179   -0.1157 C.ar    1  UNL1       -0.0482
     31 C           4.8765   -0.2562   -1.3618 C.ar    1  UNL1       -0.0255
     32 C           3.5296   -0.0252   -1.6727 C.ar    1  UNL1        0.1267
     33 F           3.1721   -0.2998   -2.9450 F       1  UNL1       -0.2052
     34 H          -2.7980    2.5426   -1.7171 H       1  UNL1        0.0640
     35 H          -6.9039    1.6951   -0.6662 H       1  UNL1        0.0633
     36 H          -6.1174   -0.0219    0.9538 H       1  UNL1        0.0640
     37 H          -2.0469   -3.2231    2.6891 H       1  UNL1        0.0864
     38 H          -3.3192   -1.8350    4.4699 H       1  UNL1        0.0864
     39 H          -1.9604   -1.9563   -1.3707 H       1  UNL1        0.0487
     40 H          -2.6909   -0.5248   -2.1589 H       1  UNL1        0.0487
     41 H          -1.1739   -0.3883   -3.8537 H       1  UNL1        0.0575
     42 H          -1.3466   -2.1471   -3.5748 H       1  UNL1        0.0575
     43 H           0.0089   -2.4745   -1.3855 H       1  UNL1        0.0578
     44 H           1.7351   -1.9693   -1.5350 H       1  UNL1        0.0578
     45 H           0.5600   -0.8624    0.3720 H       1  UNL1        0.0526
     46 H           1.0954    1.0267   -2.0020 H       1  UNL1        0.0333
     47 H           0.8993    1.5705   -0.2608 H       1  UNL1        0.0333
     48 H           2.6007    1.1666    1.3208 H       1  UNL1        0.0628
     49 H           7.0953    1.7980    4.4956 H       1  UNL1        0.1283
     50 H           6.4232   -0.1522    0.1424 H       1  UNL1        0.0625
     51 H           5.5514   -0.6632   -2.1097 H       1  UNL1        0.0646
@<TRIPOS>BOND
     1     1     2    2
     2     2     3    1
     3     3     4   ar
     4     4     5   ar
     5     5     6    1
     6     5     7   ar
     7     7     8   ar
     8     8     9   ar
     9     9    10    1
    10    10    11   ar
    11    11    12   ar
    12    12    13   ar
    13    13    14   ar
    14     2    15   am
    15    15    16    1
    16    16    17    1
    17    17    18    1
    18    18    19    1
    19    19    20    1
    20    20    21    1
    21    21    22    1
    22    22    23   ar
    23    23    24   ar
    24    24    25    1
    25    25    26   ar
    26    26    27   ar
    27    27    28   ar
    28    28    29   ar
    29    24    30   ar
    30    30    31   ar
    31    31    32   ar
    32    32    33    1
    33     9     3   ar
    34    14    10   ar
    35    20    15    1
    36    32    22   ar
    37    29    25   ar
    38     4    34    1
    39     7    35    1
    40     8    36    1
    41    12    37    1
    42    13    38    1
    43    16    39    1
    44    16    40    1
    45    17    41    1
    46    17    42    1
    47    19    43    1
    48    19    44    1
    49    20    45    1
    50    21    46    1
    51    21    47    1
    52    23    48    1
    53    27    49    1
    54    30    50    1
    55    31    51    1
