@<TRIPOS>MOLECULE
*****
 43 45 0 0 0
SMALL
GASTEIGER

@<TRIPOS>ATOM
      1 C          -3.3942   -1.3436    1.8402 C.3     1  UNL1       -0.0362
      2 C          -3.2213    0.0200    1.2662 C.ar    1  UNL1       -0.0066
      3 C          -3.5186    1.1033    2.0731 C.ar    1  UNL1       -0.0379
      4 C          -3.3535    2.3588    1.5268 C.ar    1  UNL1        0.0525
      5 C          -2.9134    2.5758    0.2364 C.ar    1  UNL1       -0.0379
      6 C          -2.6314    1.4593   -0.5245 C.ar    1  UNL1       -0.0066
      7 C          -2.1450    1.4931   -1.9418 C.3     1  UNL1       -0.0362
      8 C          -2.7807    0.1796   -0.0234 C.ar    1  UNL1        0.1363
      9 O          -2.5053   -0.9626   -0.7635 O.3     1  UNL1       -0.4362
     10 C          -1.2422   -1.5532   -0.7831 C.ar    1  UNL1        0.2409
     11 C          -1.0283   -2.6793   -1.5348 C.ar    1  UNL1        0.1192
     12 BR         -2.4872   -3.4044   -2.5372 Br      1  UNL1       -0.0412
     13 C           0.2221   -3.2291   -1.5291 C.ar    1  UNL1        0.1391
     14 N           0.3935   -4.3930   -2.3207 N.pl3   1  UNL1       -0.3420
     15 N           1.2564   -2.7099   -0.8144 N.ar    1  UNL1       -0.1983
     16 C           1.0318   -1.5920   -0.0721 C.ar    1  UNL1        0.2243
     17 N           2.1047   -1.0685    0.6567 N.pl3   1  UNL1       -0.2835
     18 C           3.1242   -0.1034    0.4389 C.ar    1  UNL1        0.0337
     19 C           4.0257    0.0941    1.4639 C.ar    1  UNL1       -0.0393
     20 C           5.0014    1.0291    1.2441 C.ar    1  UNL1       -0.0426
     21 C           5.0831    1.7419    0.0561 C.ar    1  UNL1        0.0519
     22 C           4.1644    1.5209   -0.9522 C.ar    1  UNL1       -0.0426
     23 C           3.1641    0.5795   -0.7586 C.ar    1  UNL1       -0.0393
     24 C           6.1584    2.6960   -0.0432 C.1     1  UNL1        0.0992
     25 N           7.0157    3.4759   -0.1334 N.1     1  UNL1       -0.1909
     26 N          -0.1977   -1.0751   -0.0948 N.ar    1  UNL1       -0.1778
     27 C          -3.6537    3.5049    2.3383 C.1     1  UNL1        0.0992
     28 N          -3.8869    4.4316    3.0137 N.1     1  UNL1       -0.1909
     29 H          -4.2460   -1.3635    2.5607 H       1  UNL1        0.0279
     30 H          -2.4643   -1.6816    2.3464 H       1  UNL1        0.0279
     31 H          -3.6141   -2.0854    1.0532 H       1  UNL1        0.0279
     32 H          -3.8751    1.0309    3.1128 H       1  UNL1        0.0634
     33 H          -2.7715    3.5427   -0.2264 H       1  UNL1        0.0634
     34 H          -2.1134    2.5122   -2.3630 H       1  UNL1        0.0279
     35 H          -2.7345    0.7937   -2.5758 H       1  UNL1        0.0279
     36 H          -1.0742    1.1480   -1.8985 H       1  UNL1        0.0279
     37 H           0.6979   -5.3315   -2.5859 H       1  UNL1        0.1437
     38 H          -0.0307   -4.4038   -3.2802 H       1  UNL1        0.1437
     39 H           1.9980   -1.6071    1.5308 H       1  UNL1        0.1550
     40 H           3.9857   -0.4433    2.3921 H       1  UNL1        0.0636
     41 H           5.7160    1.2011    2.0279 H       1  UNL1        0.0631
     42 H           4.2693    2.1015   -1.8604 H       1  UNL1        0.0631
     43 H           2.4709    0.4360   -1.5612 H       1  UNL1        0.0636
@<TRIPOS>BOND
     1     1     2    1
     2     2     3   ar
     3     3     4   ar
     4     4     5   ar
     5     5     6   ar
     6     6     7    1
     7     6     8   ar
     8     8     9    1
     9     9    10    1
    10    10    11   ar
    11    11    12    1
    12    11    13   ar
    13    13    14    1
    14    13    15   ar
    15    15    16   ar
    16    16    17    1
    17    17    18    1
    18    18    19   ar
    19    19    20   ar
    20    20    21   ar
    21    21    22   ar
    22    22    23   ar
    23    21    24    1
    24    24    25    3
    25    16    26   ar
    26     4    27    1
    27    27    28    3
    28     8     2   ar
    29    26    10   ar
    30    23    18   ar
    31     1    29    1
    32     1    30    1
    33     1    31    1
    34     3    32    1
    35     5    33    1
    36     7    34    1
    37     7    35    1
    38     7    36    1
    39    14    37    1
    40    14    38    1
    41    17    39    1
    42    19    40    1
    43    20    41    1
    44    22    42    1
    45    23    43    1
