@<TRIPOS>MOLECULE
*****
 41 43 0 0 0
SMALL
GASTEIGER

@<TRIPOS>ATOM
      1 C          -4.2168    0.0051   -0.7166 C.3     1  UNL1       -0.0585
      2 C          -3.2482    1.1269   -0.5137 C.3     1  UNL1       -0.0180
      3 C          -2.3827    1.3784   -1.7129 C.3     1  UNL1       -0.0585
      4 C          -2.3925    0.7860    0.6509 C.ar    1  UNL1       -0.0024
      5 C          -1.1902    0.0788    0.5116 C.ar    1  UNL1       -0.0392
      6 C          -0.3732   -0.2521    1.5633 C.ar    1  UNL1        0.0787
      7 C           0.8299   -1.0313    1.4826 C.2     1  UNL1        0.2504
      8 O           1.2036   -1.6425    2.5491 O.2     1  UNL1       -0.2698
      9 N           1.6553   -1.1911    0.3282 N.am    1  UNL1       -0.2928
     10 C           2.7666   -2.1335    0.5440 C.3     1  UNL1        0.0198
     11 C           3.4051   -2.4883   -0.7889 C.3     1  UNL1       -0.0052
     12 C           3.7166   -1.2085   -1.4801 C.ar    1  UNL1       -0.0041
     13 S           5.1881   -0.6120   -2.3325 S.2     1  UNL1       -0.1012
     14 C           4.4642    1.0224   -2.7135 C.ar    1  UNL1       -0.0238
     15 C           3.2357    0.9564   -2.1820 C.ar    1  UNL1       -0.0498
     16 C           2.8358   -0.1714   -1.5500 C.ar    1  UNL1       -0.0199
     17 C           1.4762   -0.4806   -0.8964 C.3     1  UNL1        0.0408
     18 C          -0.7618    0.1360    2.8599 C.ar    1  UNL1        0.1324
     19 O           0.0322   -0.1758    3.9757 O.3     1  UNL1       -0.5059
     20 C          -1.9337    0.8242    2.9949 C.ar    1  UNL1        0.0223
     21 C          -2.7430    1.1513    1.9296 C.ar    1  UNL1        0.1238
     22 O          -3.9432    1.8619    2.1042 O.3     1  UNL1       -0.5064
     23 H          -4.9917    0.2068   -1.4589 H       1  UNL1        0.0235
     24 H          -4.6699   -0.2857    0.2429 H       1  UNL1        0.0235
     25 H          -3.6208   -0.8705   -1.1078 H       1  UNL1        0.0235
     26 H          -3.8089    2.0459   -0.2346 H       1  UNL1        0.0345
     27 H          -2.9567    1.9693   -2.4769 H       1  UNL1        0.0235
     28 H          -1.4752    1.9363   -1.3942 H       1  UNL1        0.0235
     29 H          -2.0812    0.4306   -2.1985 H       1  UNL1        0.0235
     30 H          -0.9957   -0.2191   -0.5049 H       1  UNL1        0.0630
     31 H           3.5246   -1.6310    1.1506 H       1  UNL1        0.0468
     32 H           2.4489   -3.0516    1.0358 H       1  UNL1        0.0468
     33 H           4.3436   -3.0445   -0.6200 H       1  UNL1        0.0334
     34 H           2.7005   -3.0442   -1.4349 H       1  UNL1        0.0334
     35 H           5.0021    1.7766   -3.2471 H       1  UNL1        0.0693
     36 H           2.5617    1.8553   -2.2805 H       1  UNL1        0.0626
     37 H           0.8498   -0.9906   -1.6267 H       1  UNL1        0.0514
     38 H           1.0107    0.5140   -0.6609 H       1  UNL1        0.0514
     39 H           0.6703    0.4857    4.3746 H       1  UNL1        0.2922
     40 H          -2.2405    1.1288    4.0032 H       1  UNL1        0.0691
     41 H          -3.8956    2.8477    1.8312 H       1  UNL1        0.2921
@<TRIPOS>BOND
     1     1     2    1
     2     2     3    1
     3     2     4    1
     4     4     5   ar
     5     5     6   ar
     6     6     7    1
     7     7     8    2
     8     7     9   am
     9     9    10    1
    10    10    11    1
    11    11    12    1
    12    12    13   ar
    13    13    14   ar
    14    14    15   ar
    15    15    16   ar
    16    16    17    1
    17     6    18   ar
    18    18    19    1
    19    18    20   ar
    20    20    21   ar
    21    21    22    1
    22    21     4   ar
    23    17     9    1
    24    16    12   ar
    25     1    23    1
    26     1    24    1
    27     1    25    1
    28     2    26    1
    29     3    27    1
    30     3    28    1
    31     3    29    1
    32     5    30    1
    33    10    31    1
    34    10    32    1
    35    11    33    1
    36    11    34    1
    37    14    35    1
    38    15    36    1
    39    17    37    1
    40    17    38    1
    41    19    39    1
    42    20    40    1
    43    22    41    1
