@<TRIPOS>MOLECULE
*****
 57 59 0 0 0
SMALL
GASTEIGER

@<TRIPOS>ATOM
      1 C          -4.6383    2.3076    1.2624 C.3     1  UNL1       -0.0554
      2 C          -4.0229    1.6868   -0.0096 C.3     1  UNL1        0.0179
      3 C          -2.8577    0.8554    0.4301 C.3     1  UNL1       -0.0209
      4 C          -2.0744    0.1811   -0.6355 C.3     1  UNL1        0.0740
      5 C          -0.9169   -0.6126   -0.0890 C.3     1  UNL1        0.1028
      6 S           0.2922    0.2994    0.7994 S.O2    1  UNL1        0.0337
      7 O           0.9715    1.3327   -0.0765 O.2     1  UNL1       -0.1580
      8 O          -0.2446    0.9855    2.0277 O.2     1  UNL1       -0.1580
      9 N           1.5170   -0.8542    1.2817 N.3     1  UNL1       -0.1781
     10 C           2.1768   -1.4915    0.2175 C.3     1  UNL1        0.0359
     11 C           3.3303   -0.6680   -0.3312 C.3     1  UNL1        0.0266
     12 N           4.2413   -0.4314    0.7585 N.pl3   1  UNL1       -0.3273
     13 C           5.6038   -0.1643    0.4804 C.ar    1  UNL1        0.0299
     14 C           6.5153   -0.0622    1.4999 C.ar    1  UNL1       -0.0379
     15 C           7.8427    0.2022    1.2160 C.ar    1  UNL1       -0.0247
     16 C           8.2436    0.3629   -0.1053 C.ar    1  UNL1        0.1235
     17 F           9.5255    0.6180   -0.3829 F       1  UNL1       -0.2055
     18 C           7.3430    0.2637   -1.1351 C.ar    1  UNL1       -0.0247
     19 C           6.0274    0.0005   -0.8374 C.ar    1  UNL1       -0.0379
     20 C           3.7992   -0.4559    2.1194 C.3     1  UNL1        0.0266
     21 C           2.3256   -0.2903    2.3019 C.3     1  UNL1        0.0359
     22 N          -2.8644   -0.7684   -1.3960 N.am    1  UNL1       -0.1817
     23 O          -3.0189   -0.5507   -2.7457 O.3     1  UNL1       -0.2924
     24 C          -3.4680   -1.9089   -0.8508 C.2     1  UNL1        0.2253
     25 O          -3.4243   -2.2732    0.3485 O.2     1  UNL1       -0.2772
     26 C          -5.1286    0.9294   -0.6357 C.ar    1  UNL1        0.1320
     27 N          -5.8559    0.0183    0.0285 N.ar    1  UNL1       -0.2372
     28 C          -6.8652   -0.6572   -0.5249 C.ar    1  UNL1        0.0663
     29 C          -7.2079   -0.4387   -1.8351 C.ar    1  UNL1        0.1594
     30 F          -8.2283   -1.1274   -2.3810 F       1  UNL1       -0.2023
     31 C          -6.4739    0.4895   -2.5270 C.ar    1  UNL1        0.0663
     32 N          -5.4671    1.1438   -1.9259 N.ar    1  UNL1       -0.2372
     33 H          -4.8701    1.5048    1.9964 H       1  UNL1        0.0236
     34 H          -3.8932    2.9882    1.7063 H       1  UNL1        0.0236
     35 H          -5.5703    2.8155    0.9773 H       1  UNL1        0.0236
     36 H          -3.6822    2.5252   -0.6439 H       1  UNL1        0.0377
     37 H          -3.2496    0.0754    1.1460 H       1  UNL1        0.0291
     38 H          -2.1770    1.4710    1.0917 H       1  UNL1        0.0291
     39 H          -1.7218    0.9823   -1.3337 H       1  UNL1        0.0542
     40 H          -0.3944   -1.1820   -0.8925 H       1  UNL1        0.0535
     41 H          -1.3182   -1.3825    0.6190 H       1  UNL1        0.0535
     42 H           1.4974   -1.7071   -0.6094 H       1  UNL1        0.0459
     43 H           2.5389   -2.4833    0.5786 H       1  UNL1        0.0459
     44 H           2.9082    0.2378   -0.7753 H       1  UNL1        0.0477
     45 H           3.7766   -1.3189   -1.1335 H       1  UNL1        0.0477
     46 H           6.2088   -0.1882    2.5385 H       1  UNL1        0.0637
     47 H           8.5532    0.2817    2.0127 H       1  UNL1        0.0647
     48 H           7.6475    0.3866   -2.1513 H       1  UNL1        0.0647
     49 H           5.2894   -0.0822   -1.6376 H       1  UNL1        0.0637
     50 H           4.2831    0.4249    2.6361 H       1  UNL1        0.0477
     51 H           4.1694   -1.3557    2.6776 H       1  UNL1        0.0477
     52 H           2.0776    0.7846    2.4474 H       1  UNL1        0.0459
     53 H           2.0465   -0.7857    3.2737 H       1  UNL1        0.0459
     54 H          -2.8936    0.3974   -2.9595 H       1  UNL1        0.2417
     55 H          -4.0440   -2.5756   -1.4996 H       1  UNL1        0.1274
     56 H          -7.4290   -1.3913    0.0580 H       1  UNL1        0.0860
     57 H          -6.7512    0.6556   -3.5605 H       1  UNL1        0.0860
@<TRIPOS>BOND
     1     1     2    1
     2     2     3    1
     3     3     4    1
     4     4     5    1
     5     5     6    1
     6     6     7    2
     7     6     8    2
     8     6     9    1
     9     9    10    1
    10    10    11    1
    11    11    12    1
    12    12    13    1
    13    13    14   ar
    14    14    15   ar
    15    15    16   ar
    16    16    17    1
    17    16    18   ar
    18    18    19   ar
    19    12    20    1
    20    20    21    1
    21     4    22    1
    22    22    23    1
    23    22    24   am
    24    24    25    2
    25     2    26    1
    26    26    27   ar
    27    27    28   ar
    28    28    29   ar
    29    29    30    1
    30    29    31   ar
    31    31    32   ar
    32    21     9    1
    33    32    26   ar
    34    19    13   ar
    35     1    33    1
    36     1    34    1
    37     1    35    1
    38     2    36    1
    39     3    37    1
    40     3    38    1
    41     4    39    1
    42     5    40    1
    43     5    41    1
    44    10    42    1
    45    10    43    1
    46    11    44    1
    47    11    45    1
    48    14    46    1
    49    15    47    1
    50    18    48    1
    51    19    49    1
    52    20    50    1
    53    20    51    1
    54    21    52    1
    55    21    53    1
    56    23    54    1
    57    24    55    1
    58    28    56    1
    59    31    57    1
