
     RDKit          3D

 57 59  0  0  0  0  0  0  0  0999 V2000
   -4.6383    2.3076    1.2624 C   0  0  0  0  0  0  0  0  0  0  0  0
   -4.0229    1.6868   -0.0096 C   0  0  1  0  0  0  0  0  0  0  0  0
   -2.8577    0.8554    0.4301 C   0  0  0  0  0  0  0  0  0  0  0  0
   -2.0744    0.1811   -0.6355 C   0  0  1  0  0  0  0  0  0  0  0  0
   -0.9169   -0.6126   -0.0890 C   0  0  0  0  0  0  0  0  0  0  0  0
    0.2922    0.2994    0.7994 S   0  0  0  0  0  6  0  0  0  0  0  0
    0.9715    1.3327   -0.0765 O   0  0  0  0  0  0  0  0  0  0  0  0
   -0.2446    0.9855    2.0277 O   0  0  0  0  0  0  0  0  0  0  0  0
    1.5170   -0.8542    1.2817 N   0  0  0  0  0  0  0  0  0  0  0  0
    2.1768   -1.4915    0.2175 C   0  0  0  0  0  0  0  0  0  0  0  0
    3.3303   -0.6680   -0.3312 C   0  0  0  0  0  0  0  0  0  0  0  0
    4.2413   -0.4314    0.7585 N   0  0  0  0  0  0  0  0  0  0  0  0
    5.6038   -0.1643    0.4804 C   0  0  0  0  0  0  0  0  0  0  0  0
    6.5153   -0.0622    1.4999 C   0  0  0  0  0  0  0  0  0  0  0  0
    7.8427    0.2022    1.2160 C   0  0  0  0  0  0  0  0  0  0  0  0
    8.2436    0.3629   -0.1053 C   0  0  0  0  0  0  0  0  0  0  0  0
    9.5255    0.6180   -0.3829 F   0  0  0  0  0  0  0  0  0  0  0  0
    7.3430    0.2637   -1.1351 C   0  0  0  0  0  0  0  0  0  0  0  0
    6.0274    0.0005   -0.8374 C   0  0  0  0  0  0  0  0  0  0  0  0
    3.7992   -0.4559    2.1194 C   0  0  0  0  0  0  0  0  0  0  0  0
    2.3256   -0.2903    2.3019 C   0  0  0  0  0  0  0  0  0  0  0  0
   -2.8644   -0.7684   -1.3960 N   0  0  0  0  0  0  0  0  0  0  0  0
   -3.0189   -0.5507   -2.7457 O   0  0  0  0  0  0  0  0  0  0  0  0
   -3.4680   -1.9089   -0.8508 C   0  0  0  0  0  0  0  0  0  0  0  0
   -3.4243   -2.2732    0.3485 O   0  0  0  0  0  0  0  0  0  0  0  0
   -5.1286    0.9294   -0.6357 C   0  0  0  0  0  0  0  0  0  0  0  0
   -5.8559    0.0183    0.0285 N   0  0  0  0  0  0  0  0  0  0  0  0
   -6.8652   -0.6572   -0.5249 C   0  0  0  0  0  0  0  0  0  0  0  0
   -7.2079   -0.4387   -1.8351 C   0  0  0  0  0  0  0  0  0  0  0  0
   -8.2283   -1.1274   -2.3810 F   0  0  0  0  0  0  0  0  0  0  0  0
   -6.4739    0.4895   -2.5270 C   0  0  0  0  0  0  0  0  0  0  0  0
   -5.4671    1.1438   -1.9259 N   0  0  0  0  0  0  0  0  0  0  0  0
   -4.8701    1.5048    1.9964 H   0  0  0  0  0  0  0  0  0  0  0  0
   -3.8932    2.9882    1.7063 H   0  0  0  0  0  0  0  0  0  0  0  0
   -5.5703    2.8155    0.9773 H   0  0  0  0  0  0  0  0  0  0  0  0
   -3.6822    2.5252   -0.6439 H   0  0  0  0  0  0  0  0  0  0  0  0
   -3.2496    0.0754    1.1460 H   0  0  0  0  0  0  0  0  0  0  0  0
   -2.1770    1.4710    1.0917 H   0  0  0  0  0  0  0  0  0  0  0  0
   -1.7218    0.9823   -1.3337 H   0  0  0  0  0  0  0  0  0  0  0  0
   -0.3944   -1.1820   -0.8925 H   0  0  0  0  0  0  0  0  0  0  0  0
   -1.3182   -1.3825    0.6190 H   0  0  0  0  0  0  0  0  0  0  0  0
    1.4974   -1.7071   -0.6094 H   0  0  0  0  0  0  0  0  0  0  0  0
    2.5389   -2.4833    0.5786 H   0  0  0  0  0  0  0  0  0  0  0  0
    2.9082    0.2378   -0.7753 H   0  0  0  0  0  0  0  0  0  0  0  0
    3.7766   -1.3189   -1.1335 H   0  0  0  0  0  0  0  0  0  0  0  0
    6.2088   -0.1882    2.5385 H   0  0  0  0  0  0  0  0  0  0  0  0
    8.5532    0.2817    2.0127 H   0  0  0  0  0  0  0  0  0  0  0  0
    7.6475    0.3866   -2.1513 H   0  0  0  0  0  0  0  0  0  0  0  0
    5.2894   -0.0822   -1.6376 H   0  0  0  0  0  0  0  0  0  0  0  0
    4.2831    0.4249    2.6361 H   0  0  0  0  0  0  0  0  0  0  0  0
    4.1694   -1.3557    2.6776 H   0  0  0  0  0  0  0  0  0  0  0  0
    2.0776    0.7846    2.4474 H   0  0  0  0  0  0  0  0  0  0  0  0
    2.0465   -0.7857    3.2737 H   0  0  0  0  0  0  0  0  0  0  0  0
   -2.8936    0.3974   -2.9595 H   0  0  0  0  0  0  0  0  0  0  0  0
   -4.0440   -2.5756   -1.4996 H   0  0  0  0  0  0  0  0  0  0  0  0
   -7.4290   -1.3913    0.0580 H   0  0  0  0  0  0  0  0  0  0  0  0
   -6.7512    0.6556   -3.5605 H   0  0  0  0  0  0  0  0  0  0  0  0
  1  2  1  0
  2  3  1  0
  3  4  1  0
  4  5  1  0
  5  6  1  0
  6  7  2  0
  6  8  2  0
  6  9  1  0
  9 10  1  0
 10 11  1  0
 11 12  1  0
 12 13  1  0
 13 14  2  0
 14 15  1  0
 15 16  2  0
 16 17  1  0
 16 18  1  0
 18 19  2  0
 12 20  1  0
 20 21  1  0
  4 22  1  0
 22 23  1  0
 22 24  1  0
 24 25  2  0
  2 26  1  0
 26 27  2  0
 27 28  1  0
 28 29  2  0
 29 30  1  0
 29 31  1  0
 31 32  2  0
 21  9  1  0
 32 26  1  0
 19 13  1  0
  1 33  1  0
  1 34  1  0
  1 35  1  0
  2 36  1  6
  3 37  1  0
  3 38  1  0
  4 39  1  6
  5 40  1  0
  5 41  1  0
 10 42  1  0
 10 43  1  0
 11 44  1  0
 11 45  1  0
 14 46  1  0
 15 47  1  0
 18 48  1  0
 19 49  1  0
 20 50  1  0
 20 51  1  0
 21 52  1  0
 21 53  1  0
 23 54  1  0
 24 55  1  0
 28 56  1  0
 31 57  1  0
M  END
$$$$
