@<TRIPOS>MOLECULE
*****
 64 68 0 0 0
SMALL
GASTEIGER

@<TRIPOS>ATOM
      1 C           9.3879   -0.5404   -1.1775 C.3     1  UNL1        0.0124
      2 C           8.6683    0.1469   -0.0727 C.2     1  UNL1        0.2126
      3 O           9.2830    0.5408    0.9635 O.2     1  UNL1       -0.2759
      4 N           7.2839    0.3739   -0.1581 N.am    1  UNL1       -0.2987
      5 C           6.5601   -0.0622   -1.3230 C.3     1  UNL1        0.0304
      6 C           5.2887   -0.7500   -0.8075 C.3     1  UNL1        0.0280
      7 N           4.5570    0.2353   -0.0477 N.pl3   1  UNL1       -0.3269
      8 C           3.1642    0.0115    0.1636 C.ar    1  UNL1        0.0300
      9 C           2.3425    0.9701    0.6973 C.ar    1  UNL1       -0.0372
     10 C           1.0134    0.7125    0.8922 C.ar    1  UNL1       -0.0182
     11 C           0.4190   -0.4967    0.5748 C.ar    1  UNL1        0.1207
     12 O          -0.9334   -0.7408    0.7798 O.3     1  UNL1       -0.4893
     13 C          -1.7098    0.3129    1.3382 C.3     1  UNL1        0.1179
     14 C          -3.1241   -0.2149    1.4535 C.3     1  UNL1        0.1195
     15 C          -4.1050    0.8003    1.9295 C.3     1  UNL1        0.0808
     16 O          -5.0909    0.8612    0.9821 O.3     1  UNL1       -0.3406
     17 C          -4.8225   -0.1184    0.0199 C.3     1  UNL1        0.2169
     18 C          -5.0435    0.5362   -1.3270 C.3     1  UNL1        0.0828
     19 N          -4.1689    1.6733   -1.5179 N.ar    1  UNL1       -0.3313
     20 C          -4.3983    2.9560   -1.2004 C.ar    1  UNL1        0.0242
     21 C          -3.2995    3.7001   -1.5563 C.ar    1  UNL1        0.0454
     22 N          -2.4208    2.8228   -2.0900 N.ar    1  UNL1       -0.2441
     23 C          -2.9465    1.5872   -2.0684 C.ar    1  UNL1        0.0961
     24 C          -5.7551   -1.2621    0.1577 C.ar    1  UNL1        0.0313
     25 C          -6.7376   -1.1602    1.1364 C.ar    1  UNL1       -0.0507
     26 C          -7.6296   -2.1973    1.2659 C.ar    1  UNL1       -0.0429
     27 C          -7.5856   -3.3235    0.4681 C.ar    1  UNL1        0.0424
     28 CL         -8.7220   -4.6428    0.6334 Cl      1  UNL1       -0.0835
     29 C          -6.6195   -3.4286   -0.4971 C.ar    1  UNL1       -0.0246
     30 C          -5.7162   -2.3858   -0.6323 C.ar    1  UNL1        0.0507
     31 CL         -4.4709   -2.5553   -1.8474 Cl      1  UNL1       -0.0830
     32 O          -3.5434   -0.5502    0.1699 O.3     1  UNL1       -0.3343
     33 C           1.2644   -1.4450    0.0396 C.ar    1  UNL1       -0.0182
     34 C           2.6055   -1.2094   -0.1660 C.ar    1  UNL1       -0.0372
     35 C           5.1665    1.4209    0.5082 C.3     1  UNL1        0.0280
     36 C           6.5891    1.0381    0.9097 C.3     1  UNL1        0.0304
     37 H           8.8965   -1.5182   -1.3438 H       1  UNL1        0.0323
     38 H           9.4137    0.0973   -2.0739 H       1  UNL1        0.0323
     39 H          10.4259   -0.7241   -0.8353 H       1  UNL1        0.0323
     40 H           7.1206   -0.7449   -1.9752 H       1  UNL1        0.0480
     41 H           6.1937    0.8378   -1.8729 H       1  UNL1        0.0480
     42 H           4.6939   -1.1378   -1.6640 H       1  UNL1        0.0479
     43 H           5.6017   -1.5483   -0.1024 H       1  UNL1        0.0479
     44 H           2.7463    1.9223    0.9584 H       1  UNL1        0.0637
     45 H           0.3472    1.4783    1.3210 H       1  UNL1        0.0655
     46 H          -1.3303    0.6150    2.3284 H       1  UNL1        0.0723
     47 H          -1.6928    1.1849    0.6537 H       1  UNL1        0.0723
     48 H          -3.1184   -1.1410    2.0795 H       1  UNL1        0.0654
     49 H          -3.5902    1.7795    2.1011 H       1  UNL1        0.0588
     50 H          -4.4981    0.4461    2.9195 H       1  UNL1        0.0588
     51 H          -4.8923   -0.1611   -2.1546 H       1  UNL1        0.0549
     52 H          -6.0825    0.9219   -1.4079 H       1  UNL1        0.0549
     53 H          -5.2966    3.3821   -0.7345 H       1  UNL1        0.0825
     54 H          -3.1253    4.7772   -1.4504 H       1  UNL1        0.0845
     55 H          -2.4169    0.7253   -2.4464 H       1  UNL1        0.1029
     56 H          -6.7634   -0.2864    1.7477 H       1  UNL1        0.0623
     57 H          -8.3899   -2.1148    2.0258 H       1  UNL1        0.0632
     58 H          -6.5467   -4.2894   -1.1430 H       1  UNL1        0.0647
     59 H           0.8198   -2.4036   -0.2181 H       1  UNL1        0.0655
     60 H           3.2238   -2.0152   -0.5961 H       1  UNL1        0.0637
     61 H           5.2033    2.2655   -0.1786 H       1  UNL1        0.0479
     62 H           4.6883    1.7693    1.4478 H       1  UNL1        0.0479
     63 H           7.1340    1.9235    1.2947 H       1  UNL1        0.0480
     64 H           6.4846    0.3428    1.7655 H       1  UNL1        0.0480
@<TRIPOS>BOND
     1     1     2    1
     2     2     3    2
     3     2     4   am
     4     4     5    1
     5     5     6    1
     6     6     7    1
     7     7     8    1
     8     8     9   ar
     9     9    10   ar
    10    10    11   ar
    11    11    12    1
    12    12    13    1
    13    13    14    1
    14    14    15    1
    15    15    16    1
    16    16    17    1
    17    17    18    1
    18    18    19    1
    19    19    20   ar
    20    20    21   ar
    21    21    22   ar
    22    22    23   ar
    23    17    24    1
    24    24    25   ar
    25    25    26   ar
    26    26    27   ar
    27    27    28    1
    28    27    29   ar
    29    29    30   ar
    30    30    31    1
    31    17    32    1
    32    11    33   ar
    33    33    34   ar
    34     7    35    1
    35    35    36    1
    36    36     4    1
    37    34     8   ar
    38    32    14    1
    39    23    19   ar
    40    30    24   ar
    41     1    37    1
    42     1    38    1
    43     1    39    1
    44     5    40    1
    45     5    41    1
    46     6    42    1
    47     6    43    1
    48     9    44    1
    49    10    45    1
    50    13    46    1
    51    13    47    1
    52    14    48    1
    53    15    49    1
    54    15    50    1
    55    18    51    1
    56    18    52    1
    57    20    53    1
    58    21    54    1
    59    23    55    1
    60    25    56    1
    61    26    57    1
    62    29    58    1
    63    33    59    1
    64    34    60    1
    65    35    61    1
    66    35    62    1
    67    36    63    1
    68    36    64    1
