@<TRIPOS>MOLECULE
*****
 56 60 0 0 0
SMALL
GASTEIGER

@<TRIPOS>ATOM
      1 C           8.9262    0.9389   -3.0772 C.1     1  UNL1       -0.1158
      2 C           9.2171    0.1110   -2.1428 C.1     1  UNL1       -0.0647
      3 C           9.5551   -0.8166   -1.0679 C.3     1  UNL1        0.1513
      4 O           8.7422   -1.9638   -1.3001 O.3     1  UNL1       -0.4624
      5 C           7.3514   -1.7775   -1.1468 C.ar    1  UNL1        0.2344
      6 C           6.4724   -2.7922   -1.4044 C.ar    1  UNL1        0.0899
      7 N           5.1075   -2.6120   -1.2589 N.ar    1  UNL1       -0.2459
      8 C           4.6282   -1.4322   -0.8540 C.ar    1  UNL1        0.1172
      9 C           3.1705   -1.1378   -0.7900 C.2     1  UNL1        0.1507
     10 F           2.2740   -2.0248   -1.2192 F       1  UNL1       -0.2032
     11 C           2.7705    0.0098   -0.2948 C.2     1  UNL1       -0.0171
     12 C           1.5140    0.6327   -0.0989 C.ar    1  UNL1       -0.0217
     13 C           1.5603    2.0068   -0.5699 C.ar    1  UNL1       -0.0518
     14 C           0.4465    2.7596   -0.4566 C.ar    1  UNL1       -0.0255
     15 C          -0.7041    2.2735    0.0932 C.ar    1  UNL1        0.1289
     16 F          -1.7664    3.0753    0.1925 F       1  UNL1       -0.2051
     17 C          -0.7901    0.9581    0.5644 C.ar    1  UNL1        0.0158
     18 C          -2.0618    0.5151    1.1834 C.3     1  UNL1        0.0935
     19 C          -1.8352   -0.8953    1.7627 C.3     1  UNL1       -0.0351
     20 N          -2.2801    1.4768    2.2690 N.2     1  UNL1       -0.2521
     21 C          -3.3365    1.5900    2.9431 C.2     1  UNL1        0.1485
     22 N          -3.5234    2.5381    3.9757 N.pl3   1  UNL1       -0.3380
     23 S          -4.6741    0.4850    2.5389 S.3     1  UNL1       -0.0744
     24 C          -4.5122    0.2043    0.7319 C.3     1  UNL1        0.1051
     25 C          -5.6861   -0.4296    0.0787 C.ar    1  UNL1        0.2125
     26 N          -6.2682   -1.5063    0.8595 N.ar    1  UNL1       -0.2203
     27 C          -7.2991   -1.9533    0.1235 C.ar    1  UNL1        0.0689
     28 C          -7.3493   -1.1826   -1.0643 C.ar    1  UNL1        0.1222
     29 C          -8.3282   -1.3304   -2.1497 C.3     1  UNL1       -0.0048
     30 O          -6.3575   -0.3727   -0.9158 O.2     1  UNL1       -0.4435
     31 C          -4.1135    1.4771   -0.0820 C.3     1  UNL1       -0.0219
     32 C          -3.1756    0.3924    0.2086 C.3     1  UNL1        0.0136
     33 C           0.3553    0.2065    0.4313 C.ar    1  UNL1       -0.0463
     34 C           5.5297   -0.4339   -0.5982 C.ar    1  UNL1        0.0596
     35 N           6.9041   -0.5896   -0.7396 N.ar    1  UNL1       -0.2178
     36 H           8.6960    1.5984   -3.7982 H       1  UNL1        0.1229
     37 H          10.5775   -1.1375   -1.0976 H       1  UNL1        0.0837
     38 H           9.2779   -0.4487   -0.1121 H       1  UNL1        0.0837
     39 H           6.8429   -3.7463   -1.7427 H       1  UNL1        0.0884
     40 H           3.6379    0.6201    0.1281 H       1  UNL1        0.0653
     41 H           2.4898    2.3690   -0.9647 H       1  UNL1        0.0624
     42 H           0.4700    3.7966   -0.8094 H       1  UNL1        0.0646
     43 H          -2.7358   -1.2015    2.3405 H       1  UNL1        0.0256
     44 H          -1.8318   -1.5704    0.8828 H       1  UNL1        0.0256
     45 H          -0.9175   -0.9464    2.3621 H       1  UNL1        0.0256
     46 H          -3.7423    3.5415    3.7887 H       1  UNL1        0.1442
     47 H          -3.4346    2.1493    4.9491 H       1  UNL1        0.1442
     48 H          -7.9667   -2.7756    0.4045 H       1  UNL1        0.0865
     49 H          -8.0081   -2.1378   -2.8812 H       1  UNL1        0.0308
     50 H          -9.3310   -1.5827   -1.7884 H       1  UNL1        0.0308
     51 H          -8.3964   -0.3579   -2.7006 H       1  UNL1        0.0308
     52 H          -4.2918    2.3750    0.5037 H       1  UNL1        0.0288
     53 H          -4.4967    1.5642   -1.1250 H       1  UNL1        0.0288
     54 H          -2.8713   -0.2483   -0.6694 H       1  UNL1        0.0346
     55 H           0.3108   -0.8231    0.7836 H       1  UNL1        0.0628
     56 H           5.2576    0.5619   -0.2676 H       1  UNL1        0.0853
@<TRIPOS>BOND
     1     1     2    3
     2     2     3    1
     3     3     4    1
     4     4     5    1
     5     5     6   ar
     6     6     7   ar
     7     7     8   ar
     8     8     9    1
     9     9    10    1
    10     9    11    2
    11    11    12    1
    12    12    13   ar
    13    13    14   ar
    14    14    15   ar
    15    15    16    1
    16    15    17   ar
    17    17    18    1
    18    18    19    1
    19    18    20    1
    20    20    21    2
    21    21    22    1
    22    21    23    1
    23    23    24    1
    24    24    25    1
    25    25    26   ar
    26    26    27   ar
    27    27    28   ar
    28    28    29    1
    29    28    30   ar
    30    24    31    1
    31    31    32    1
    32    17    33   ar
    33     8    34   ar
    34    34    35   ar
    35    35     5   ar
    36    33    12   ar
    37    32    18    1
    38    32    24    1
    39    30    25   ar
    40     1    36    1
    41     3    37    1
    42     3    38    1
    43     6    39    1
    44    11    40    1
    45    13    41    1
    46    14    42    1
    47    19    43    1
    48    19    44    1
    49    19    45    1
    50    22    46    1
    51    22    47    1
    52    27    48    1
    53    29    49    1
    54    29    50    1
    55    29    51    1
    56    31    52    1
    57    31    53    1
    58    32    54    1
    59    33    55    1
    60    34    56    1
