
     RDKit          3D

 56 60  0  0  0  0  0  0  0  0999 V2000
    8.9262    0.9389   -3.0772 C   0  0  0  0  0  0  0  0  0  0  0  0
    9.2171    0.1110   -2.1428 C   0  0  0  0  0  0  0  0  0  0  0  0
    9.5551   -0.8166   -1.0679 C   0  0  0  0  0  0  0  0  0  0  0  0
    8.7422   -1.9638   -1.3001 O   0  0  0  0  0  0  0  0  0  0  0  0
    7.3514   -1.7775   -1.1468 C   0  0  0  0  0  0  0  0  0  0  0  0
    6.4724   -2.7922   -1.4044 C   0  0  0  0  0  0  0  0  0  0  0  0
    5.1075   -2.6120   -1.2589 N   0  0  0  0  0  0  0  0  0  0  0  0
    4.6282   -1.4322   -0.8540 C   0  0  0  0  0  0  0  0  0  0  0  0
    3.1705   -1.1378   -0.7900 C   0  0  0  0  0  0  0  0  0  0  0  0
    2.2740   -2.0248   -1.2192 F   0  0  0  0  0  0  0  0  0  0  0  0
    2.7705    0.0098   -0.2948 C   0  0  0  0  0  0  0  0  0  0  0  0
    1.5140    0.6327   -0.0989 C   0  0  0  0  0  0  0  0  0  0  0  0
    1.5603    2.0068   -0.5699 C   0  0  0  0  0  0  0  0  0  0  0  0
    0.4465    2.7596   -0.4566 C   0  0  0  0  0  0  0  0  0  0  0  0
   -0.7041    2.2735    0.0932 C   0  0  0  0  0  0  0  0  0  0  0  0
   -1.7664    3.0753    0.1925 F   0  0  0  0  0  0  0  0  0  0  0  0
   -0.7901    0.9581    0.5644 C   0  0  0  0  0  0  0  0  0  0  0  0
   -2.0618    0.5151    1.1834 C   0  0  1  0  0  0  0  0  0  0  0  0
   -1.8352   -0.8953    1.7627 C   0  0  0  0  0  0  0  0  0  0  0  0
   -2.2801    1.4768    2.2690 N   0  0  0  0  0  0  0  0  0  0  0  0
   -3.3365    1.5900    2.9431 C   0  0  0  0  0  0  0  0  0  0  0  0
   -3.5234    2.5381    3.9757 N   0  0  0  0  0  0  0  0  0  0  0  0
   -4.6741    0.4850    2.5389 S   0  0  0  0  0  0  0  0  0  0  0  0
   -4.5122    0.2043    0.7319 C   0  0  1  0  0  0  0  0  0  0  0  0
   -5.6861   -0.4296    0.0787 C   0  0  0  0  0  0  0  0  0  0  0  0
   -6.2682   -1.5063    0.8595 N   0  0  0  0  0  0  0  0  0  0  0  0
   -7.2991   -1.9533    0.1235 C   0  0  0  0  0  0  0  0  0  0  0  0
   -7.3493   -1.1826   -1.0643 C   0  0  0  0  0  0  0  0  0  0  0  0
   -8.3282   -1.3304   -2.1497 C   0  0  0  0  0  0  0  0  0  0  0  0
   -6.3575   -0.3727   -0.9158 O   0  0  0  0  0  0  0  0  0  0  0  0
   -4.1135    1.4771   -0.0820 C   0  0  0  0  0  0  0  0  0  0  0  0
   -3.1756    0.3924    0.2086 C   0  0  1  0  0  0  0  0  0  0  0  0
    0.3553    0.2065    0.4313 C   0  0  0  0  0  0  0  0  0  0  0  0
    5.5297   -0.4339   -0.5982 C   0  0  0  0  0  0  0  0  0  0  0  0
    6.9041   -0.5896   -0.7396 N   0  0  0  0  0  0  0  0  0  0  0  0
    8.6960    1.5984   -3.7982 H   0  0  0  0  0  0  0  0  0  0  0  0
   10.5775   -1.1375   -1.0976 H   0  0  0  0  0  0  0  0  0  0  0  0
    9.2779   -0.4487   -0.1121 H   0  0  0  0  0  0  0  0  0  0  0  0
    6.8429   -3.7463   -1.7427 H   0  0  0  0  0  0  0  0  0  0  0  0
    3.6379    0.6201    0.1281 H   0  0  0  0  0  0  0  0  0  0  0  0
    2.4898    2.3690   -0.9647 H   0  0  0  0  0  0  0  0  0  0  0  0
    0.4700    3.7966   -0.8094 H   0  0  0  0  0  0  0  0  0  0  0  0
   -2.7358   -1.2015    2.3405 H   0  0  0  0  0  0  0  0  0  0  0  0
   -1.8318   -1.5704    0.8828 H   0  0  0  0  0  0  0  0  0  0  0  0
   -0.9175   -0.9464    2.3621 H   0  0  0  0  0  0  0  0  0  0  0  0
   -3.7423    3.5415    3.7887 H   0  0  0  0  0  0  0  0  0  0  0  0
   -3.4346    2.1493    4.9491 H   0  0  0  0  0  0  0  0  0  0  0  0
   -7.9667   -2.7756    0.4045 H   0  0  0  0  0  0  0  0  0  0  0  0
   -8.0081   -2.1378   -2.8812 H   0  0  0  0  0  0  0  0  0  0  0  0
   -9.3310   -1.5827   -1.7884 H   0  0  0  0  0  0  0  0  0  0  0  0
   -8.3964   -0.3579   -2.7006 H   0  0  0  0  0  0  0  0  0  0  0  0
   -4.2918    2.3750    0.5037 H   0  0  0  0  0  0  0  0  0  0  0  0
   -4.4967    1.5642   -1.1250 H   0  0  0  0  0  0  0  0  0  0  0  0
   -2.8713   -0.2483   -0.6694 H   0  0  0  0  0  0  0  0  0  0  0  0
    0.3108   -0.8231    0.7836 H   0  0  0  0  0  0  0  0  0  0  0  0
    5.2576    0.5619   -0.2676 H   0  0  0  0  0  0  0  0  0  0  0  0
  1  2  3  0
  2  3  1  0
  3  4  1  0
  4  5  1  0
  5  6  2  0
  6  7  1  0
  7  8  2  0
  8  9  1  0
  9 10  1  0
  9 11  2  0
 11 12  1  0
 12 13  2  0
 13 14  1  0
 14 15  2  0
 15 16  1  0
 15 17  1  0
 17 18  1  0
 18 19  1  1
 18 20  1  0
 20 21  2  0
 21 22  1  0
 21 23  1  0
 23 24  1  0
 24 25  1  6
 25 26  2  0
 26 27  1  0
 27 28  2  0
 28 29  1  0
 28 30  1  0
 24 31  1  0
 31 32  1  0
 17 33  2  0
  8 34  1  0
 34 35  2  0
 35  5  1  0
 33 12  1  0
 32 18  1  0
 32 24  1  0
 30 25  1  0
  1 36  1  0
  3 37  1  0
  3 38  1  0
  6 39  1  0
 11 40  1  0
 13 41  1  0
 14 42  1  0
 19 43  1  0
 19 44  1  0
 19 45  1  0
 22 46  1  0
 22 47  1  0
 27 48  1  0
 29 49  1  0
 29 50  1  0
 29 51  1  0
 31 52  1  0
 31 53  1  0
 32 54  1  6
 33 55  1  0
 34 56  1  0
M  END
$$$$
