@<TRIPOS>MOLECULE
*****
 47 50 0 0 0
SMALL
GASTEIGER

@<TRIPOS>ATOM
      1 C           4.3583    0.7275   -2.3993 C.3     1  UNL1       -0.0306
      2 C           2.9800    1.3964   -2.3847 C.3     1  UNL1        0.0900
      3 O           2.3621    1.0537   -1.1348 O.3     1  UNL1       -0.4604
      4 C           2.9161    1.3898    0.0764 C.2     1  UNL1        0.3577
      5 O           4.0185    2.0287    0.0151 O.2     1  UNL1       -0.2432
      6 C           2.3470    1.0757    1.3750 C.ar    1  UNL1        0.1508
      7 C           2.8914    1.4076    2.5930 C.ar    1  UNL1        0.0608
      8 N           2.0428    0.9258    3.5345 N.ar    1  UNL1       -0.2353
      9 C           0.9934    0.3081    2.9386 C.ar    1  UNL1        0.1382
     10 C          -0.1308   -0.3399    3.3999 C.ar    1  UNL1       -0.0182
     11 C          -1.0413   -0.8804    2.5215 C.ar    1  UNL1       -0.0477
     12 C          -0.8363   -0.7782    1.1637 C.ar    1  UNL1        0.0173
     13 C          -1.7639   -1.3302    0.1827 C.ar    1  UNL1        0.0780
     14 C          -2.4473   -0.5541   -0.7592 C.ar    1  UNL1        0.0967
     15 C          -2.3173    0.8929   -0.8739 C.ar    1  UNL1        0.0026
     16 C          -1.8410    1.4711   -2.0289 C.ar    1  UNL1       -0.0498
     17 C          -1.7179    2.8569   -2.1356 C.ar    1  UNL1       -0.0258
     18 C          -2.0812    3.6362   -1.0650 C.ar    1  UNL1        0.1234
     19 F          -1.9535    4.9925   -1.1893 F       1  UNL1       -0.2055
     20 C          -2.5626    3.0874    0.1077 C.ar    1  UNL1       -0.0258
     21 C          -2.6710    1.6962    0.1750 C.ar    1  UNL1       -0.0498
     22 N          -3.1933   -1.3990   -1.4748 N.ar    1  UNL1       -0.2351
     23 C          -3.0062   -2.6512   -1.0248 C.ar    1  UNL1        0.0972
     24 N          -2.1295   -2.6087   -0.0082 N.ar    1  UNL1       -0.3241
     25 C          -1.6637   -3.7511    0.7469 C.3     1  UNL1        0.0852
     26 C          -0.4233   -4.3542    0.1216 C.3     1  UNL1        0.2569
     27 F          -0.6579   -4.7797   -1.1649 F       1  UNL1       -0.2073
     28 F           0.6114   -3.4465    0.0656 F       1  UNL1       -0.2073
     29 C           0.3181   -0.1119    0.7553 C.ar    1  UNL1        0.0211
     30 N           1.2048    0.4144    1.6095 N.ar    1  UNL1       -0.2934
     31 H           4.6101    0.3306   -3.3920 H       1  UNL1        0.0262
     32 H           5.1184    1.4280   -1.9961 H       1  UNL1        0.0262
     33 H           4.3397   -0.1393   -1.6835 H       1  UNL1        0.0262
     34 H           3.0756    2.4895   -2.4169 H       1  UNL1        0.0695
     35 H           2.4093    0.9490   -3.2007 H       1  UNL1        0.0695
     36 H           3.8193    1.9491    2.7375 H       1  UNL1        0.0854
     37 H          -0.2699   -0.4070    4.4895 H       1  UNL1        0.0654
     38 H          -1.9125   -1.3819    2.9144 H       1  UNL1        0.0626
     39 H          -1.5533    0.8667   -2.8744 H       1  UNL1        0.0625
     40 H          -1.3417    3.2967   -3.0501 H       1  UNL1        0.0646
     41 H          -2.8380    3.7223    0.9259 H       1  UNL1        0.0646
     42 H          -3.0504    1.3008    1.1055 H       1  UNL1        0.0625
     43 H          -3.4884   -3.5593   -1.4204 H       1  UNL1        0.1029
     44 H          -1.4036   -3.4422    1.7863 H       1  UNL1        0.0548
     45 H          -2.4714   -4.5106    0.7655 H       1  UNL1        0.0548
     46 H          -0.1272   -5.2358    0.7306 H       1  UNL1        0.1037
     47 H           0.4778   -0.0324   -0.3262 H       1  UNL1        0.0820
@<TRIPOS>BOND
     1     1     2    1
     2     2     3    1
     3     3     4    1
     4     4     5    2
     5     4     6    1
     6     6     7   ar
     7     7     8   ar
     8     8     9   ar
     9     9    10   ar
    10    10    11   ar
    11    11    12   ar
    12    12    13    1
    13    13    14   ar
    14    14    15    1
    15    15    16   ar
    16    16    17   ar
    17    17    18   ar
    18    18    19    1
    19    18    20   ar
    20    20    21   ar
    21    14    22   ar
    22    22    23   ar
    23    23    24   ar
    24    24    25    1
    25    25    26    1
    26    26    27    1
    27    26    28    1
    28    12    29   ar
    29    29    30   ar
    30    30     6   ar
    31    30     9   ar
    32    24    13   ar
    33    21    15   ar
    34     1    31    1
    35     1    32    1
    36     1    33    1
    37     2    34    1
    38     2    35    1
    39     7    36    1
    40    10    37    1
    41    11    38    1
    42    16    39    1
    43    17    40    1
    44    20    41    1
    45    21    42    1
    46    23    43    1
    47    25    44    1
    48    25    45    1
    49    26    46    1
    50    29    47    1
