
     RDKit          3D

 52 54  0  0  0  0  0  0  0  0999 V2000
   -0.4036   -3.4339    0.6947 C   0  0  0  0  0  0  0  0  0  0  0  0
   -1.3813   -2.3176    0.6257 C   0  0  0  0  0  0  0  0  0  0  0  0
   -2.6811   -2.4656    1.0931 C   0  0  0  0  0  0  0  0  0  0  0  0
   -3.5414   -1.3934    1.0015 C   0  0  0  0  0  0  0  0  0  0  0  0
   -3.1644   -0.1813    0.4651 C   0  0  0  0  0  0  0  0  0  0  0  0
   -4.0692    0.9595    0.3647 C   0  0  0  0  0  0  0  0  0  0  0  0
   -3.6201    2.0155   -0.1474 O   0  0  0  0  0  0  0  0  0  0  0  0
   -5.4085    0.9555    0.8024 N   0  0  0  0  0  0  0  0  0  0  0  0
   -6.2780    2.1321    0.6783 C   0  0  0  0  0  0  0  0  0  0  0  0
   -7.6486    1.8495    1.2205 C   0  0  0  0  0  0  0  0  0  0  0  0
   -8.1924    0.7864    0.4856 O   0  0  0  0  0  0  0  0  0  0  0  0
   -1.8493   -0.0877    0.0116 C   0  0  0  0  0  0  0  0  0  0  0  0
   -0.9473   -1.1233    0.0773 C   0  0  0  0  0  0  0  0  0  0  0  0
    0.3877   -1.0025   -0.3923 N   0  0  0  0  0  0  0  0  0  0  0  0
    1.4390   -0.8987    0.4601 C   0  0  0  0  0  0  0  0  0  0  0  0
    2.7046   -0.7844    0.0751 N   0  0  0  0  0  0  0  0  0  0  0  0
    3.0239   -0.7646   -1.2280 C   0  0  0  0  0  0  0  0  0  0  0  0
    4.3513   -0.6442   -1.5782 O   0  0  0  0  0  0  0  0  0  0  0  0
    5.4207   -0.5387   -0.6952 C   0  0  0  0  0  0  0  0  0  0  0  0
    5.3631    0.6351    0.2098 C   0  0  0  0  0  0  0  0  0  0  0  0
    5.0073    0.4806    1.5310 C   0  0  0  0  0  0  0  0  0  0  0  0
    4.9579    1.5866    2.3708 C   0  0  0  0  0  0  0  0  0  0  0  0
    5.2548    2.8483    1.9276 C   0  0  0  0  0  0  0  0  0  0  0  0
    5.2164    3.9542    2.7232 F   0  0  0  0  0  0  0  0  0  0  0  0
    5.6129    3.0066    0.5995 C   0  0  0  0  0  0  0  0  0  0  0  0
    5.6618    1.9057   -0.2356 C   0  0  0  0  0  0  0  0  0  0  0  0
    6.0143    2.0720   -1.5400 F   0  0  0  0  0  0  0  0  0  0  0  0
    2.0021   -0.8661   -2.1302 C   0  0  0  0  0  0  0  0  0  0  0  0
    2.3100   -0.8485   -3.5824 C   0  0  0  0  0  0  0  0  0  0  0  0
    0.6978   -0.9836   -1.7030 C   0  0  0  0  0  0  0  0  0  0  0  0
   -0.2355   -1.0764   -2.5299 O   0  0  0  0  0  0  0  0  0  0  0  0
    0.3142   -3.2985    1.5244 H   0  0  0  0  0  0  0  0  0  0  0  0
   -0.9433   -4.4063    0.7468 H   0  0  0  0  0  0  0  0  0  0  0  0
    0.2122   -3.4906   -0.2474 H   0  0  0  0  0  0  0  0  0  0  0  0
   -2.9777   -3.4262    1.5171 H   0  0  0  0  0  0  0  0  0  0  0  0
   -4.5503   -1.4996    1.3611 H   0  0  0  0  0  0  0  0  0  0  0  0
   -5.7893    0.0871    1.2275 H   0  0  0  0  0  0  0  0  0  0  0  0
   -5.8451    2.9435    1.3215 H   0  0  0  0  0  0  0  0  0  0  0  0
   -6.3008    2.4698   -0.3556 H   0  0  0  0  0  0  0  0  0  0  0  0
   -7.6222    1.6240    2.3020 H   0  0  0  0  0  0  0  0  0  0  0  0
   -8.2494    2.7748    1.0826 H   0  0  0  0  0  0  0  0  0  0  0  0
   -8.1092   -0.0305    1.0487 H   0  0  0  0  0  0  0  0  0  0  0  0
   -1.5407    0.8669   -0.4142 H   0  0  0  0  0  0  0  0  0  0  0  0
    1.1662   -0.9162    1.5175 H   0  0  0  0  0  0  0  0  0  0  0  0
    6.3608   -0.4785   -1.3051 H   0  0  0  0  0  0  0  0  0  0  0  0
    5.4401   -1.4723   -0.0733 H   0  0  0  0  0  0  0  0  0  0  0  0
    4.7568   -0.4724    1.9705 H   0  0  0  0  0  0  0  0  0  0  0  0
    4.6766    1.4537    3.4103 H   0  0  0  0  0  0  0  0  0  0  0  0
    5.8573    4.0015    0.2092 H   0  0  0  0  0  0  0  0  0  0  0  0
    2.2533    0.2160   -3.9077 H   0  0  0  0  0  0  0  0  0  0  0  0
    1.5504   -1.4623   -4.1228 H   0  0  0  0  0  0  0  0  0  0  0  0
    3.3353   -1.2612   -3.7357 H   0  0  0  0  0  0  0  0  0  0  0  0
  1  2  1  0
  2  3  2  0
  3  4  1  0
  4  5  2  0
  5  6  1  0
  6  7  2  0
  6  8  1  0
  8  9  1  0
  9 10  1  0
 10 11  1  0
  5 12  1  0
 12 13  2  0
 13 14  1  0
 14 15  1  0
 15 16  2  0
 16 17  1  0
 17 18  1  0
 18 19  1  0
 19 20  1  0
 20 21  2  0
 21 22  1  0
 22 23  2  0
 23 24  1  0
 23 25  1  0
 25 26  2  0
 26 27  1  0
 17 28  2  0
 28 29  1  0
 28 30  1  0
 30 31  2  0
 13  2  1  0
 30 14  1  0
 26 20  1  0
  1 32  1  0
  1 33  1  0
  1 34  1  0
  3 35  1  0
  4 36  1  0
  8 37  1  0
  9 38  1  0
  9 39  1  0
 10 40  1  0
 10 41  1  0
 11 42  1  0
 12 43  1  0
 15 44  1  0
 19 45  1  0
 19 46  1  0
 21 47  1  0
 22 48  1  0
 25 49  1  0
 29 50  1  0
 29 51  1  0
 29 52  1  0
M  END
$$$$
