@<TRIPOS>MOLECULE
*****
 52 54 0 0 0
SMALL
GASTEIGER

@<TRIPOS>ATOM
      1 C          -0.4036   -3.4339    0.6947 C.3     1  UNL1       -0.0377
      2 C          -1.3813   -2.3176    0.6257 C.ar    1  UNL1       -0.0264
      3 C          -2.6811   -2.4656    1.0931 C.ar    1  UNL1       -0.0562
      4 C          -3.5414   -1.3934    1.0015 C.ar    1  UNL1       -0.0493
      5 C          -3.1644   -0.1813    0.4651 C.ar    1  UNL1        0.0387
      6 C          -4.0692    0.9595    0.3647 C.2     1  UNL1        0.2442
      7 O          -3.6201    2.0155   -0.1474 O.2     1  UNL1       -0.2702
      8 N          -5.4085    0.9555    0.8024 N.am    1  UNL1       -0.3092
      9 C          -6.2780    2.1321    0.6783 C.3     1  UNL1        0.0351
     10 C          -7.6486    1.8495    1.2205 C.3     1  UNL1        0.0597
     11 O          -8.1924    0.7864    0.4856 O.3     1  UNL1       -0.3935
     12 C          -1.8493   -0.0877    0.0116 C.ar    1  UNL1       -0.0253
     13 C          -0.9473   -1.1233    0.0773 C.ar    1  UNL1        0.0545
     14 N           0.3877   -1.0025   -0.3923 N.ar    1  UNL1       -0.2669
     15 C           1.4390   -0.8987    0.4601 C.ar    1  UNL1        0.1070
     16 N           2.7046   -0.7844    0.0751 N.ar    1  UNL1       -0.2024
     17 C           3.0239   -0.7646   -1.2280 C.ar    1  UNL1        0.2246
     18 O           4.3513   -0.6442   -1.5782 O.3     1  UNL1       -0.4712
     19 C           5.4207   -0.5387   -0.6952 C.3     1  UNL1        0.1189
     20 C           5.3631    0.6351    0.2098 C.ar    1  UNL1        0.0250
     21 C           5.0073    0.4806    1.5310 C.ar    1  UNL1       -0.0499
     22 C           4.9579    1.5866    2.3708 C.ar    1  UNL1       -0.0259
     23 C           5.2548    2.8483    1.9276 C.ar    1  UNL1        0.1261
     24 F           5.2164    3.9542    2.7232 F       1  UNL1       -0.2054
     25 C           5.6129    3.0066    0.5995 C.ar    1  UNL1        0.0092
     26 C           5.6618    1.9057   -0.2356 C.ar    1  UNL1        0.1325
     27 F           6.0143    2.0720   -1.5400 F       1  UNL1       -0.2050
     28 C           2.0021   -0.8661   -2.1302 C.ar    1  UNL1        0.0757
     29 C           2.3100   -0.8485   -3.5824 C.3     1  UNL1       -0.0294
     30 C           0.6978   -0.9836   -1.7030 C.ar    1  UNL1        0.2649
     31 O          -0.2355   -1.0764   -2.5299 O.2     1  UNL1       -0.2668
     32 H           0.3142   -3.2985    1.5244 H       1  UNL1        0.0278
     33 H          -0.9433   -4.4063    0.7468 H       1  UNL1        0.0278
     34 H           0.2122   -3.4906   -0.2474 H       1  UNL1        0.0278
     35 H          -2.9777   -3.4262    1.5171 H       1  UNL1        0.0621
     36 H          -4.5503   -1.4996    1.3611 H       1  UNL1        0.0625
     37 H          -5.7893    0.0871    1.2275 H       1  UNL1        0.1491
     38 H          -5.8451    2.9435    1.3215 H       1  UNL1        0.0485
     39 H          -6.3008    2.4698   -0.3556 H       1  UNL1        0.0485
     40 H          -7.6222    1.6240    2.3020 H       1  UNL1        0.0573
     41 H          -8.2494    2.7748    1.0826 H       1  UNL1        0.0573
     42 H          -8.1092   -0.0305    1.0487 H       1  UNL1        0.2095
     43 H          -1.5407    0.8669   -0.4142 H       1  UNL1        0.0646
     44 H           1.1662   -0.9162    1.5175 H       1  UNL1        0.1034
     45 H           6.3608   -0.4785   -1.3051 H       1  UNL1        0.0749
     46 H           5.4401   -1.4723   -0.0733 H       1  UNL1        0.0749
     47 H           4.7568   -0.4724    1.9705 H       1  UNL1        0.0623
     48 H           4.6766    1.4537    3.4103 H       1  UNL1        0.0646
     49 H           5.8573    4.0015    0.2092 H       1  UNL1        0.0675
     50 H           2.2533    0.2160   -3.9077 H       1  UNL1        0.0281
     51 H           1.5504   -1.4623   -4.1228 H       1  UNL1        0.0281
     52 H           3.3353   -1.2612   -3.7357 H       1  UNL1        0.0281
@<TRIPOS>BOND
     1     1     2    1
     2     2     3   ar
     3     3     4   ar
     4     4     5   ar
     5     5     6    1
     6     6     7    2
     7     6     8   am
     8     8     9    1
     9     9    10    1
    10    10    11    1
    11     5    12   ar
    12    12    13   ar
    13    13    14    1
    14    14    15   ar
    15    15    16   ar
    16    16    17   ar
    17    17    18    1
    18    18    19    1
    19    19    20    1
    20    20    21   ar
    21    21    22   ar
    22    22    23   ar
    23    23    24    1
    24    23    25   ar
    25    25    26   ar
    26    26    27    1
    27    17    28   ar
    28    28    29    1
    29    28    30   ar
    30    30    31    2
    31    13     2   ar
    32    30    14   ar
    33    26    20   ar
    34     1    32    1
    35     1    33    1
    36     1    34    1
    37     3    35    1
    38     4    36    1
    39     8    37    1
    40     9    38    1
    41     9    39    1
    42    10    40    1
    43    10    41    1
    44    11    42    1
    45    12    43    1
    46    15    44    1
    47    19    45    1
    48    19    46    1
    49    21    47    1
    50    22    48    1
    51    25    49    1
    52    29    50    1
    53    29    51    1
    54    29    52    1
