@<TRIPOS>MOLECULE
*****
 76 80 0 0 0
SMALL
GASTEIGER

@<TRIPOS>ATOM
      1 C          -5.1010   -3.9230   -3.1310 C.3     1  UNL1       -0.0397
      2 C          -4.9973   -2.8680   -2.0940 C.ar    1  UNL1       -0.0503
      3 C          -5.0112   -1.5412   -2.5369 C.ar    1  UNL1       -0.0568
      4 C          -4.9173   -0.5200   -1.6089 C.ar    1  UNL1       -0.0359
      5 C          -4.8103   -0.7795   -0.2588 C.ar    1  UNL1        0.0674
      6 N          -4.7168    0.3070    0.6553 N.ar    1  UNL1       -0.2181
      7 N          -5.5734    1.3389    0.7243 N.ar    1  UNL1       -0.1691
      8 C          -5.2007    2.1885    1.6907 C.ar    1  UNL1        0.0706
      9 C          -5.9333    3.4379    2.0313 C.3     1  UNL1        0.0063
     10 C          -5.2503    4.1482    3.1550 C.3     1  UNL1       -0.0546
     11 C          -6.0062    4.3089    0.7854 C.3     1  UNL1       -0.0546
     12 C          -7.3420    3.0771    2.4161 C.3     1  UNL1       -0.0546
     13 C          -4.0538    1.6594    2.2527 C.ar    1  UNL1        0.0021
     14 C          -3.7703    0.4961    1.5993 C.ar    1  UNL1        0.1299
     15 N          -2.6896   -0.3979    1.8247 N.am    1  UNL1       -0.2538
     16 C          -1.4566   -0.2869    1.1647 C.2     1  UNL1        0.3092
     17 O          -1.2862    0.6417    0.3341 O.2     1  UNL1       -0.2521
     18 N          -0.3521   -1.1686    1.3676 N.am    1  UNL1       -0.2686
     19 C           0.8773   -1.0156    0.6704 C.ar    1  UNL1        0.0427
     20 C           1.9339   -0.2674    1.1143 C.ar    1  UNL1       -0.0364
     21 C           3.0900   -0.1851    0.3459 C.ar    1  UNL1       -0.0176
     22 C           3.2207   -0.8320   -0.8580 C.ar    1  UNL1        0.1283
     23 O           4.3080   -0.7816   -1.6311 O.3     1  UNL1       -0.4901
     24 C           5.5350   -0.1828   -1.5560 C.3     1  UNL1        0.1023
     25 C           6.4348   -0.5880   -0.4244 C.3     1  UNL1        0.0333
     26 N           7.6485    0.1691   -0.5560 N.3     1  UNL1       -0.2948
     27 C           7.5413    1.5665   -0.3215 C.3     1  UNL1        0.0225
     28 C           8.9392    2.0849   -0.0139 C.3     1  UNL1        0.0604
     29 O           9.3290    1.5239    1.1927 O.3     1  UNL1       -0.3772
     30 C           9.4310    0.1451    1.1432 C.3     1  UNL1        0.0604
     31 C           8.8350   -0.4564   -0.0980 C.3     1  UNL1        0.0225
     32 C           2.1298   -1.5877   -1.2880 C.ar    1  UNL1        0.0256
     33 C           2.2378   -2.2454   -2.4925 C.ar    1  UNL1       -0.0505
     34 C           1.1736   -3.0155   -2.9674 C.ar    1  UNL1       -0.0611
     35 C           0.0186   -3.1093   -2.2196 C.ar    1  UNL1       -0.0611
     36 C          -0.0788   -2.4470   -1.0155 C.ar    1  UNL1       -0.0521
     37 C           0.9766   -1.6766   -0.5332 C.ar    1  UNL1        0.0069
     38 C          -4.8012   -2.0997    0.1242 C.ar    1  UNL1       -0.0359
     39 C          -4.8912   -3.1477   -0.7495 C.ar    1  UNL1       -0.0568
     40 H          -6.1846   -4.2257   -3.1743 H       1  UNL1        0.0278
     41 H          -4.7612   -3.5861   -4.1171 H       1  UNL1        0.0278
     42 H          -4.5525   -4.8263   -2.7865 H       1  UNL1        0.0278
     43 H          -5.0942   -1.3099   -3.5920 H       1  UNL1        0.0621
     44 H          -4.9315    0.4907   -1.9919 H       1  UNL1        0.0639
     45 H          -4.8864    3.4046    3.9048 H       1  UNL1        0.0239
     46 H          -4.4753    4.8584    2.8578 H       1  UNL1        0.0239
     47 H          -6.0399    4.7320    3.7066 H       1  UNL1        0.0239
     48 H          -6.2100    3.6873   -0.0874 H       1  UNL1        0.0239
     49 H          -5.0305    4.8215    0.6607 H       1  UNL1        0.0239
     50 H          -6.8370    5.0344    0.9041 H       1  UNL1        0.0239
     51 H          -7.9997    3.9722    2.3941 H       1  UNL1        0.0239
     52 H          -7.7193    2.3393    1.6572 H       1  UNL1        0.0239
     53 H          -7.3885    2.5590    3.3988 H       1  UNL1        0.0239
     54 H          -3.5201    2.1182    3.0551 H       1  UNL1        0.0671
     55 H          -2.7938   -1.1844    2.5099 H       1  UNL1        0.1578
     56 H          -0.4587   -1.9379    2.0436 H       1  UNL1        0.1564
     57 H           1.8436    0.2528    2.0717 H       1  UNL1        0.0637
     58 H           3.8754    0.4211    0.7419 H       1  UNL1        0.0655
     59 H           6.1458   -0.3034   -2.5031 H       1  UNL1        0.0709
     60 H           5.3530    0.9368   -1.5358 H       1  UNL1        0.0709
     61 H           6.7296   -1.6757   -0.5405 H       1  UNL1        0.0460
     62 H           5.9955   -0.5275    0.5733 H       1  UNL1        0.0460
     63 H           7.1291    2.0488   -1.2367 H       1  UNL1        0.0449
     64 H           6.8926    1.7455    0.5611 H       1  UNL1        0.0449
     65 H           9.6291    1.7956   -0.8441 H       1  UNL1        0.0572
     66 H           8.9413    3.1859    0.1016 H       1  UNL1        0.0572
     67 H           9.0205   -0.3492    2.0312 H       1  UNL1        0.0572
     68 H          10.5232   -0.0965    1.1297 H       1  UNL1        0.0572
     69 H           9.6038   -0.3749   -0.9203 H       1  UNL1        0.0449
     70 H           8.7129   -1.5436    0.0949 H       1  UNL1        0.0449
     71 H           3.1580   -2.1620   -3.0733 H       1  UNL1        0.0625
     72 H           1.2975   -3.5113   -3.9092 H       1  UNL1        0.0618
     73 H          -0.8071   -3.7194   -2.6100 H       1  UNL1        0.0618
     74 H          -0.9768   -2.5143   -0.4247 H       1  UNL1        0.0624
     75 H          -4.7186   -2.3322    1.1745 H       1  UNL1        0.0639
     76 H          -4.8855   -4.1941   -0.4638 H       1  UNL1        0.0621
@<TRIPOS>BOND
     1     1     2    1
     2     2     3   ar
     3     3     4   ar
     4     4     5   ar
     5     5     6    1
     6     6     7   ar
     7     7     8   ar
     8     8     9    1
     9     9    10    1
    10     9    11    1
    11     9    12    1
    12     8    13   ar
    13    13    14   ar
    14    14    15    1
    15    15    16   am
    16    16    17    2
    17    16    18   am
    18    18    19    1
    19    19    20   ar
    20    20    21   ar
    21    21    22   ar
    22    22    23    1
    23    23    24    1
    24    24    25    1
    25    25    26    1
    26    26    27    1
    27    27    28    1
    28    28    29    1
    29    29    30    1
    30    30    31    1
    31    22    32   ar
    32    32    33   ar
    33    33    34   ar
    34    34    35   ar
    35    35    36   ar
    36    36    37   ar
    37     5    38   ar
    38    38    39   ar
    39    39     2   ar
    40    14     6   ar
    41    37    19   ar
    42    31    26    1
    43    37    32   ar
    44     1    40    1
    45     1    41    1
    46     1    42    1
    47     3    43    1
    48     4    44    1
    49    10    45    1
    50    10    46    1
    51    10    47    1
    52    11    48    1
    53    11    49    1
    54    11    50    1
    55    12    51    1
    56    12    52    1
    57    12    53    1
    58    13    54    1
    59    15    55    1
    60    18    56    1
    61    20    57    1
    62    21    58    1
    63    24    59    1
    64    24    60    1
    65    25    61    1
    66    25    62    1
    67    27    63    1
    68    27    64    1
    69    28    65    1
    70    28    66    1
    71    30    67    1
    72    30    68    1
    73    31    69    1
    74    31    70    1
    75    33    71    1
    76    34    72    1
    77    35    73    1
    78    36    74    1
    79    38    75    1
    80    39    76    1
