
     RDKit          3D

 76 80  0  0  0  0  0  0  0  0999 V2000
   -5.1010   -3.9230   -3.1310 C   0  0  0  0  0  0  0  0  0  0  0  0
   -4.9973   -2.8680   -2.0940 C   0  0  0  0  0  0  0  0  0  0  0  0
   -5.0112   -1.5412   -2.5369 C   0  0  0  0  0  0  0  0  0  0  0  0
   -4.9173   -0.5200   -1.6089 C   0  0  0  0  0  0  0  0  0  0  0  0
   -4.8103   -0.7795   -0.2588 C   0  0  0  0  0  0  0  0  0  0  0  0
   -4.7168    0.3070    0.6553 N   0  0  0  0  0  0  0  0  0  0  0  0
   -5.5734    1.3389    0.7243 N   0  0  0  0  0  0  0  0  0  0  0  0
   -5.2007    2.1885    1.6907 C   0  0  0  0  0  0  0  0  0  0  0  0
   -5.9333    3.4379    2.0313 C   0  0  0  0  0  0  0  0  0  0  0  0
   -5.2503    4.1482    3.1550 C   0  0  0  0  0  0  0  0  0  0  0  0
   -6.0062    4.3089    0.7854 C   0  0  0  0  0  0  0  0  0  0  0  0
   -7.3420    3.0771    2.4161 C   0  0  0  0  0  0  0  0  0  0  0  0
   -4.0538    1.6594    2.2527 C   0  0  0  0  0  0  0  0  0  0  0  0
   -3.7703    0.4961    1.5993 C   0  0  0  0  0  0  0  0  0  0  0  0
   -2.6896   -0.3979    1.8247 N   0  0  0  0  0  0  0  0  0  0  0  0
   -1.4566   -0.2869    1.1647 C   0  0  0  0  0  0  0  0  0  0  0  0
   -1.2862    0.6417    0.3341 O   0  0  0  0  0  0  0  0  0  0  0  0
   -0.3521   -1.1686    1.3676 N   0  0  0  0  0  0  0  0  0  0  0  0
    0.8773   -1.0156    0.6704 C   0  0  0  0  0  0  0  0  0  0  0  0
    1.9339   -0.2674    1.1143 C   0  0  0  0  0  0  0  0  0  0  0  0
    3.0900   -0.1851    0.3459 C   0  0  0  0  0  0  0  0  0  0  0  0
    3.2207   -0.8320   -0.8580 C   0  0  0  0  0  0  0  0  0  0  0  0
    4.3080   -0.7816   -1.6311 O   0  0  0  0  0  0  0  0  0  0  0  0
    5.5350   -0.1828   -1.5560 C   0  0  0  0  0  0  0  0  0  0  0  0
    6.4348   -0.5880   -0.4244 C   0  0  0  0  0  0  0  0  0  0  0  0
    7.6485    0.1691   -0.5560 N   0  0  0  0  0  0  0  0  0  0  0  0
    7.5413    1.5665   -0.3215 C   0  0  0  0  0  0  0  0  0  0  0  0
    8.9392    2.0849   -0.0139 C   0  0  0  0  0  0  0  0  0  0  0  0
    9.3290    1.5239    1.1927 O   0  0  0  0  0  0  0  0  0  0  0  0
    9.4310    0.1451    1.1432 C   0  0  0  0  0  0  0  0  0  0  0  0
    8.8350   -0.4564   -0.0980 C   0  0  0  0  0  0  0  0  0  0  0  0
    2.1298   -1.5877   -1.2880 C   0  0  0  0  0  0  0  0  0  0  0  0
    2.2378   -2.2454   -2.4925 C   0  0  0  0  0  0  0  0  0  0  0  0
    1.1736   -3.0155   -2.9674 C   0  0  0  0  0  0  0  0  0  0  0  0
    0.0186   -3.1093   -2.2196 C   0  0  0  0  0  0  0  0  0  0  0  0
   -0.0788   -2.4470   -1.0155 C   0  0  0  0  0  0  0  0  0  0  0  0
    0.9766   -1.6766   -0.5332 C   0  0  0  0  0  0  0  0  0  0  0  0
   -4.8012   -2.0997    0.1242 C   0  0  0  0  0  0  0  0  0  0  0  0
   -4.8912   -3.1477   -0.7495 C   0  0  0  0  0  0  0  0  0  0  0  0
   -6.1846   -4.2257   -3.1743 H   0  0  0  0  0  0  0  0  0  0  0  0
   -4.7612   -3.5861   -4.1171 H   0  0  0  0  0  0  0  0  0  0  0  0
   -4.5525   -4.8263   -2.7865 H   0  0  0  0  0  0  0  0  0  0  0  0
   -5.0942   -1.3099   -3.5920 H   0  0  0  0  0  0  0  0  0  0  0  0
   -4.9315    0.4907   -1.9919 H   0  0  0  0  0  0  0  0  0  0  0  0
   -4.8864    3.4046    3.9048 H   0  0  0  0  0  0  0  0  0  0  0  0
   -4.4753    4.8584    2.8578 H   0  0  0  0  0  0  0  0  0  0  0  0
   -6.0399    4.7320    3.7066 H   0  0  0  0  0  0  0  0  0  0  0  0
   -6.2100    3.6873   -0.0874 H   0  0  0  0  0  0  0  0  0  0  0  0
   -5.0305    4.8215    0.6607 H   0  0  0  0  0  0  0  0  0  0  0  0
   -6.8370    5.0344    0.9041 H   0  0  0  0  0  0  0  0  0  0  0  0
   -7.9997    3.9722    2.3941 H   0  0  0  0  0  0  0  0  0  0  0  0
   -7.7193    2.3393    1.6572 H   0  0  0  0  0  0  0  0  0  0  0  0
   -7.3885    2.5590    3.3988 H   0  0  0  0  0  0  0  0  0  0  0  0
   -3.5201    2.1182    3.0551 H   0  0  0  0  0  0  0  0  0  0  0  0
   -2.7938   -1.1844    2.5099 H   0  0  0  0  0  0  0  0  0  0  0  0
   -0.4587   -1.9379    2.0436 H   0  0  0  0  0  0  0  0  0  0  0  0
    1.8436    0.2528    2.0717 H   0  0  0  0  0  0  0  0  0  0  0  0
    3.8754    0.4211    0.7419 H   0  0  0  0  0  0  0  0  0  0  0  0
    6.1458   -0.3034   -2.5031 H   0  0  0  0  0  0  0  0  0  0  0  0
    5.3530    0.9368   -1.5358 H   0  0  0  0  0  0  0  0  0  0  0  0
    6.7296   -1.6757   -0.5405 H   0  0  0  0  0  0  0  0  0  0  0  0
    5.9955   -0.5275    0.5733 H   0  0  0  0  0  0  0  0  0  0  0  0
    7.1291    2.0488   -1.2367 H   0  0  0  0  0  0  0  0  0  0  0  0
    6.8926    1.7455    0.5611 H   0  0  0  0  0  0  0  0  0  0  0  0
    9.6291    1.7956   -0.8441 H   0  0  0  0  0  0  0  0  0  0  0  0
    8.9413    3.1859    0.1016 H   0  0  0  0  0  0  0  0  0  0  0  0
    9.0205   -0.3492    2.0312 H   0  0  0  0  0  0  0  0  0  0  0  0
   10.5232   -0.0965    1.1297 H   0  0  0  0  0  0  0  0  0  0  0  0
    9.6038   -0.3749   -0.9203 H   0  0  0  0  0  0  0  0  0  0  0  0
    8.7129   -1.5436    0.0949 H   0  0  0  0  0  0  0  0  0  0  0  0
    3.1580   -2.1620   -3.0733 H   0  0  0  0  0  0  0  0  0  0  0  0
    1.2975   -3.5113   -3.9092 H   0  0  0  0  0  0  0  0  0  0  0  0
   -0.8071   -3.7194   -2.6100 H   0  0  0  0  0  0  0  0  0  0  0  0
   -0.9768   -2.5143   -0.4247 H   0  0  0  0  0  0  0  0  0  0  0  0
   -4.7186   -2.3322    1.1745 H   0  0  0  0  0  0  0  0  0  0  0  0
   -4.8855   -4.1941   -0.4638 H   0  0  0  0  0  0  0  0  0  0  0  0
  1  2  1  0
  2  3  2  0
  3  4  1  0
  4  5  2  0
  5  6  1  0
  6  7  1  0
  7  8  2  0
  8  9  1  0
  9 10  1  0
  9 11  1  0
  9 12  1  0
  8 13  1  0
 13 14  2  0
 14 15  1  0
 15 16  1  0
 16 17  2  0
 16 18  1  0
 18 19  1  0
 19 20  2  0
 20 21  1  0
 21 22  2  0
 22 23  1  0
 23 24  1  0
 24 25  1  0
 25 26  1  0
 26 27  1  0
 27 28  1  0
 28 29  1  0
 29 30  1  0
 30 31  1  0
 22 32  1  0
 32 33  2  0
 33 34  1  0
 34 35  2  0
 35 36  1  0
 36 37  2  0
  5 38  1  0
 38 39  2  0
 39  2  1  0
 14  6  1  0
 37 19  1  0
 31 26  1  0
 37 32  1  0
  1 40  1  0
  1 41  1  0
  1 42  1  0
  3 43  1  0
  4 44  1  0
 10 45  1  0
 10 46  1  0
 10 47  1  0
 11 48  1  0
 11 49  1  0
 11 50  1  0
 12 51  1  0
 12 52  1  0
 12 53  1  0
 13 54  1  0
 15 55  1  0
 18 56  1  0
 20 57  1  0
 21 58  1  0
 24 59  1  0
 24 60  1  0
 25 61  1  0
 25 62  1  0
 27 63  1  0
 27 64  1  0
 28 65  1  0
 28 66  1  0
 30 67  1  0
 30 68  1  0
 31 69  1  0
 31 70  1  0
 33 71  1  0
 34 72  1  0
 35 73  1  0
 36 74  1  0
 38 75  1  0
 39 76  1  0
M  END
$$$$
