@<TRIPOS>MOLECULE
*****
 29 30 0 0 0
SMALL
GASTEIGER

@<TRIPOS>ATOM
      1 O           0.9033    1.5643    1.5224 O.3     1  UNL1       -0.4770
      2 C           2.1423    0.9059    1.5444 C.2     1  UNL1        0.3404
      3 O           2.8326    1.1089    2.5738 O.2     1  UNL1       -0.2450
      4 C           2.5691    0.0452    0.4205 C.ar    1  UNL1        0.1011
      5 C           3.8084   -0.5450    0.5645 C.ar    1  UNL1       -0.0442
      6 C           4.2403   -1.3647   -0.4813 C.ar    1  UNL1       -0.0608
      7 C           3.4774   -1.5833   -1.6087 C.ar    1  UNL1       -0.0582
      8 C           2.2318   -0.9714   -1.7199 C.ar    1  UNL1       -0.0184
      9 C           1.7667   -0.1488   -0.7011 C.ar    1  UNL1        0.1459
     10 O           0.5151    0.4960   -0.7595 O.3     1  UNL1       -0.4214
     11 C          -0.5267   -0.2358   -0.2274 C.2     1  UNL1        0.3480
     12 O           0.0612   -1.2963    0.1469 O.2     1  UNL1       -0.2444
     13 C          -1.9269    0.0585   -0.0972 C.ar    1  UNL1        0.1007
     14 C          -2.6756   -0.9346    0.4992 C.ar    1  UNL1       -0.0442
     15 C          -4.0417   -0.7438    0.6703 C.ar    1  UNL1       -0.0608
     16 C          -4.6808    0.4177    0.2594 C.ar    1  UNL1       -0.0583
     17 C          -3.8966    1.3817   -0.3304 C.ar    1  UNL1       -0.0194
     18 C          -2.5362    1.2252   -0.5161 C.ar    1  UNL1        0.1308
     19 O          -1.7458    2.1971   -1.1106 O.3     1  UNL1       -0.5059
     20 H           0.9144    2.5195    1.9093 H       1  UNL1        0.2954
     21 H           4.4186   -0.3770    1.4539 H       1  UNL1        0.0627
     22 H           5.2097   -1.8474   -0.4062 H       1  UNL1        0.0618
     23 H           3.8360   -2.2284   -2.4137 H       1  UNL1        0.0619
     24 H           1.6181   -1.1256   -2.5882 H       1  UNL1        0.0654
     25 H          -2.2487   -1.8739    0.8484 H       1  UNL1        0.0627
     26 H          -4.6228   -1.5450    1.1470 H       1  UNL1        0.0618
     27 H          -5.7340    0.4837    0.4284 H       1  UNL1        0.0619
     28 H          -4.3836    2.2963   -0.6570 H       1  UNL1        0.0654
     29 H          -1.5256    2.1210   -2.1129 H       1  UNL1        0.2922
@<TRIPOS>BOND
     1     1     2    1
     2     2     3    2
     3     2     4    1
     4     4     5   ar
     5     5     6   ar
     6     6     7   ar
     7     7     8   ar
     8     8     9   ar
     9     9    10    1
    10    10    11    1
    11    11    12    2
    12    11    13    1
    13    13    14   ar
    14    14    15   ar
    15    15    16   ar
    16    16    17   ar
    17    17    18   ar
    18    18    19    1
    19     9     4   ar
    20    18    13   ar
    21     1    20    1
    22     5    21    1
    23     6    22    1
    24     7    23    1
    25     8    24    1
    26    14    25    1
    27    15    26    1
    28    16    27    1
    29    17    28    1
    30    19    29    1
