
     RDKit          3D

 29 30  0  0  0  0  0  0  0  0999 V2000
    0.9033    1.5643    1.5224 O   0  0  0  0  0  0  0  0  0  0  0  0
    2.1423    0.9059    1.5444 C   0  0  0  0  0  0  0  0  0  0  0  0
    2.8326    1.1089    2.5738 O   0  0  0  0  0  0  0  0  0  0  0  0
    2.5691    0.0452    0.4205 C   0  0  0  0  0  0  0  0  0  0  0  0
    3.8084   -0.5450    0.5645 C   0  0  0  0  0  0  0  0  0  0  0  0
    4.2403   -1.3647   -0.4813 C   0  0  0  0  0  0  0  0  0  0  0  0
    3.4774   -1.5833   -1.6087 C   0  0  0  0  0  0  0  0  0  0  0  0
    2.2318   -0.9714   -1.7199 C   0  0  0  0  0  0  0  0  0  0  0  0
    1.7667   -0.1488   -0.7011 C   0  0  0  0  0  0  0  0  0  0  0  0
    0.5151    0.4960   -0.7595 O   0  0  0  0  0  0  0  0  0  0  0  0
   -0.5267   -0.2358   -0.2274 C   0  0  0  0  0  0  0  0  0  0  0  0
    0.0612   -1.2963    0.1469 O   0  0  0  0  0  0  0  0  0  0  0  0
   -1.9269    0.0585   -0.0972 C   0  0  0  0  0  0  0  0  0  0  0  0
   -2.6756   -0.9346    0.4992 C   0  0  0  0  0  0  0  0  0  0  0  0
   -4.0417   -0.7438    0.6703 C   0  0  0  0  0  0  0  0  0  0  0  0
   -4.6808    0.4177    0.2594 C   0  0  0  0  0  0  0  0  0  0  0  0
   -3.8966    1.3817   -0.3304 C   0  0  0  0  0  0  0  0  0  0  0  0
   -2.5362    1.2252   -0.5161 C   0  0  0  0  0  0  0  0  0  0  0  0
   -1.7458    2.1971   -1.1106 O   0  0  0  0  0  0  0  0  0  0  0  0
    0.9144    2.5195    1.9093 H   0  0  0  0  0  0  0  0  0  0  0  0
    4.4186   -0.3770    1.4539 H   0  0  0  0  0  0  0  0  0  0  0  0
    5.2097   -1.8474   -0.4062 H   0  0  0  0  0  0  0  0  0  0  0  0
    3.8360   -2.2284   -2.4137 H   0  0  0  0  0  0  0  0  0  0  0  0
    1.6181   -1.1256   -2.5882 H   0  0  0  0  0  0  0  0  0  0  0  0
   -2.2487   -1.8739    0.8484 H   0  0  0  0  0  0  0  0  0  0  0  0
   -4.6228   -1.5450    1.1470 H   0  0  0  0  0  0  0  0  0  0  0  0
   -5.7340    0.4837    0.4284 H   0  0  0  0  0  0  0  0  0  0  0  0
   -4.3836    2.2963   -0.6570 H   0  0  0  0  0  0  0  0  0  0  0  0
   -1.5256    2.1210   -2.1129 H   0  0  0  0  0  0  0  0  0  0  0  0
  1  2  1  0
  2  3  2  0
  2  4  1  0
  4  5  2  0
  5  6  1  0
  6  7  2  0
  7  8  1  0
  8  9  2  0
  9 10  1  0
 10 11  1  0
 11 12  2  0
 11 13  1  0
 13 14  2  0
 14 15  1  0
 15 16  2  0
 16 17  1  0
 17 18  2  0
 18 19  1  0
  9  4  1  0
 18 13  1  0
  1 20  1  0
  5 21  1  0
  6 22  1  0
  7 23  1  0
  8 24  1  0
 14 25  1  0
 15 26  1  0
 16 27  1  0
 17 28  1  0
 19 29  1  0
M  END
$$$$
