@<TRIPOS>MOLECULE
*****
 53 58 0 0 0
SMALL
GASTEIGER

@<TRIPOS>ATOM
      1 C           3.8642   -1.3344   -3.5655 C.3     1  UNL1       -0.0361
      2 C           3.2819   -0.9978   -2.2254 C.ar    1  UNL1       -0.0041
      3 C           1.9202   -0.9127   -2.0220 C.ar    1  UNL1       -0.0324
      4 C           1.3801   -0.6011   -0.7828 C.ar    1  UNL1        0.0545
      5 N          -0.0121   -0.5315   -0.5761 N.am    1  UNL1       -0.2531
      6 C          -0.8079   -1.6119   -0.1230 C.2     1  UNL1        0.2700
      7 O          -0.4240   -2.7680    0.1787 O.2     1  UNL1       -0.2679
      8 C          -2.1880   -1.1694   -0.0559 C.ar    1  UNL1        0.1297
      9 C          -2.2023    0.1446   -0.4610 C.ar    1  UNL1        0.0330
     10 C          -3.5346    0.5404   -0.4037 C.ar    1  UNL1        0.0943
     11 C          -4.1565    1.8434   -0.7429 C.3     1  UNL1        0.0883
     12 O          -4.2417    1.9774   -2.1394 O.3     1  UNL1       -0.3888
     13 N          -4.2174   -0.5300    0.0219 N.ar    1  UNL1       -0.1726
     14 N          -3.4210   -1.5606    0.2336 N.ar    1  UNL1       -0.2555
     15 C          -3.8809   -2.8537    0.6981 C.3     1  UNL1        0.0537
     16 C          -4.3532   -2.8525    2.1583 C.3     1  UNL1       -0.0285
     17 C          -3.1708   -3.6456    1.6885 C.3     1  UNL1       -0.0285
     18 C          -0.8555    0.6089   -0.7840 C.3     1  UNL1        0.0855
     19 C          -0.4042    1.8089   -0.0374 C.ar    1  UNL1       -0.0221
     20 C           0.8210    2.3295   -0.3984 C.ar    1  UNL1       -0.0551
     21 C           1.3417    3.4298    0.2534 C.ar    1  UNL1       -0.0431
     22 C           0.5978    3.9724    1.2584 C.ar    1  UNL1        0.0410
     23 CL          1.2404    5.3687    2.0973 Cl      1  UNL1       -0.0835
     24 C          -0.6223    3.4765    1.6381 C.ar    1  UNL1       -0.0431
     25 C          -1.1239    2.3817    0.9789 C.ar    1  UNL1       -0.0551
     26 C           2.2891   -0.3757    0.2579 C.ar    1  UNL1        0.0344
     27 N           3.6161   -0.4528    0.0842 N.ar    1  UNL1       -0.2846
     28 C           4.6524   -0.2723    0.9514 C.ar    1  UNL1        0.1347
     29 C           4.4979    0.0715    2.3680 C.3     1  UNL1       -0.0041
     30 N           5.7695   -0.4750    0.2301 N.ar    1  UNL1       -0.1340
     31 N           5.4360   -0.7671   -1.0247 N.ar    1  UNL1       -0.1292
     32 C           4.0958   -0.7582   -1.1353 C.ar    1  UNL1        0.1641
     33 H           4.8747   -0.8679   -3.5986 H       1  UNL1        0.0279
     34 H           3.9528   -2.4286   -3.7088 H       1  UNL1        0.0279
     35 H           3.2024   -0.9544   -4.3617 H       1  UNL1        0.0279
     36 H           1.2397   -1.0893   -2.8344 H       1  UNL1        0.0640
     37 H          -3.6524    2.7211   -0.3474 H       1  UNL1        0.0623
     38 H          -5.2240    1.8296   -0.3956 H       1  UNL1        0.0623
     39 H          -4.9596    1.3514   -2.4633 H       1  UNL1        0.2099
     40 H          -4.5396   -3.3645   -0.0325 H       1  UNL1        0.0545
     41 H          -5.3162   -3.3865    2.3793 H       1  UNL1        0.0286
     42 H          -4.1702   -1.9621    2.7690 H       1  UNL1        0.0286
     43 H          -2.2260   -3.3887    2.1602 H       1  UNL1        0.0286
     44 H          -3.3591   -4.7586    1.6544 H       1  UNL1        0.0286
     45 H          -0.7477    0.8707   -1.8740 H       1  UNL1        0.0606
     46 H           1.3908    1.8916   -1.2059 H       1  UNL1        0.0621
     47 H           2.2987    3.7938   -0.0665 H       1  UNL1        0.0632
     48 H          -1.1647    3.9649    2.4552 H       1  UNL1        0.0632
     49 H          -2.0664    1.9710    1.2552 H       1  UNL1        0.0621
     50 H           1.9045   -0.1319    1.2316 H       1  UNL1        0.0833
     51 H           3.8016   -0.6287    2.9066 H       1  UNL1        0.0308
     52 H           4.1104    1.0915    2.5525 H       1  UNL1        0.0308
     53 H           5.4626   -0.0077    2.9053 H       1  UNL1        0.0308
@<TRIPOS>BOND
     1     1     2    1
     2     2     3   ar
     3     3     4   ar
     4     4     5    1
     5     5     6   am
     6     6     7    2
     7     6     8    1
     8     8     9   ar
     9     9    10   ar
    10    10    11    1
    11    11    12    1
    12    10    13   ar
    13    13    14   ar
    14    14    15    1
    15    15    16    1
    16    16    17    1
    17     9    18    1
    18    18    19    1
    19    19    20   ar
    20    20    21   ar
    21    21    22   ar
    22    22    23    1
    23    22    24   ar
    24    24    25   ar
    25     4    26   ar
    26    26    27   ar
    27    27    28   ar
    28    28    29    1
    29    28    30   ar
    30    30    31   ar
    31    31    32   ar
    32    32     2   ar
    33    18     5    1
    34    25    19   ar
    35    32    27   ar
    36    14     8   ar
    37    17    15    1
    38     1    33    1
    39     1    34    1
    40     1    35    1
    41     3    36    1
    42    11    37    1
    43    11    38    1
    44    12    39    1
    45    15    40    1
    46    16    41    1
    47    16    42    1
    48    17    43    1
    49    17    44    1
    50    18    45    1
    51    20    46    1
    52    21    47    1
    53    24    48    1
    54    25    49    1
    55    26    50    1
    56    29    51    1
    57    29    52    1
    58    29    53    1
