@<TRIPOS>MOLECULE
*****
 83 86 0 0 0
SMALL
GASTEIGER

@<TRIPOS>ATOM
      1 O           3.7651    3.8825    0.5478 O.2     1  UNL1       -0.2510
      2 C           4.9291    4.2783    0.2807 C.2     1  UNL1        0.3048
      3 O           5.2057    5.6336    0.5534 O.3     1  UNL1       -0.4806
      4 C           5.9455    3.3695   -0.2877 C.3     1  UNL1        0.0478
      5 C           5.6460    3.0182   -1.7102 C.3     1  UNL1       -0.0086
      6 C           4.3158    2.3140   -1.8922 C.3     1  UNL1        0.0901
      7 O           4.2730    1.1021   -1.1642 O.3     1  UNL1       -0.4917
      8 C           3.1490    0.3164   -1.2206 C.ar    1  UNL1        0.1239
      9 C           2.0593    0.6522   -1.9930 C.ar    1  UNL1       -0.0197
     10 C           0.9765   -0.1985   -1.9995 C.ar    1  UNL1       -0.0580
     11 C           1.0054   -1.3590   -1.2378 C.ar    1  UNL1       -0.0581
     12 C           2.0972   -1.6997   -0.4585 C.ar    1  UNL1       -0.0407
     13 C           2.0602   -2.9252    0.3319 C.3     1  UNL1       -0.0273
     14 C           0.6720   -3.3871    0.6461 C.3     1  UNL1       -0.0490
     15 C          -0.1657   -2.4167    1.4415 C.3     1  UNL1       -0.0527
     16 C           0.4111   -2.0734    2.7826 C.3     1  UNL1       -0.0500
     17 C          -0.4137   -1.0791    3.5170 C.3     1  UNL1       -0.0186
     18 C          -1.7959   -1.5156    3.8108 C.3     1  UNL1        0.0896
     19 O          -2.6619   -1.8029    2.7990 O.3     1  UNL1       -0.4919
     20 C          -3.1667   -0.9720    1.8511 C.ar    1  UNL1        0.1217
     21 C          -4.0258   -1.5447    0.8797 C.ar    1  UNL1       -0.0122
     22 C          -4.5975   -0.8187   -0.1221 C.ar    1  UNL1       -0.0139
     23 C          -5.4693   -1.4124   -1.1333 C.ar    1  UNL1       -0.0178
     24 C          -6.2599   -2.4871   -0.7800 C.ar    1  UNL1       -0.0540
     25 C          -7.1082   -3.1140   -1.6795 C.ar    1  UNL1       -0.0612
     26 C          -7.1524   -2.6351   -2.9714 C.ar    1  UNL1       -0.0617
     27 C          -6.3811   -1.5670   -3.3680 C.ar    1  UNL1       -0.0612
     28 C          -5.5504   -0.9736   -2.4350 C.ar    1  UNL1       -0.0540
     29 C          -4.3412    0.5520   -0.2172 C.ar    1  UNL1       -0.0461
     30 C          -3.5088    1.1442    0.7136 C.ar    1  UNL1       -0.0139
     31 C          -3.2489    2.5610    0.5991 C.ar    1  UNL1       -0.0178
     32 C          -3.0183    3.3026    1.7285 C.ar    1  UNL1       -0.0540
     33 C          -2.7620    4.6557    1.7084 C.ar    1  UNL1       -0.0612
     34 C          -2.7383    5.2925    0.4863 C.ar    1  UNL1       -0.0617
     35 C          -2.9739    4.5356   -0.6714 C.ar    1  UNL1       -0.0612
     36 C          -3.2253    3.1943   -0.6262 C.ar    1  UNL1       -0.0540
     37 C          -2.9592    0.3646    1.7020 C.ar    1  UNL1       -0.0122
     38 C           3.1713   -0.8578   -0.4524 C.ar    1  UNL1       -0.0020
     39 C           4.3587   -1.1441    0.3419 C.3     1  UNL1       -0.0139
     40 C           5.5259   -1.6469   -0.5144 C.3     1  UNL1        0.0489
     41 C           5.2225   -2.8878   -1.2321 C.2     1  UNL1        0.3050
     42 O           5.2405   -4.0030   -0.6437 O.2     1  UNL1       -0.2510
     43 O           4.9071   -2.8857   -2.5847 O.3     1  UNL1       -0.4806
     44 H           4.5609    6.1790    1.1147 H       1  UNL1        0.2951
     45 H           6.9273    3.8892   -0.2833 H       1  UNL1        0.0378
     46 H           6.0449    2.4334    0.3006 H       1  UNL1        0.0378
     47 H           5.6372    3.9220   -2.3588 H       1  UNL1        0.0303
     48 H           6.4567    2.3748   -2.1402 H       1  UNL1        0.0303
     49 H           3.4669    2.9521   -1.5822 H       1  UNL1        0.0696
     50 H           4.2297    2.0245   -2.9677 H       1  UNL1        0.0696
     51 H           2.0444    1.5682   -2.5938 H       1  UNL1        0.0654
     52 H           0.1065    0.0389   -2.5987 H       1  UNL1        0.0619
     53 H           0.1120   -1.9917   -1.3106 H       1  UNL1        0.0620
     54 H           2.5373   -3.7335   -0.3004 H       1  UNL1        0.0313
     55 H           2.5964   -2.8809    1.3083 H       1  UNL1        0.0313
     56 H           0.1237   -3.7230   -0.2665 H       1  UNL1        0.0268
     57 H           0.7129   -4.3300    1.2796 H       1  UNL1        0.0268
     58 H          -0.3434   -1.4955    0.8917 H       1  UNL1        0.0265
     59 H          -1.1669   -2.9271    1.6475 H       1  UNL1        0.0265
     60 H           1.4574   -1.6839    2.5929 H       1  UNL1        0.0266
     61 H           0.5614   -2.9933    3.4091 H       1  UNL1        0.0266
     62 H           0.0880   -0.9849    4.5478 H       1  UNL1        0.0298
     63 H          -0.3350   -0.0526    3.0918 H       1  UNL1        0.0298
     64 H          -1.7376   -2.3716    4.5592 H       1  UNL1        0.0696
     65 H          -2.2312   -0.6825    4.4815 H       1  UNL1        0.0696
     66 H          -4.2316   -2.6079    0.9475 H       1  UNL1        0.0660
     67 H          -6.2300   -2.8714    0.2278 H       1  UNL1        0.0624
     68 H          -7.7337   -3.9614   -1.4034 H       1  UNL1        0.0618
     69 H          -7.8214   -3.1196   -3.7008 H       1  UNL1        0.0618
     70 H          -6.4526   -1.2301   -4.3923 H       1  UNL1        0.0618
     71 H          -4.9297   -0.1284   -2.7155 H       1  UNL1        0.0624
     72 H          -4.8145    1.0909   -1.0223 H       1  UNL1        0.0630
     73 H          -3.0392    2.7856    2.6819 H       1  UNL1        0.0624
     74 H          -2.5817    5.2111    2.6156 H       1  UNL1        0.0618
     75 H          -2.5448    6.3520    0.4026 H       1  UNL1        0.0618
     76 H          -2.9519    5.0422   -1.6211 H       1  UNL1        0.0618
     77 H          -3.4084    2.5705   -1.4876 H       1  UNL1        0.0624
     78 H          -2.3196    0.8530    2.4354 H       1  UNL1        0.0660
     79 H           4.7463   -0.1539    0.7409 H       1  UNL1        0.0320
     80 H           4.2216   -1.7515    1.2433 H       1  UNL1        0.0320
     81 H           6.3697   -1.8059    0.1856 H       1  UNL1        0.0381
     82 H           5.8135   -0.8132   -1.1979 H       1  UNL1        0.0381
     83 H           4.6457   -3.7559   -3.0446 H       1  UNL1        0.2951
@<TRIPOS>BOND
     1     1     2    2
     2     2     3    1
     3     2     4    1
     4     4     5    1
     5     5     6    1
     6     6     7    1
     7     7     8    1
     8     8     9   ar
     9     9    10   ar
    10    10    11   ar
    11    11    12   ar
    12    12    13    1
    13    13    14    1
    14    14    15    1
    15    15    16    1
    16    16    17    1
    17    17    18    1
    18    18    19    1
    19    19    20    1
    20    20    21   ar
    21    21    22   ar
    22    22    23    1
    23    23    24   ar
    24    24    25   ar
    25    25    26   ar
    26    26    27   ar
    27    27    28   ar
    28    22    29   ar
    29    29    30   ar
    30    30    31    1
    31    31    32   ar
    32    32    33   ar
    33    33    34   ar
    34    34    35   ar
    35    35    36   ar
    36    30    37   ar
    37    12    38   ar
    38    38    39    1
    39    39    40    1
    40    40    41    1
    41    41    42    2
    42    41    43    1
    43    38     8   ar
    44    37    20   ar
    45    28    23   ar
    46    36    31   ar
    47     3    44    1
    48     4    45    1
    49     4    46    1
    50     5    47    1
    51     5    48    1
    52     6    49    1
    53     6    50    1
    54     9    51    1
    55    10    52    1
    56    11    53    1
    57    13    54    1
    58    13    55    1
    59    14    56    1
    60    14    57    1
    61    15    58    1
    62    15    59    1
    63    16    60    1
    64    16    61    1
    65    17    62    1
    66    17    63    1
    67    18    64    1
    68    18    65    1
    69    21    66    1
    70    24    67    1
    71    25    68    1
    72    26    69    1
    73    27    70    1
    74    28    71    1
    75    29    72    1
    76    32    73    1
    77    33    74    1
    78    34    75    1
    79    35    76    1
    80    36    77    1
    81    37    78    1
    82    39    79    1
    83    39    80    1
    84    40    81    1
    85    40    82    1
    86    43    83    1
