
     RDKit          3D

 83 86  0  0  0  0  0  0  0  0999 V2000
    3.7651    3.8825    0.5478 O   0  0  0  0  0  0  0  0  0  0  0  0
    4.9291    4.2783    0.2807 C   0  0  0  0  0  0  0  0  0  0  0  0
    5.2057    5.6336    0.5534 O   0  0  0  0  0  0  0  0  0  0  0  0
    5.9455    3.3695   -0.2877 C   0  0  0  0  0  0  0  0  0  0  0  0
    5.6460    3.0182   -1.7102 C   0  0  0  0  0  0  0  0  0  0  0  0
    4.3158    2.3140   -1.8922 C   0  0  0  0  0  0  0  0  0  0  0  0
    4.2730    1.1021   -1.1642 O   0  0  0  0  0  0  0  0  0  0  0  0
    3.1490    0.3164   -1.2206 C   0  0  0  0  0  0  0  0  0  0  0  0
    2.0593    0.6522   -1.9930 C   0  0  0  0  0  0  0  0  0  0  0  0
    0.9765   -0.1985   -1.9995 C   0  0  0  0  0  0  0  0  0  0  0  0
    1.0054   -1.3590   -1.2378 C   0  0  0  0  0  0  0  0  0  0  0  0
    2.0972   -1.6997   -0.4585 C   0  0  0  0  0  0  0  0  0  0  0  0
    2.0602   -2.9252    0.3319 C   0  0  0  0  0  0  0  0  0  0  0  0
    0.6720   -3.3871    0.6461 C   0  0  0  0  0  0  0  0  0  0  0  0
   -0.1657   -2.4167    1.4415 C   0  0  0  0  0  0  0  0  0  0  0  0
    0.4111   -2.0734    2.7826 C   0  0  0  0  0  0  0  0  0  0  0  0
   -0.4137   -1.0791    3.5170 C   0  0  0  0  0  0  0  0  0  0  0  0
   -1.7959   -1.5156    3.8108 C   0  0  0  0  0  0  0  0  0  0  0  0
   -2.6619   -1.8029    2.7990 O   0  0  0  0  0  0  0  0  0  0  0  0
   -3.1667   -0.9720    1.8511 C   0  0  0  0  0  0  0  0  0  0  0  0
   -4.0258   -1.5447    0.8797 C   0  0  0  0  0  0  0  0  0  0  0  0
   -4.5975   -0.8187   -0.1221 C   0  0  0  0  0  0  0  0  0  0  0  0
   -5.4693   -1.4124   -1.1333 C   0  0  0  0  0  0  0  0  0  0  0  0
   -6.2599   -2.4871   -0.7800 C   0  0  0  0  0  0  0  0  0  0  0  0
   -7.1082   -3.1140   -1.6795 C   0  0  0  0  0  0  0  0  0  0  0  0
   -7.1524   -2.6351   -2.9714 C   0  0  0  0  0  0  0  0  0  0  0  0
   -6.3811   -1.5670   -3.3680 C   0  0  0  0  0  0  0  0  0  0  0  0
   -5.5504   -0.9736   -2.4350 C   0  0  0  0  0  0  0  0  0  0  0  0
   -4.3412    0.5520   -0.2172 C   0  0  0  0  0  0  0  0  0  0  0  0
   -3.5088    1.1442    0.7136 C   0  0  0  0  0  0  0  0  0  0  0  0
   -3.2489    2.5610    0.5991 C   0  0  0  0  0  0  0  0  0  0  0  0
   -3.0183    3.3026    1.7285 C   0  0  0  0  0  0  0  0  0  0  0  0
   -2.7620    4.6557    1.7084 C   0  0  0  0  0  0  0  0  0  0  0  0
   -2.7383    5.2925    0.4863 C   0  0  0  0  0  0  0  0  0  0  0  0
   -2.9739    4.5356   -0.6714 C   0  0  0  0  0  0  0  0  0  0  0  0
   -3.2253    3.1943   -0.6262 C   0  0  0  0  0  0  0  0  0  0  0  0
   -2.9592    0.3646    1.7020 C   0  0  0  0  0  0  0  0  0  0  0  0
    3.1713   -0.8578   -0.4524 C   0  0  0  0  0  0  0  0  0  0  0  0
    4.3587   -1.1441    0.3419 C   0  0  0  0  0  0  0  0  0  0  0  0
    5.5259   -1.6469   -0.5144 C   0  0  0  0  0  0  0  0  0  0  0  0
    5.2225   -2.8878   -1.2321 C   0  0  0  0  0  0  0  0  0  0  0  0
    5.2405   -4.0030   -0.6437 O   0  0  0  0  0  0  0  0  0  0  0  0
    4.9071   -2.8857   -2.5847 O   0  0  0  0  0  0  0  0  0  0  0  0
    4.5609    6.1790    1.1147 H   0  0  0  0  0  0  0  0  0  0  0  0
    6.9273    3.8892   -0.2833 H   0  0  0  0  0  0  0  0  0  0  0  0
    6.0449    2.4334    0.3006 H   0  0  0  0  0  0  0  0  0  0  0  0
    5.6372    3.9220   -2.3588 H   0  0  0  0  0  0  0  0  0  0  0  0
    6.4567    2.3748   -2.1402 H   0  0  0  0  0  0  0  0  0  0  0  0
    3.4669    2.9521   -1.5822 H   0  0  0  0  0  0  0  0  0  0  0  0
    4.2297    2.0245   -2.9677 H   0  0  0  0  0  0  0  0  0  0  0  0
    2.0444    1.5682   -2.5938 H   0  0  0  0  0  0  0  0  0  0  0  0
    0.1065    0.0389   -2.5987 H   0  0  0  0  0  0  0  0  0  0  0  0
    0.1120   -1.9917   -1.3106 H   0  0  0  0  0  0  0  0  0  0  0  0
    2.5373   -3.7335   -0.3004 H   0  0  0  0  0  0  0  0  0  0  0  0
    2.5964   -2.8809    1.3083 H   0  0  0  0  0  0  0  0  0  0  0  0
    0.1237   -3.7230   -0.2665 H   0  0  0  0  0  0  0  0  0  0  0  0
    0.7129   -4.3300    1.2796 H   0  0  0  0  0  0  0  0  0  0  0  0
   -0.3434   -1.4955    0.8917 H   0  0  0  0  0  0  0  0  0  0  0  0
   -1.1669   -2.9271    1.6475 H   0  0  0  0  0  0  0  0  0  0  0  0
    1.4574   -1.6839    2.5929 H   0  0  0  0  0  0  0  0  0  0  0  0
    0.5614   -2.9933    3.4091 H   0  0  0  0  0  0  0  0  0  0  0  0
    0.0880   -0.9849    4.5478 H   0  0  0  0  0  0  0  0  0  0  0  0
   -0.3350   -0.0526    3.0918 H   0  0  0  0  0  0  0  0  0  0  0  0
   -1.7376   -2.3716    4.5592 H   0  0  0  0  0  0  0  0  0  0  0  0
   -2.2312   -0.6825    4.4815 H   0  0  0  0  0  0  0  0  0  0  0  0
   -4.2316   -2.6079    0.9475 H   0  0  0  0  0  0  0  0  0  0  0  0
   -6.2300   -2.8714    0.2278 H   0  0  0  0  0  0  0  0  0  0  0  0
   -7.7337   -3.9614   -1.4034 H   0  0  0  0  0  0  0  0  0  0  0  0
   -7.8214   -3.1196   -3.7008 H   0  0  0  0  0  0  0  0  0  0  0  0
   -6.4526   -1.2301   -4.3923 H   0  0  0  0  0  0  0  0  0  0  0  0
   -4.9297   -0.1284   -2.7155 H   0  0  0  0  0  0  0  0  0  0  0  0
   -4.8145    1.0909   -1.0223 H   0  0  0  0  0  0  0  0  0  0  0  0
   -3.0392    2.7856    2.6819 H   0  0  0  0  0  0  0  0  0  0  0  0
   -2.5817    5.2111    2.6156 H   0  0  0  0  0  0  0  0  0  0  0  0
   -2.5448    6.3520    0.4026 H   0  0  0  0  0  0  0  0  0  0  0  0
   -2.9519    5.0422   -1.6211 H   0  0  0  0  0  0  0  0  0  0  0  0
   -3.4084    2.5705   -1.4876 H   0  0  0  0  0  0  0  0  0  0  0  0
   -2.3196    0.8530    2.4354 H   0  0  0  0  0  0  0  0  0  0  0  0
    4.7463   -0.1539    0.7409 H   0  0  0  0  0  0  0  0  0  0  0  0
    4.2216   -1.7515    1.2433 H   0  0  0  0  0  0  0  0  0  0  0  0
    6.3697   -1.8059    0.1856 H   0  0  0  0  0  0  0  0  0  0  0  0
    5.8135   -0.8132   -1.1979 H   0  0  0  0  0  0  0  0  0  0  0  0
    4.6457   -3.7559   -3.0446 H   0  0  0  0  0  0  0  0  0  0  0  0
  1  2  2  0
  2  3  1  0
  2  4  1  0
  4  5  1  0
  5  6  1  0
  6  7  1  0
  7  8  1  0
  8  9  2  0
  9 10  1  0
 10 11  2  0
 11 12  1  0
 12 13  1  0
 13 14  1  0
 14 15  1  0
 15 16  1  0
 16 17  1  0
 17 18  1  0
 18 19  1  0
 19 20  1  0
 20 21  2  0
 21 22  1  0
 22 23  1  0
 23 24  2  0
 24 25  1  0
 25 26  2  0
 26 27  1  0
 27 28  2  0
 22 29  2  0
 29 30  1  0
 30 31  1  0
 31 32  2  0
 32 33  1  0
 33 34  2  0
 34 35  1  0
 35 36  2  0
 30 37  2  0
 12 38  2  0
 38 39  1  0
 39 40  1  0
 40 41  1  0
 41 42  2  0
 41 43  1  0
 38  8  1  0
 37 20  1  0
 28 23  1  0
 36 31  1  0
  3 44  1  0
  4 45  1  0
  4 46  1  0
  5 47  1  0
  5 48  1  0
  6 49  1  0
  6 50  1  0
  9 51  1  0
 10 52  1  0
 11 53  1  0
 13 54  1  0
 13 55  1  0
 14 56  1  0
 14 57  1  0
 15 58  1  0
 15 59  1  0
 16 60  1  0
 16 61  1  0
 17 62  1  0
 17 63  1  0
 18 64  1  0
 18 65  1  0
 21 66  1  0
 24 67  1  0
 25 68  1  0
 26 69  1  0
 27 70  1  0
 28 71  1  0
 29 72  1  0
 32 73  1  0
 33 74  1  0
 34 75  1  0
 35 76  1  0
 36 77  1  0
 37 78  1  0
 39 79  1  0
 39 80  1  0
 40 81  1  0
 40 82  1  0
 43 83  1  0
M  END
$$$$
