@<TRIPOS>MOLECULE
*****
 29 29 0 0 0
SMALL
GASTEIGER

@<TRIPOS>ATOM
      1 O           5.6599   -0.1063    0.8567 O.2     1  UNL1        0.0414
      2 N           4.5684   -0.6989    0.8115 N.pl3   1  UNL1        0.0797
      3 O           4.5207   -1.9825    1.2975 O.co2   1  UNL1       -0.5760
      4 C           3.3977   -0.0885    0.2795 C.ar    1  UNL1        0.2749
      5 C           3.4328    1.1968   -0.2103 C.ar    1  UNL1        0.0157
      6 C           2.3288    1.8300   -0.7344 C.ar    1  UNL1       -0.0536
      7 C           1.1092    1.1641   -0.7836 C.ar    1  UNL1       -0.0404
      8 C           1.0491   -0.1237   -0.2988 C.ar    1  UNL1        0.0346
      9 N          -0.1827   -0.8453   -0.3209 N.pl3   1  UNL1       -0.3211
     10 C          -1.4099   -0.2954   -0.8070 C.3     1  UNL1        0.2245
     11 P          -2.0435    1.0918    0.1402 P.3     1  UNL1        0.3596
     12 O          -2.4069    2.2277   -0.7866 O.2     1  UNL1       -0.2562
     13 O          -0.9483    1.6820    1.2821 O.3     1  UNL1       -0.3224
     14 O          -3.4306    0.6336    1.0378 O.3     1  UNL1       -0.3224
     15 P          -2.6952   -1.5960   -0.7957 P.3     1  UNL1        0.3596
     16 O          -2.0779   -2.9455   -1.0116 O.2     1  UNL1       -0.2562
     17 O          -3.8551   -1.3116   -1.9786 O.3     1  UNL1       -0.3224
     18 O          -3.4565   -1.5122    0.7128 O.3     1  UNL1       -0.3224
     19 C           2.1843   -0.7364    0.2251 C.ar    1  UNL1        0.0364
     20 H           4.3914    1.7065   -0.1664 H       1  UNL1        0.0685
     21 H           2.3608    2.8406   -1.1185 H       1  UNL1        0.0620
     22 H           0.2233    1.6031   -1.1832 H       1  UNL1        0.0636
     23 H          -0.1781   -1.8389    0.0438 H       1  UNL1        0.1475
     24 H          -1.2674    0.0358   -1.8746 H       1  UNL1        0.0754
     25 H          -1.0693    2.6390    1.3729 H       1  UNL1        0.2198
     26 H          -3.2073    0.4411    1.9737 H       1  UNL1        0.2198
     27 H          -4.7768   -1.3554   -1.6260 H       1  UNL1        0.2198
     28 H          -4.3672   -1.9007    0.6995 H       1  UNL1        0.2198
     29 H           2.1461   -1.7546    0.6105 H       1  UNL1        0.0704
@<TRIPOS>UNITY_ATOM_ATTR
2 1
charge 1
3 1
charge -1
@<TRIPOS>BOND
     1     1     2    2
     2     2     3    1
     3     2     4    1
     4     4     5   ar
     5     5     6   ar
     6     6     7   ar
     7     7     8   ar
     8     8     9    1
     9     9    10    1
    10    10    11    1
    11    11    12    2
    12    11    13    1
    13    11    14    1
    14    10    15    1
    15    15    16    2
    16    15    17    1
    17    15    18    1
    18     8    19   ar
    19    19     4   ar
    20     5    20    1
    21     6    21    1
    22     7    22    1
    23     9    23    1
    24    10    24    1
    25    13    25    1
    26    14    26    1
    27    17    27    1
    28    18    28    1
    29    19    29    1
