@<TRIPOS>MOLECULE
*****
 51 55 0 0 0
SMALL
GASTEIGER

@<TRIPOS>ATOM
      1 N          -4.9173    4.9057   -2.7936 N.pl3   1  UNL1       -0.3134
      2 C          -4.5802    4.0975   -1.6485 C.2     1  UNL1        0.2764
      3 N          -3.6623    3.2337   -1.7554 N.2     1  UNL1       -0.2194
      4 C          -3.2324    2.3761   -0.6921 C.3     1  UNL1        0.1603
      5 C          -3.0525    0.9783   -1.1983 C.ar    1  UNL1        0.0228
      6 C          -1.8738    0.3010   -1.1145 C.ar    1  UNL1       -0.0321
      7 C          -1.7083   -1.0358   -1.5203 C.ar    1  UNL1        0.0342
      8 N          -0.3846   -1.5777   -1.3689 N.am    1  UNL1       -0.2802
      9 C          -0.0622   -1.9441   -0.0071 C.2     1  UNL1        0.2666
     10 O          -0.9008   -1.8220    0.9274 O.2     1  UNL1       -0.2682
     11 C           1.2536   -2.4384    0.2605 C.ar    1  UNL1        0.1257
     12 C           1.7830   -2.4324    1.4654 C.ar    1  UNL1       -0.0300
     13 C           3.1219   -2.6979    1.7559 C.ar    1  UNL1       -0.0427
     14 C           3.9550   -2.9850    0.6695 C.ar    1  UNL1        0.0430
     15 C           5.3560   -3.0201    0.8959 C.1     1  UNL1       -0.0645
     16 C           6.4353   -3.0420    1.0675 C.1     1  UNL1       -0.0936
     17 C           8.0077   -3.0998    1.3075 C.3     1  UNL1        0.0211
     18 C           8.3571   -1.6451    1.8316 C.3     1  UNL1       -0.0382
     19 C           8.4379   -2.9124    2.6785 C.3     1  UNL1       -0.0382
     20 C           3.3698   -2.9849   -0.5388 C.ar    1  UNL1        0.0438
     21 N           2.0558   -2.7270   -0.8466 N.ar    1  UNL1       -0.2491
     22 C          -2.7805   -1.6699   -2.0193 C.ar    1  UNL1       -0.0377
     23 C          -4.0023   -1.0362   -2.1367 C.ar    1  UNL1       -0.0243
     24 C          -4.1340    0.2962   -1.7217 C.ar    1  UNL1        0.1292
     25 F          -5.3448    0.8802   -1.8547 F       1  UNL1       -0.2051
     26 C          -1.8727    2.9181   -0.2611 C.3     1  UNL1        0.2686
     27 F          -2.0082    4.2486    0.1245 F       1  UNL1       -0.2062
     28 F          -1.4452    2.2264    0.8798 F       1  UNL1       -0.2062
     29 C          -4.1171    2.3122    0.4947 C.3     1  UNL1        0.0344
     30 C          -4.2415    3.3121    1.5540 C.3     1  UNL1       -0.0064
     31 C          -5.3053    3.1914    0.4565 C.3     1  UNL1        0.1091
     32 O          -5.2457    4.2436   -0.4503 O.2     1  UNL1       -0.4622
     33 H          -4.7064    5.9495   -2.7618 H       1  UNL1        0.1466
     34 H          -5.3520    4.5293   -3.6490 H       1  UNL1        0.1466
     35 H          -1.0101    0.7985   -0.7373 H       1  UNL1        0.0640
     36 H           0.2499   -1.6826   -2.1432 H       1  UNL1        0.1552
     37 H           1.1634   -2.2076    2.3446 H       1  UNL1        0.0641
     38 H           3.5388   -2.7047    2.7398 H       1  UNL1        0.0631
     39 H           8.5256   -3.4399    0.4701 H       1  UNL1        0.0433
     40 H           7.4365   -1.0259    2.0172 H       1  UNL1        0.0277
     41 H           9.2155   -1.1999    1.3811 H       1  UNL1        0.0277
     42 H           7.7122   -3.0020    3.5320 H       1  UNL1        0.0277
     43 H           9.4680   -3.1002    3.0309 H       1  UNL1        0.0277
     44 H           3.9813   -3.2026   -1.4155 H       1  UNL1        0.0842
     45 H          -2.6692   -2.7215   -2.3324 H       1  UNL1        0.0637
     46 H          -4.8280   -1.5739   -2.5360 H       1  UNL1        0.0647
     47 H          -1.1292    2.8853   -1.0676 H       1  UNL1        0.1047
     48 H          -4.3576    1.2524    0.8466 H       1  UNL1        0.0366
     49 H          -4.5626    2.9793    2.5811 H       1  UNL1        0.0306
     50 H          -3.6428    4.2358    1.6184 H       1  UNL1        0.0306
     51 H          -6.2946    2.7803    0.7106 H       1  UNL1        0.0737
@<TRIPOS>BOND
     1     1     2    1
     2     2     3    2
     3     3     4    1
     4     4     5    1
     5     5     6   ar
     6     6     7   ar
     7     7     8    1
     8     8     9   am
     9     9    10    2
    10     9    11    1
    11    11    12   ar
    12    12    13   ar
    13    13    14   ar
    14    14    15    1
    15    15    16    3
    16    16    17    1
    17    17    18    1
    18    18    19    1
    19    14    20   ar
    20    20    21   ar
    21     7    22   ar
    22    22    23   ar
    23    23    24   ar
    24    24    25    1
    25     4    26    1
    26    26    27    1
    27    26    28    1
    28     4    29    1
    29    29    30    1
    30    30    31    1
    31    31    32    1
    32    32     2    1
    33    24     5   ar
    34    31    29    1
    35    21    11   ar
    36    19    17    1
    37     1    33    1
    38     1    34    1
    39     6    35    1
    40     8    36    1
    41    12    37    1
    42    13    38    1
    43    17    39    1
    44    18    40    1
    45    18    41    1
    46    19    42    1
    47    19    43    1
    48    20    44    1
    49    22    45    1
    50    23    46    1
    51    26    47    1
    52    29    48    1
    53    30    49    1
    54    30    50    1
    55    31    51    1
