
     RDKit          3D

 23 24  0  0  0  0  0  0  0  0999 V2000
   -4.8197   -1.4454    2.2836 N   0  0  0  0  0  0  0  0  0  0  0  0
   -3.8522   -1.2478    1.7010 C   0  0  0  0  0  0  0  0  0  0  0  0
   -2.6533   -0.9805    0.9623 C   0  0  0  0  0  0  0  0  0  0  0  0
   -1.5923   -1.8844    0.9465 C   0  0  0  0  0  0  0  0  0  0  0  0
   -0.4722   -1.5462    0.2067 C   0  0  0  0  0  0  0  0  0  0  0  0
   -0.3849   -0.3545   -0.5029 C   0  0  0  0  0  0  0  0  0  0  0  0
    0.8585   -0.1095   -1.2512 C   0  0  0  0  0  0  0  0  0  0  0  0
    1.8630    0.5796   -0.4805 N   0  0  0  0  0  0  0  0  0  0  0  0
    2.0475    1.8958   -0.3770 C   0  0  0  0  0  0  0  0  0  0  0  0
    3.1142    2.1061    0.4579 C   0  0  0  0  0  0  0  0  0  0  0  0
    3.5553    0.9005    0.8445 N   0  0  0  0  0  0  0  0  0  0  0  0
    2.7852   -0.0375    0.2668 C   0  0  0  0  0  0  0  0  0  0  0  0
   -1.4464    0.5166   -0.4686 C   0  0  0  0  0  0  0  0  0  0  0  0
   -2.5857    0.2070    0.2647 C   0  0  0  0  0  0  0  0  0  0  0  0
   -1.6782   -2.8025    1.5023 H   0  0  0  0  0  0  0  0  0  0  0  0
    0.3369   -2.2631    0.2101 H   0  0  0  0  0  0  0  0  0  0  0  0
    1.2648   -1.0822   -1.6038 H   0  0  0  0  0  0  0  0  0  0  0  0
    0.5978    0.5646   -2.1128 H   0  0  0  0  0  0  0  0  0  0  0  0
    1.4628    2.6953   -0.8640 H   0  0  0  0  0  0  0  0  0  0  0  0
    3.4882    3.0905    0.7217 H   0  0  0  0  0  0  0  0  0  0  0  0
    2.8909   -1.1302    0.3852 H   0  0  0  0  0  0  0  0  0  0  0  0
   -1.3688    1.4256   -1.0152 H   0  0  0  0  0  0  0  0  0  0  0  0
   -3.4114    0.9022    0.2816 H   0  0  0  0  0  0  0  0  0  0  0  0
  1  2  3  0
  2  3  1  0
  3  4  2  0
  4  5  1  0
  5  6  2  0
  6  7  1  0
  7  8  1  0
  8  9  1  0
  9 10  2  0
 10 11  1  0
 11 12  2  0
  6 13  1  0
 13 14  2  0
 14  3  1  0
 12  8  1  0
  4 15  1  0
  5 16  1  0
  7 17  1  0
  7 18  1  0
  9 19  1  0
 10 20  1  0
 12 21  1  0
 13 22  1  0
 14 23  1  0
M  END
$$$$
