@<TRIPOS>MOLECULE
*****
 23 24 0 0 0
SMALL
GASTEIGER

@<TRIPOS>ATOM
      1 N          -4.8197   -1.4454    2.2836 N.1     1  UNL1       -0.1909
      2 C          -3.8522   -1.2478    1.7010 C.1     1  UNL1        0.0992
      3 C          -2.6533   -0.9805    0.9623 C.ar    1  UNL1        0.0518
      4 C          -1.5923   -1.8844    0.9465 C.ar    1  UNL1       -0.0440
      5 C          -0.4722   -1.5462    0.2067 C.ar    1  UNL1       -0.0557
      6 C          -0.3849   -0.3545   -0.5029 C.ar    1  UNL1       -0.0277
      7 C           0.8585   -0.1095   -1.2512 C.3     1  UNL1        0.0492
      8 N           1.8630    0.5796   -0.4805 N.ar    1  UNL1       -0.3325
      9 C           2.0475    1.8958   -0.3770 C.ar    1  UNL1        0.0244
     10 C           3.1142    2.1061    0.4579 C.ar    1  UNL1        0.0454
     11 N           3.5553    0.9005    0.8445 N.ar    1  UNL1       -0.2441
     12 C           2.7852   -0.0375    0.2668 C.ar    1  UNL1        0.0962
     13 C          -1.4464    0.5166   -0.4686 C.ar    1  UNL1       -0.0557
     14 C          -2.5857    0.2070    0.2647 C.ar    1  UNL1       -0.0440
     15 H          -1.6782   -2.8025    1.5023 H       1  UNL1        0.0630
     16 H           0.3369   -2.2631    0.2101 H       1  UNL1        0.0621
     17 H           1.2648   -1.0822   -1.6038 H       1  UNL1        0.0541
     18 H           0.5978    0.5646   -2.1128 H       1  UNL1        0.0541
     19 H           1.4628    2.6953   -0.8640 H       1  UNL1        0.0825
     20 H           3.4882    3.0905    0.7217 H       1  UNL1        0.0845
     21 H           2.8909   -1.1302    0.3852 H       1  UNL1        0.1029
     22 H          -1.3688    1.4256   -1.0152 H       1  UNL1        0.0621
     23 H          -3.4114    0.9022    0.2816 H       1  UNL1        0.0630
@<TRIPOS>BOND
     1     1     2    3
     2     2     3    1
     3     3     4   ar
     4     4     5   ar
     5     5     6   ar
     6     6     7    1
     7     7     8    1
     8     8     9   ar
     9     9    10   ar
    10    10    11   ar
    11    11    12   ar
    12     6    13   ar
    13    13    14   ar
    14    14     3   ar
    15    12     8   ar
    16     4    15    1
    17     5    16    1
    18     7    17    1
    19     7    18    1
    20     9    19    1
    21    10    20    1
    22    12    21    1
    23    13    22    1
    24    14    23    1
