@<TRIPOS>MOLECULE
*****
 116 124 0 0 0
SMALL
GASTEIGER

@<TRIPOS>ATOM
      1 C          -7.1509    3.6106   -1.9338 C.3     1  UNL1       -0.0626
      2 C          -6.5541    2.3427   -2.5111 C.3     1  UNL1       -0.0256
      3 C          -6.4240    1.3472   -1.3477 C.3     1  UNL1        0.0788
      4 O          -7.7399    1.1854   -0.8954 O.3     1  UNL1       -0.3873
      5 C          -5.5473    2.0621   -0.3310 C.3     1  UNL1       -0.0188
      6 C          -4.4814    0.9990    0.0007 C.3     1  UNL1       -0.0239
      7 C          -5.3236   -0.2232    0.2855 C.3     1  UNL1        0.0020
      8 N          -5.3845   -0.8798   -0.9737 N.3     1  UNL1       -0.2990
      9 C          -5.8318    0.1091   -1.9328 C.3     1  UNL1        0.0278
     10 C          -4.3255   -1.6801   -1.3548 C.3     1  UNL1        0.0031
     11 C          -2.9452   -1.5000   -0.8522 C.3     1  UNL1       -0.0126
     12 C          -2.7182   -1.6409    0.5857 C.ar    1  UNL1       -0.0165
     13 C          -2.4459   -0.7264    1.5743 C.ar    1  UNL1        0.0418
     14 N          -2.3221   -1.4338    2.7433 N.ar    1  UNL1       -0.3565
     15 C          -2.4945   -2.7336    2.5827 C.ar    1  UNL1        0.0470
     16 C          -2.4596   -3.7928    3.4653 C.ar    1  UNL1       -0.0378
     17 C          -2.6784   -5.0794    3.0273 C.ar    1  UNL1       -0.0598
     18 C          -2.9319   -5.2838    1.6930 C.ar    1  UNL1       -0.0611
     19 C          -2.9578   -4.2062    0.8508 C.ar    1  UNL1       -0.0523
     20 C          -2.7393   -2.8811    1.2616 C.ar    1  UNL1        0.0032
     21 C          -2.3335    0.7597    1.3460 C.3     1  UNL1        0.1360
     22 C          -3.6121    1.3984    1.1156 C.3     1  UNL1       -0.0234
     23 C          -1.9845    1.3814    2.7205 C.2     1  UNL1        0.3235
     24 O          -2.4550    2.2233    3.5516 O.2     1  UNL1       -0.2494
     25 O          -0.8548    1.0494    3.4242 O.3     1  UNL1       -0.4670
     26 C          -0.6367    1.6810    4.6713 C.3     1  UNL1        0.0817
     27 C          -1.1204    1.0334    0.6233 C.ar    1  UNL1        0.0172
     28 C          -0.7674    2.3340    0.2583 C.ar    1  UNL1        0.1265
     29 O          -1.5818    3.3757    0.5616 O.3     1  UNL1       -0.4947
     30 C          -1.2159    4.6860    0.1884 C.3     1  UNL1        0.0788
     31 C           0.4190    2.5903   -0.4196 C.ar    1  UNL1        0.0021
     32 C           1.3180    1.6113   -0.7765 C.ar    1  UNL1        0.0438
     33 N           2.5681    1.4952   -1.4399 N.am    1  UNL1       -0.2662
     34 C           3.4036    2.6225   -1.5684 C.2     1  UNL1        0.2071
     35 O           4.2905    3.4596   -1.7991 O.2     1  UNL1       -0.2790
     36 C           2.7715    0.1454   -1.8980 C.3     1  UNL1        0.0848
     37 C           2.0544   -0.6671   -0.8687 C.3     1  UNL1        0.0374
     38 C           1.4278   -1.9095   -1.4263 C.3     1  UNL1       -0.0271
     39 C           1.7132   -3.0037   -0.3966 C.3     1  UNL1        0.0005
     40 N           2.9725   -2.5317    0.1377 N.3     1  UNL1       -0.2939
     41 C           3.3143   -3.1136    1.4143 C.3     1  UNL1        0.0175
     42 C           4.7515   -2.7273    1.6595 C.2     1  UNL1       -0.0733
     43 C           5.0108   -1.4920    1.2135 C.2     1  UNL1       -0.0755
     44 C           4.1442   -0.4788    0.5414 C.3     1  UNL1        0.0453
     45 C           4.0988    0.6804    1.5391 C.3     1  UNL1       -0.0418
     46 C           3.5268    0.2872    2.8626 C.3     1  UNL1       -0.0643
     47 C           2.8247   -1.0976    0.3108 C.3     1  UNL1        0.0348
     48 C           4.8640   -0.0089   -0.6745 C.3     1  UNL1        0.1543
     49 O           6.1992   -0.5577   -0.7322 O.3     1  UNL1       -0.4570
     50 C           7.3116    0.2571   -0.7299 C.2     1  UNL1        0.3043
     51 C           8.6954   -0.2513   -0.7870 C.3     1  UNL1        0.0332
     52 O           7.1619    1.5224   -0.6759 O.2     1  UNL1       -0.2512
     53 C           4.1819   -0.3170   -1.9628 C.3     1  UNL1        0.2200
     54 O           4.2026   -1.6957   -2.1960 O.3     1  UNL1       -0.3733
     55 C           4.9773    0.2837   -3.0697 C.2     1  UNL1        0.3446
     56 O           5.4656    1.2863   -3.6550 O.2     1  UNL1       -0.2474
     57 O           5.5795   -0.4388   -4.0826 O.3     1  UNL1       -0.4658
     58 C           6.3312    0.1436   -5.1260 C.3     1  UNL1        0.0818
     59 C           0.9967    0.3185   -0.4293 C.ar    1  UNL1       -0.0158
     60 C          -0.1947    0.0718    0.2500 C.ar    1  UNL1       -0.0481
     61 H          -8.1958    3.7746   -2.3244 H       1  UNL1        0.0231
     62 H          -6.5151    4.5043   -2.1011 H       1  UNL1        0.0231
     63 H          -7.2918    3.5537   -0.8239 H       1  UNL1        0.0231
     64 H          -7.2549    1.9305   -3.2713 H       1  UNL1        0.0291
     65 H          -5.5641    2.6186   -2.9065 H       1  UNL1        0.0291
     66 H          -7.8935    1.7440   -0.0953 H       1  UNL1        0.2102
     67 H          -5.0472    2.9501   -0.7132 H       1  UNL1        0.0296
     68 H          -6.0965    2.2709    0.6090 H       1  UNL1        0.0296
     69 H          -3.9404    1.0002   -0.9435 H       1  UNL1        0.0314
     70 H          -6.3704    0.0084    0.5807 H       1  UNL1        0.0429
     71 H          -4.9644   -0.8292    1.1337 H       1  UNL1        0.0429
     72 H          -5.0718    0.3559   -2.7078 H       1  UNL1        0.0455
     73 H          -6.6667   -0.3848   -2.4785 H       1  UNL1        0.0455
     74 H          -4.2598   -1.6719   -2.4773 H       1  UNL1        0.0430
     75 H          -4.6103   -2.7553   -1.1406 H       1  UNL1        0.0430
     76 H          -2.4060   -2.3696   -1.3687 H       1  UNL1        0.0326
     77 H          -2.3733   -0.6833   -1.3467 H       1  UNL1        0.0326
     78 H          -2.1101   -1.0273    3.7083 H       1  UNL1        0.1656
     79 H          -2.2617   -3.6405    4.5129 H       1  UNL1        0.0638
     80 H          -2.6429   -5.8832    3.7480 H       1  UNL1        0.0618
     81 H          -3.1086   -6.2784    1.3096 H       1  UNL1        0.0618
     82 H          -3.1602   -4.4115   -0.1899 H       1  UNL1        0.0624
     83 H          -3.5654    2.4955    1.2679 H       1  UNL1        0.0286
     84 H          -4.2342    1.1059    2.0381 H       1  UNL1        0.0286
     85 H          -1.4871    1.5057    5.3673 H       1  UNL1        0.0661
     86 H          -0.5154    2.7646    4.5900 H       1  UNL1        0.0661
     87 H           0.2901    1.2496    5.0835 H       1  UNL1        0.0661
     88 H          -1.9873    5.4358    0.4323 H       1  UNL1        0.0660
     89 H          -1.1171    4.7074   -0.9298 H       1  UNL1        0.0660
     90 H          -0.2207    4.9408    0.6001 H       1  UNL1        0.0660
     91 H           0.6985    3.6014   -0.7061 H       1  UNL1        0.0673
     92 H           3.2503    3.6119   -1.2301 H       1  UNL1        0.1257
     93 H           2.2411   -0.0461   -2.8663 H       1  UNL1        0.0549
     94 H           1.8141   -2.2157   -2.4165 H       1  UNL1        0.0287
     95 H           0.3306   -1.7706   -1.4375 H       1  UNL1        0.0287
     96 H           1.8868   -3.9832   -0.8747 H       1  UNL1        0.0427
     97 H           0.9421   -3.0364    0.3894 H       1  UNL1        0.0427
     98 H           2.7213   -2.5955    2.2003 H       1  UNL1        0.0470
     99 H           3.2174   -4.2005    1.4043 H       1  UNL1        0.0470
    100 H           5.5682   -3.2664    2.1183 H       1  UNL1        0.0582
    101 H           6.0359   -1.1015    1.3412 H       1  UNL1        0.0577
    102 H           5.1703    0.9728    1.7429 H       1  UNL1        0.0273
    103 H           3.6193    1.5768    1.1511 H       1  UNL1        0.0273
    104 H           2.4110    0.3514    2.8506 H       1  UNL1        0.0230
    105 H           3.9063   -0.6598    3.2420 H       1  UNL1        0.0230
    106 H           3.8475    1.0750    3.5982 H       1  UNL1        0.0230
    107 H           2.2099   -0.9386    1.2274 H       1  UNL1        0.0482
    108 H           5.0456    1.0957   -0.6359 H       1  UNL1        0.0779
    109 H           8.6449   -1.3522   -0.7108 H       1  UNL1        0.0342
    110 H           9.1960    0.0402   -1.7296 H       1  UNL1        0.0342
    111 H           9.1989    0.1061    0.1298 H       1  UNL1        0.0342
    112 H           5.0336   -2.0984   -1.8383 H       1  UNL1        0.2111
    113 H           6.7437   -0.6708   -5.7889 H       1  UNL1        0.0661
    114 H           7.2278    0.6450   -4.7003 H       1  UNL1        0.0661
    115 H           5.7148    0.8318   -5.7400 H       1  UNL1        0.0661
    116 H          -0.3974   -0.9563    0.5028 H       1  UNL1        0.0625
@<TRIPOS>BOND
     1     1     2    1
     2     2     3    1
     3     3     4    1
     4     3     5    1
     5     5     6    1
     6     6     7    1
     7     7     8    1
     8     8     9    1
     9     8    10    1
    10    10    11    1
    11    11    12    1
    12    12    13   ar
    13    13    14   ar
    14    14    15   ar
    15    15    16   ar
    16    16    17   ar
    17    17    18   ar
    18    18    19   ar
    19    19    20   ar
    20    13    21    1
    21    21    22    1
    22    21    23    1
    23    23    24    2
    24    23    25    1
    25    25    26    1
    26    21    27    1
    27    27    28   ar
    28    28    29    1
    29    29    30    1
    30    28    31   ar
    31    31    32   ar
    32    32    33    1
    33    33    34   am
    34    34    35    2
    35    33    36    1
    36    36    37    1
    37    37    38    1
    38    38    39    1
    39    39    40    1
    40    40    41    1
    41    41    42    1
    42    42    43    2
    43    43    44    1
    44    44    45    1
    45    45    46    1
    46    44    47    1
    47    44    48    1
    48    48    49    1
    49    49    50    1
    50    50    51    1
    51    50    52    2
    52    48    53    1
    53    53    54    1
    54    53    55    1
    55    55    56    2
    56    55    57    1
    57    57    58    1
    58    37    59    1
    59    59    60   ar
    60     9     3    1
    61    20    12   ar
    62    60    27   ar
    63    22     6    1
    64    59    32   ar
    65    20    15   ar
    66    53    36    1
    67    47    37    1
    68    47    40    1
    69     1    61    1
    70     1    62    1
    71     1    63    1
    72     2    64    1
    73     2    65    1
    74     4    66    1
    75     5    67    1
    76     5    68    1
    77     6    69    1
    78     7    70    1
    79     7    71    1
    80     9    72    1
    81     9    73    1
    82    10    74    1
    83    10    75    1
    84    11    76    1
    85    11    77    1
    86    14    78    1
    87    16    79    1
    88    17    80    1
    89    18    81    1
    90    19    82    1
    91    22    83    1
    92    22    84    1
    93    26    85    1
    94    26    86    1
    95    26    87    1
    96    30    88    1
    97    30    89    1
    98    30    90    1
    99    31    91    1
   100    34    92    1
   101    36    93    1
   102    38    94    1
   103    38    95    1
   104    39    96    1
   105    39    97    1
   106    41    98    1
   107    41    99    1
   108    42   100    1
   109    43   101    1
   110    45   102    1
   111    45   103    1
   112    46   104    1
   113    46   105    1
   114    46   106    1
   115    47   107    1
   116    48   108    1
   117    51   109    1
   118    51   110    1
   119    51   111    1
   120    54   112    1
   121    58   113    1
   122    58   114    1
   123    58   115    1
   124    60   116    1
