
     RDKit          3D

 49 51  0  0  0  0  0  0  0  0999 V2000
    9.7228    4.5930    1.3559 C   0  0  0  0  0  0  0  0  0  0  0  0
    8.5670    4.6539    1.2274 C   0  0  0  0  0  0  0  0  0  0  0  0
    6.9813    4.7497    1.0479 C   0  0  0  0  0  0  0  0  0  0  0  0
    6.5506    3.4919    1.3375 O   0  0  0  0  0  0  0  0  0  0  0  0
    5.2328    3.0053    1.2583 C   0  0  0  0  0  0  0  0  0  0  0  0
    4.9432    1.7660    1.5158 C   0  0  0  0  0  0  0  0  0  0  0  0
    3.6392    1.2496    1.3630 N   0  0  0  0  0  0  0  0  0  0  0  0
    2.8034    2.1929    0.9421 C   0  0  0  0  0  0  0  0  0  0  0  0
    1.4920    1.4865    0.3188 C   0  0  0  0  0  0  0  0  0  0  0  0
    0.9883    2.0944   -0.5966 O   0  0  0  0  0  0  0  0  0  0  0  0
    1.1868    0.3169    0.9239 N   0  0  0  0  0  0  0  0  0  0  0  0
    0.2219   -0.6733    0.6257 C   0  0  0  0  0  0  0  0  0  0  0  0
    0.6843   -1.9365    0.6221 C   0  0  0  0  0  0  0  0  0  0  0  0
    0.0126   -3.1091    0.4283 C   0  0  0  0  0  0  0  0  0  0  0  0
   -1.3928   -2.8722    0.1853 C   0  0  0  0  0  0  0  0  0  0  0  0
   -2.0825   -4.0441    0.1136 F   0  0  0  0  0  0  0  0  0  0  0  0
   -1.9033   -1.6212    0.1574 C   0  0  0  0  0  0  0  0  0  0  0  0
   -3.2769   -1.5044   -0.4994 C   0  0  2  0  0  0  0  0  0  0  0  0
   -3.5112    0.0224   -0.5560 C   0  0  0  0  0  0  0  0  0  0  0  0
   -4.7492    0.2489   -1.0871 F   0  0  0  0  0  0  0  0  0  0  0  0
   -4.3884   -2.1238    0.2067 C   0  0  0  0  0  0  0  0  0  0  0  0
   -5.0870   -3.2560   -0.3596 C   0  0  1  0  0  0  0  0  0  0  0  0
   -6.4294   -3.0684   -0.9960 C   0  0  0  0  0  0  0  0  0  0  0  0
   -6.3405   -2.2867   -2.1672 F   0  0  0  0  0  0  0  0  0  0  0  0
   -7.3314   -2.2829   -0.2416 F   0  0  0  0  0  0  0  0  0  0  0  0
   -7.0645   -4.2316   -1.2742 F   0  0  0  0  0  0  0  0  0  0  0  0
   -4.3175   -3.8164   -1.5066 O   0  0  0  0  0  0  0  0  0  0  0  0
   -3.4829   -3.0971   -2.2877 C   0  0  0  0  0  0  0  0  0  0  0  0
   -3.0437   -3.4535   -3.6011 N   0  0  0  0  0  0  0  0  0  0  0  0
   -2.9741   -1.9735   -1.8399 N   0  0  0  0  0  0  0  0  0  0  0  0
   -1.1202   -0.4439    0.3845 C   0  0  0  0  0  0  0  0  0  0  0  0
    2.9807    3.4512    0.6823 C   0  0  0  0  0  0  0  0  0  0  0  0
    4.3022    3.9989    0.8226 N   0  0  0  0  0  0  0  0  0  0  0  0
   10.7290    4.5331    1.4514 H   0  0  0  0  0  0  0  0  0  0  0  0
    6.9796    4.8582   -0.1485 H   0  0  0  0  0  0  0  0  0  0  0  0
    6.6441    5.6536    1.3832 H   0  0  0  0  0  0  0  0  0  0  0  0
    5.6576    1.0007    1.9123 H   0  0  0  0  0  0  0  0  0  0  0  0
    1.7550    0.1462    1.8909 H   0  0  0  0  0  0  0  0  0  0  0  0
    1.7897   -2.0838    0.7880 H   0  0  0  0  0  0  0  0  0  0  0  0
    0.3561   -4.1008    0.3779 H   0  0  0  0  0  0  0  0  0  0  0  0
   -2.7350    0.5091   -1.2049 H   0  0  0  0  0  0  0  0  0  0  0  0
   -3.4389    0.4580    0.4896 H   0  0  0  0  0  0  0  0  0  0  0  0
   -5.2426   -1.3050    0.3392 H   0  0  0  0  0  0  0  0  0  0  0  0
   -4.1178   -2.2258    1.2795 H   0  0  0  0  0  0  0  0  0  0  0  0
   -5.1003   -4.1959    0.2815 H   0  0  0  0  0  0  0  0  0  0  0  0
   -3.5541   -4.1544   -4.1572 H   0  0  0  0  0  0  0  0  0  0  0  0
   -2.1797   -3.0144   -3.9933 H   0  0  0  0  0  0  0  0  0  0  0  0
   -1.5432    0.5173    0.3799 H   0  0  0  0  0  0  0  0  0  0  0  0
    2.1871    4.1319    0.4244 H   0  0  0  0  0  0  0  0  0  0  0  0
  1  2  3  0
  2  3  1  0
  3  4  1  0
  4  5  1  0
  5  6  2  0
  6  7  1  0
  7  8  2  0
  8  9  1  0
  9 10  2  0
  9 11  1  0
 11 12  1  0
 12 13  2  0
 13 14  1  0
 14 15  2  0
 15 16  1  0
 15 17  1  0
 17 18  1  0
 18 19  1  6
 19 20  1  0
 18 21  1  0
 21 22  1  0
 22 23  1  0
 23 24  1  0
 23 25  1  0
 23 26  1  0
 22 27  1  0
 27 28  1  0
 28 29  1  0
 28 30  2  0
 17 31  2  0
  8 32  1  0
 32 33  2  0
 33  5  1  0
 31 12  1  0
 30 18  1  0
  1 34  1  0
  3 35  1  0
  3 36  1  0
  6 37  1  0
 11 38  1  0
 13 39  1  0
 14 40  1  0
 19 41  1  0
 19 42  1  0
 21 43  1  0
 21 44  1  0
 22 45  1  1
 29 46  1  0
 29 47  1  0
 31 48  1  0
 32 49  1  0
M  END
$$$$
