@<TRIPOS>MOLECULE
*****
 49 51 0 0 0
SMALL
GASTEIGER

@<TRIPOS>ATOM
      1 C           9.7228    4.5930    1.3559 C.1     1  UNL1       -0.1158
      2 C           8.5670    4.6539    1.2274 C.1     1  UNL1       -0.0647
      3 C           6.9813    4.7497    1.0479 C.3     1  UNL1        0.1513
      4 O           6.5506    3.4919    1.3375 O.3     1  UNL1       -0.4624
      5 C           5.2328    3.0053    1.2583 C.ar    1  UNL1        0.2344
      6 C           4.9432    1.7660    1.5158 C.ar    1  UNL1        0.0899
      7 N           3.6392    1.2496    1.3630 N.ar    1  UNL1       -0.2435
      8 C           2.8034    2.1929    0.9421 C.ar    1  UNL1        0.1439
      9 C           1.4920    1.4865    0.3188 C.2     1  UNL1        0.2681
     10 O           0.9883    2.0944   -0.5966 O.2     1  UNL1       -0.2681
     11 N           1.1868    0.3169    0.9239 N.am    1  UNL1       -0.2802
     12 C           0.2219   -0.6733    0.6257 C.ar    1  UNL1        0.0342
     13 C           0.6843   -1.9365    0.6221 C.ar    1  UNL1       -0.0377
     14 C           0.0126   -3.1091    0.4283 C.ar    1  UNL1       -0.0243
     15 C          -1.3928   -2.8722    0.1853 C.ar    1  UNL1        0.1291
     16 F          -2.0825   -4.0441    0.1136 F       1  UNL1       -0.2051
     17 C          -1.9033   -1.6212    0.1574 C.ar    1  UNL1        0.0196
     18 C          -3.2769   -1.5044   -0.4994 C.3     1  UNL1        0.1258
     19 C          -3.5112    0.0224   -0.5560 C.3     1  UNL1        0.1196
     20 F          -4.7492    0.2489   -1.0871 F       1  UNL1       -0.2462
     21 C          -4.3884   -2.1238    0.2067 C.3     1  UNL1        0.0251
     22 C          -5.0870   -3.2560   -0.3596 C.3     1  UNL1        0.1998
     23 C          -6.4294   -3.0684   -0.9960 C.3     1  UNL1        0.4266
     24 F          -6.3405   -2.2867   -2.1672 F       1  UNL1       -0.1669
     25 F          -7.3314   -2.2829   -0.2416 F       1  UNL1       -0.1669
     26 F          -7.0645   -4.2316   -1.2742 F       1  UNL1       -0.1669
     27 O          -4.3175   -3.8164   -1.5066 O.2     1  UNL1       -0.4534
     28 C          -3.4829   -3.0971   -2.2877 C.2     1  UNL1        0.2766
     29 N          -3.0437   -3.4535   -3.6011 N.pl3   1  UNL1       -0.3134
     30 N          -2.9741   -1.9735   -1.8399 N.2     1  UNL1       -0.2228
     31 C          -1.1202   -0.4439    0.3845 C.ar    1  UNL1       -0.0322
     32 C           2.9807    3.4512    0.6823 C.ar    1  UNL1        0.0619
     33 N           4.3022    3.9989    0.8226 N.ar    1  UNL1       -0.2177
     34 H          10.7290    4.5331    1.4514 H       1  UNL1        0.1229
     35 H           6.9796    4.8582   -0.1485 H       1  UNL1        0.0837
     36 H           6.6441    5.6536    1.3832 H       1  UNL1        0.0837
     37 H           5.6576    1.0007    1.9123 H       1  UNL1        0.0884
     38 H           1.7550    0.1462    1.8909 H       1  UNL1        0.1552
     39 H           1.7897   -2.0838    0.7880 H       1  UNL1        0.0637
     40 H           0.3561   -4.1008    0.3779 H       1  UNL1        0.0647
     41 H          -2.7350    0.5091   -1.2049 H       1  UNL1        0.0643
     42 H          -3.4389    0.4580    0.4896 H       1  UNL1        0.0643
     43 H          -5.2426   -1.3050    0.3392 H       1  UNL1        0.0331
     44 H          -4.1178   -2.2258    1.2795 H       1  UNL1        0.0331
     45 H          -5.1003   -4.1959    0.2815 H       1  UNL1        0.0826
     46 H          -3.5541   -4.1544   -4.1572 H       1  UNL1        0.1466
     47 H          -2.1797   -3.0144   -3.9933 H       1  UNL1        0.1466
     48 H          -1.5432    0.5173    0.3799 H       1  UNL1        0.0640
     49 H           2.1871    4.1319    0.4244 H       1  UNL1        0.0854
@<TRIPOS>BOND
     1     1     2    3
     2     2     3    1
     3     3     4    1
     4     4     5    1
     5     5     6   ar
     6     6     7   ar
     7     7     8   ar
     8     8     9    1
     9     9    10    2
    10     9    11   am
    11    11    12    1
    12    12    13   ar
    13    13    14   ar
    14    14    15   ar
    15    15    16    1
    16    15    17   ar
    17    17    18    1
    18    18    19    1
    19    19    20    1
    20    18    21    1
    21    21    22    1
    22    22    23    1
    23    23    24    1
    24    23    25    1
    25    23    26    1
    26    22    27    1
    27    27    28    1
    28    28    29    1
    29    28    30    2
    30    17    31   ar
    31     8    32   ar
    32    32    33   ar
    33    33     5   ar
    34    31    12   ar
    35    30    18    1
    36     1    34    1
    37     3    35    1
    38     3    36    1
    39     6    37    1
    40    11    38    1
    41    13    39    1
    42    14    40    1
    43    19    41    1
    44    19    42    1
    45    21    43    1
    46    21    44    1
    47    22    45    1
    48    29    46    1
    49    29    47    1
    50    31    48    1
    51    32    49    1
