@<TRIPOS>MOLECULE
*****
 43 47 0 0 0
SMALL
GASTEIGER

@<TRIPOS>ATOM
      1 C           7.6425    1.2132   -1.0337 C.3     1  UNL1        0.0788
      2 O           7.1865    0.0952   -0.2943 O.3     1  UNL1       -0.4951
      3 C           5.8169   -0.1001   -0.1739 C.ar    1  UNL1        0.1201
      4 C           4.9099    0.7677   -0.7560 C.ar    1  UNL1       -0.0194
      5 C           3.5664    0.5882   -0.6460 C.ar    1  UNL1       -0.0505
      6 C           3.0355   -0.4892    0.0653 C.ar    1  UNL1       -0.0148
      7 C           1.5884   -0.6347    0.1518 C.ar    1  UNL1        0.0184
      8 C           0.7788   -0.2181   -0.8812 C.ar    1  UNL1        0.0391
      9 N          -0.5372   -0.3609   -0.7802 N.ar    1  UNL1       -0.2350
     10 C          -1.1094   -0.9077    0.3165 C.ar    1  UNL1        0.1632
     11 C          -2.4082   -1.1772    0.6959 C.ar    1  UNL1        0.0467
     12 C          -3.5912   -0.8923   -0.1091 C.ar    1  UNL1       -0.0022
     13 C          -4.1140   -1.8091   -1.0066 C.ar    1  UNL1       -0.0351
     14 C          -5.2296   -1.5600   -1.7762 C.ar    1  UNL1        0.0288
     15 N          -5.8245   -0.3526   -1.6283 N.ar    1  UNL1       -0.2549
     16 C          -5.3576    0.5695   -0.7730 C.ar    1  UNL1        0.0715
     17 C          -6.0085    1.7804   -0.6684 C.ar    1  UNL1       -0.0357
     18 C          -5.5731    2.7677    0.1953 C.ar    1  UNL1       -0.0597
     19 C          -4.4563    2.5291    0.9713 C.ar    1  UNL1       -0.0611
     20 C          -3.8078    1.3148    0.8630 C.ar    1  UNL1       -0.0520
     21 C          -4.2407    0.3274    0.0012 C.ar    1  UNL1        0.0082
     22 C          -2.3839   -1.7523    1.9490 C.ar    1  UNL1        0.0597
     23 N          -1.0685   -1.8188    2.3019 N.ar    1  UNL1       -0.1727
     24 N          -0.3267   -1.3183    1.3324 N.ar    1  UNL1       -0.2206
     25 C           1.0216   -1.1895    1.2666 C.ar    1  UNL1        0.0406
     26 C           3.9266   -1.3593    0.6489 C.ar    1  UNL1       -0.0505
     27 C           5.3077   -1.1753    0.5362 C.ar    1  UNL1       -0.0194
     28 H           8.7385    1.2523   -1.0843 H       1  UNL1        0.0660
     29 H           7.1975    2.1299   -0.5642 H       1  UNL1        0.0660
     30 H           7.2184    1.1925   -2.0729 H       1  UNL1        0.0660
     31 H           5.2968    1.6202   -1.3188 H       1  UNL1        0.0654
     32 H           2.8773    1.2684   -1.1026 H       1  UNL1        0.0625
     33 H           1.2453    0.2167   -1.7510 H       1  UNL1        0.0837
     34 H          -3.6104   -2.7808   -1.1055 H       1  UNL1        0.0639
     35 H          -5.6367   -2.2737   -2.4750 H       1  UNL1        0.0830
     36 H          -6.8957    2.0275   -1.2546 H       1  UNL1        0.0639
     37 H          -6.0882    3.7348    0.2826 H       1  UNL1        0.0618
     38 H          -4.1271    3.3098    1.6423 H       1  UNL1        0.0618
     39 H          -2.9414    1.1515    1.4767 H       1  UNL1        0.0624
     40 H          -3.2251   -2.0932    2.5561 H       1  UNL1        0.0855
     41 H           1.6638   -1.5109    2.0668 H       1  UNL1        0.0837
     42 H           3.5529   -2.2089    1.2097 H       1  UNL1        0.0625
     43 H           5.9905   -1.8736    1.0042 H       1  UNL1        0.0654
@<TRIPOS>BOND
     1     1     2    1
     2     2     3    1
     3     3     4   ar
     4     4     5   ar
     5     5     6   ar
     6     6     7    1
     7     7     8   ar
     8     8     9   ar
     9     9    10   ar
    10    10    11   ar
    11    11    12    1
    12    12    13   ar
    13    13    14   ar
    14    14    15   ar
    15    15    16   ar
    16    16    17   ar
    17    17    18   ar
    18    18    19   ar
    19    19    20   ar
    20    20    21   ar
    21    11    22   ar
    22    22    23   ar
    23    23    24   ar
    24    24    25   ar
    25     6    26   ar
    26    26    27   ar
    27    27     3   ar
    28    25     7   ar
    29    24    10   ar
    30    21    12   ar
    31    21    16   ar
    32     1    28    1
    33     1    29    1
    34     1    30    1
    35     4    31    1
    36     5    32    1
    37     8    33    1
    38    13    34    1
    39    14    35    1
    40    17    36    1
    41    18    37    1
    42    19    38    1
    43    20    39    1
    44    22    40    1
    45    25    41    1
    46    26    42    1
    47    27    43    1
