@<TRIPOS>MOLECULE
*****
 117 117 0 0 0
SMALL
GASTEIGER

@<TRIPOS>ATOM
      1 CD1        10.1916    0.2705    2.4352 C.3     1  ILE1       -0.0650
      2 CG1         9.2674    0.4558    1.2429 C.3     1  ILE1       -0.0512
      3 CB          7.8619    0.0731    1.5626 C.3     1  ILE1       -0.0171
      4 CG2         7.7656   -1.3876    1.9612 C.3     1  ILE1       -0.0603
      5 CA          6.8697    0.3789    0.4844 C.3     1  ILE1        0.1019
      6 N           5.5355   -0.0581    0.9876 N.am    1  ILE1       -0.3037
      7 C           4.4294    0.8205    0.8660 C.2     0  UNK0        0.2137
      8 O           4.6411    1.9478    0.3242 O.2     0  UNK0       -0.2758
      9 C           3.0713    0.4436    1.3488 C.3     0  UNK0        0.0264
     10 C           2.0506    1.4834    0.9280 C.3     0  UNK0       -0.0169
     11 C           0.7048    1.0485    1.4604 C.3     0  UNK0        0.0743
     12 O           0.4542   -0.2268    0.8895 O.3     0  UNK0       -0.3899
     13 C          -0.4065    1.9328    0.9231 C.3     0  UNK0        0.0530
     14 C          -0.2795    3.3043    1.4951 C.3     0  UNK0       -0.0068
     15 C          -0.3864    3.3611    2.9729 C.ar    0  UNK0       -0.0455
     16 C           0.7272    3.2635    3.7690 C.ar    0  UNK0       -0.0585
     17 C           0.5848    3.3186    5.1471 C.ar    0  UNK0       -0.0615
     18 C          -0.6557    3.4694    5.7148 C.ar    0  UNK0       -0.0617
     19 C          -1.7649    3.5661    4.8981 C.ar    0  UNK0       -0.0615
     20 C          -1.6474    3.5136    3.5289 C.ar    0  UNK0       -0.0585
     21 N          -1.6482    1.2856    1.3807 N.am    0  UNK0       -0.3081
     22 C          -2.4910    0.5731    0.4425 C.2     0  UNK0        0.2339
     23 O          -2.0968    0.5432   -0.7267 O.2     0  UNK0       -0.2738
     24 C          -3.7296   -0.0418    0.9763 C.3     0  UNK0        0.1017
     25 N          -4.4626   -0.7496   -0.0516 N.am    0  UNK0       -0.3022
     26 C          -5.7781   -0.3863   -0.4400 C.2     0  UNK0        0.2340
     27 O          -6.3066    0.5979    0.1265 O.2     0  UNK0       -0.2738
     28 C          -6.4504   -1.2040   -1.4892 C.3     0  UNK0        0.0996
     29 C          -5.6955   -1.3952   -2.7292 C.3     0  UNK0       -0.0236
     30 C          -5.2932   -0.3034   -3.5995 C.3     0  UNK0       -0.0446
     31 C          -6.4892    0.4709   -4.1542 C.3     0  UNK0       -0.0626
     32 C          -4.2323    0.6420   -3.1532 C.3     0  UNK0       -0.0626
     33 N          -7.8314   -0.7803   -1.6461 N.am    0  UNK0       -0.3040
     34 C          -8.8496   -1.5859   -1.0712 C.2     0  UNK0        0.2139
     35 O          -8.6248   -2.6501   -0.4319 O.2     0  UNK0       -0.2758
     36 C         -10.2632   -1.1512   -1.2282 C.3     0  UNK0        0.0263
     37 C         -11.2130   -2.0403   -0.4495 C.3     0  UNK0       -0.0385
     38 C         -10.8847   -2.0148    1.0345 C.3     0  UNK0       -0.0622
     39 C         -12.6131   -1.4797   -0.5863 C.3     0  UNK0       -0.0622
     40 C          -3.3185   -1.0226    2.0849 C.3     0  UNK0       -0.0197
     41 C          -4.5089   -1.7046    2.7078 C.3     0  UNK0       -0.0605
     42 C          -2.3342   -2.0374    1.5476 C.3     0  UNK0       -0.0605
     43 C           7.0892   -0.3993   -0.7636 C.2     1  ILE1        0.2343
     44 O           6.2863   -1.3421   -1.0814 O.2     1  ILE1       -0.2738
     45 N           8.1458   -0.1822   -1.6777 N.am    2  VAL2       -0.3006
     46 CA          8.2919   -0.9825   -2.8863 C.3     2  VAL2        0.1226
     47 C           9.5936   -1.6923   -2.8574 C.2     2  VAL2        0.3255
     48 O           9.9203   -2.4475   -3.8054 O.2     2  VAL2       -0.2489
     49 OXT        10.4764   -1.5474   -1.8029 O.3     2  VAL2       -0.4793
     50 CB          8.1804   -0.1090   -4.1245 C.3     2  VAL2       -0.0179
     51 CG1         8.3297   -0.9656   -5.3561 C.3     2  VAL2       -0.0605
     52 CG2         9.3300    0.8907   -4.1463 C.3     2  VAL2       -0.0605
     53 HD11        9.6437    0.3100    3.4042 H       1  ILE1        0.0230
     54 HD12       10.7378   -0.7049    2.3836 H       1  ILE1        0.0230
     55 HD13       10.9178    1.1039    2.4524 H       1  ILE1        0.0230
     56 HG11        9.6597   -0.2679    0.4747 H       1  ILE1        0.0266
     57 HG12        9.3961    1.4796    0.8711 H       1  ILE1        0.0266
     58 HB          7.5800    0.6343    2.5079 H       1  ILE1        0.0321
     59 HG21        6.9134   -1.4996    2.6543 H       1  ILE1        0.0233
     60 HG22        8.6873   -1.6424    2.5454 H       1  ILE1        0.0233
     61 HG23        7.6572   -2.0381    1.0511 H       1  ILE1        0.0233
     62 HA          6.8128    1.4498    0.2791 H       1  ILE1        0.0597
     63 H           5.4047   -0.9762    1.4134 H       1  ILE1        0.1495
     64 H           2.7870   -0.5704    0.9960 H       0  UNK0        0.0359
     65 H           3.1210    0.3919    2.4558 H       0  UNK0        0.0359
     66 H           2.0578    1.4395   -0.2029 H       0  UNK0        0.0295
     67 H           2.3595    2.4873    1.1884 H       0  UNK0        0.0295
     68 H           0.6852    0.9525    2.5296 H       0  UNK0        0.0612
     69 H           0.6895   -0.9371    1.5391 H       0  UNK0        0.2099
     70 H          -0.3125    1.9440   -0.1570 H       0  UNK0        0.0527
     71 H           0.7294    3.7018    1.2301 H       0  UNK0        0.0332
     72 H          -0.9986    4.0292    1.0660 H       0  UNK0        0.0332
     73 H           1.7419    3.1434    3.3561 H       0  UNK0        0.0620
     74 H           1.4725    3.2406    5.7582 H       0  UNK0        0.0618
     75 H          -0.7400    3.5102    6.7824 H       0  UNK0        0.0618
     76 H          -2.7624    3.6872    5.3292 H       0  UNK0        0.0618
     77 H          -2.5253    3.5914    2.8715 H       0  UNK0        0.0620
     78 H          -1.9509    1.3205    2.3726 H       0  UNK0        0.1491
     79 H          -4.3477    0.7741    1.4109 H       0  UNK0        0.0597
     80 H          -3.9639   -1.5656   -0.5098 H       0  UNK0        0.1495
     81 H          -6.5067   -2.2305   -0.9958 H       0  UNK0        0.0594
     82 H          -4.7911   -2.0358   -2.4617 H       0  UNK0        0.0290
     83 H          -6.2957   -2.1309   -3.3691 H       0  UNK0        0.0290
     84 H          -4.8538   -0.7916   -4.5387 H       0  UNK0        0.0296
     85 H          -6.2151    0.8916   -5.1767 H       0  UNK0        0.0232
     86 H          -7.3535   -0.1811   -4.3749 H       0  UNK0        0.0232
     87 H          -6.7162    1.3775   -3.5650 H       0  UNK0        0.0232
     88 H          -4.2213    1.5814   -3.7925 H       0  UNK0        0.0232
     89 H          -3.2219    0.2535   -3.1723 H       0  UNK0        0.0232
     90 H          -4.4703    1.0163   -2.1424 H       0  UNK0        0.0232
     91 H          -8.0765    0.1018   -2.1617 H       0  UNK0        0.1494
     92 H         -10.3367   -0.1175   -0.8446 H       0  UNK0        0.0361
     93 H         -10.5817   -1.2342   -2.3074 H       0  UNK0        0.0361
     94 H         -11.1491   -3.0705   -0.7929 H       0  UNK0        0.0300
     95 H         -10.5637   -0.9834    1.3549 H       0  UNK0        0.0232
     96 H         -10.1559   -2.7787    1.3356 H       0  UNK0        0.0232
     97 H         -11.8311   -2.2181    1.5748 H       0  UNK0        0.0232
     98 H         -12.7169   -0.8555   -1.5094 H       0  UNK0        0.0232
     99 H         -12.8286   -0.7784    0.2675 H       0  UNK0        0.0232
    100 H         -13.3967   -2.2552   -0.5871 H       0  UNK0        0.0232
    101 H          -2.7939   -0.4590    2.8823 H       0  UNK0        0.0318
    102 H          -5.4784   -1.1834    2.4767 H       0  UNK0        0.0233
    103 H          -4.4452   -1.6589    3.8371 H       0  UNK0        0.0233
    104 H          -4.5509   -2.7843    2.4619 H       0  UNK0        0.0233
    105 H          -2.8396   -3.0262    1.5165 H       0  UNK0        0.0233
    106 H          -1.4530   -2.1450    2.2070 H       0  UNK0        0.0233
    107 H          -1.9636   -1.7639    0.5328 H       0  UNK0        0.0233
    108 H           8.8372    0.5753   -1.5032 H       2  VAL2        0.1496
    109 HA          7.4429   -1.7016   -2.9092 H       2  VAL2        0.0617
    110 HXT        11.3601   -2.0628   -1.7517 H       2  VAL2        0.2951
    111 HB          7.2118    0.4096   -4.1118 H       2  VAL2        0.0319
    112 HG11        9.4099   -1.0499   -5.5932 H       2  VAL2        0.0233
    113 HG12        7.7723   -0.5345   -6.2256 H       2  VAL2        0.0233
    114 HG13        7.9443   -1.9904   -5.1012 H       2  VAL2        0.0233
    115 HG21        9.2490    1.5607   -3.2730 H       2  VAL2        0.0233
    116 HG22       10.2644    0.2774   -4.1052 H       2  VAL2        0.0233
    117 HG23        9.3188    1.4257   -5.1175 H       2  VAL2        0.0233
@<TRIPOS>BOND
     1     1     2    1
     2     2     3    1
     3     3     4    1
     4     3     5    1
     5     5     6    1
     6     6     7   am
     7     7     8    2
     8     7     9    1
     9     9    10    1
    10    10    11    1
    11    11    12    1
    12    11    13    1
    13    13    14    1
    14    14    15    1
    15    15    16   ar
    16    16    17   ar
    17    17    18   ar
    18    18    19   ar
    19    19    20   ar
    20    13    21    1
    21    21    22   am
    22    22    23    2
    23    22    24    1
    24    24    25    1
    25    25    26   am
    26    26    27    2
    27    26    28    1
    28    28    29    1
    29    29    30    1
    30    30    31    1
    31    30    32    1
    32    28    33    1
    33    33    34   am
    34    34    35    2
    35    34    36    1
    36    36    37    1
    37    37    38    1
    38    37    39    1
    39    24    40    1
    40    40    41    1
    41    40    42    1
    42     5    43    1
    43    43    44    2
    44    43    45   am
    45    45    46    1
    46    46    47    1
    47    47    48    2
    48    47    49    1
    49    46    50    1
    50    50    51    1
    51    50    52    1
    52    20    15   ar
    53     1    53    1
    54     1    54    1
    55     1    55    1
    56     2    56    1
    57     2    57    1
    58     3    58    1
    59     4    59    1
    60     4    60    1
    61     4    61    1
    62     5    62    1
    63     6    63    1
    64     9    64    1
    65     9    65    1
    66    10    66    1
    67    10    67    1
    68    11    68    1
    69    12    69    1
    70    13    70    1
    71    14    71    1
    72    14    72    1
    73    16    73    1
    74    17    74    1
    75    18    75    1
    76    19    76    1
    77    20    77    1
    78    21    78    1
    79    24    79    1
    80    25    80    1
    81    28    81    1
    82    29    82    1
    83    29    83    1
    84    30    84    1
    85    31    85    1
    86    31    86    1
    87    31    87    1
    88    32    88    1
    89    32    89    1
    90    32    90    1
    91    33    91    1
    92    36    92    1
    93    36    93    1
    94    37    94    1
    95    38    95    1
    96    38    96    1
    97    38    97    1
    98    39    98    1
    99    39    99    1
   100    39   100    1
   101    40   101    1
   102    41   102    1
   103    41   103    1
   104    41   104    1
   105    42   105    1
   106    42   106    1
   107    42   107    1
   108    45   108    1
   109    46   109    1
   110    49   110    1
   111    50   111    1
   112    51   112    1
   113    51   113    1
   114    51   114    1
   115    52   115    1
   116    52   116    1
   117    52   117    1
