@<TRIPOS>MOLECULE
*****
 52 55 0 0 0
SMALL
GASTEIGER

@<TRIPOS>ATOM
      1 C          -5.1939   -2.7389    0.3151 C.3     1  UNL1       -0.0306
      2 C          -3.9792   -2.5508    1.1915 C.3     1  UNL1        0.0897
      3 O          -2.9097   -1.9467    0.4839 O.3     1  UNL1       -0.4644
      4 C          -3.0844   -0.6894   -0.0739 C.2     1  UNL1        0.3167
      5 O          -4.1971   -0.1265    0.0707 O.2     1  UNL1       -0.2501
      6 C          -1.9572   -0.0311   -0.8304 C.3     1  UNL1        0.1052
      7 C          -1.5617   -0.8597   -1.9733 C.2     1  UNL1        0.0328
      8 C          -2.6732   -1.2585   -2.9098 C.3     1  UNL1       -0.0254
      9 N          -0.3900   -1.2606   -2.2352 N.2     1  UNL1       -0.2362
     10 C           0.6896   -0.9169   -1.3930 C.ar    1  UNL1        0.1583
     11 N           1.9077   -1.3905   -1.7267 N.ar    1  UNL1       -0.2322
     12 C           3.0176   -1.1353   -0.9846 C.ar    1  UNL1        0.0486
     13 C           2.8255   -0.3627    0.1312 C.ar    1  UNL1       -0.0050
     14 C           1.5687    0.1458    0.5054 C.ar    1  UNL1        0.0369
     15 N           1.4450    0.9367    1.6780 N.pl3   1  UNL1       -0.3574
     16 C           0.4785   -0.1458   -0.2866 C.ar    1  UNL1        0.0261
     17 C          -0.8597    0.3900    0.0838 C.3     1  UNL1        0.0326
     18 C          -0.8680    1.8571    0.2531 C.ar    1  UNL1       -0.0386
     19 C          -0.9767    2.4472    1.4816 C.ar    1  UNL1       -0.0580
     20 C          -0.9778    3.8408    1.6307 C.ar    1  UNL1       -0.0615
     21 C          -0.8686    4.6344    0.5287 C.ar    1  UNL1       -0.0617
     22 C          -0.7582    4.0629   -0.7188 C.ar    1  UNL1       -0.0615
     23 C          -0.7584    2.6686   -0.8518 C.ar    1  UNL1       -0.0580
     24 C           3.9557    0.0041    1.0482 C.3     1  UNL1       -0.0242
     25 C           5.2075   -0.7832    0.7528 C.3     1  UNL1       -0.0486
     26 C           5.4135   -0.8739   -0.7470 C.3     1  UNL1       -0.0473
     27 C           4.3344   -1.6785   -1.3904 C.3     1  UNL1       -0.0100
     28 H          -5.8590   -1.8450    0.3540 H       1  UNL1        0.0262
     29 H          -5.7999   -3.5883    0.7372 H       1  UNL1        0.0262
     30 H          -4.9066   -2.9650   -0.7431 H       1  UNL1        0.0262
     31 H          -3.6450   -3.5077    1.6425 H       1  UNL1        0.0694
     32 H          -4.3050   -1.8991    2.0473 H       1  UNL1        0.0694
     33 H          -2.4242    0.8967   -1.2800 H       1  UNL1        0.0484
     34 H          -3.0336   -2.2700   -2.6584 H       1  UNL1        0.0290
     35 H          -2.2813   -1.1962   -3.9577 H       1  UNL1        0.0290
     36 H          -3.5232   -0.5627   -2.8502 H       1  UNL1        0.0290
     37 H           0.9522    0.5530    2.4941 H       1  UNL1        0.1423
     38 H           1.8451    1.8866    1.7180 H       1  UNL1        0.1423
     39 H          -1.0468   -0.0442    1.1184 H       1  UNL1        0.0411
     40 H          -1.0703    1.8713    2.3867 H       1  UNL1        0.0620
     41 H          -1.0652    4.2950    2.6185 H       1  UNL1        0.0618
     42 H          -0.8734    5.7111    0.6866 H       1  UNL1        0.0618
     43 H          -0.6740    4.7230   -1.5631 H       1  UNL1        0.0618
     44 H          -0.6681    2.2973   -1.8626 H       1  UNL1        0.0620
     45 H           3.6320   -0.2138    2.1066 H       1  UNL1        0.0314
     46 H           4.1288    1.0850    0.9873 H       1  UNL1        0.0314
     47 H           5.1303   -1.7996    1.1779 H       1  UNL1        0.0269
     48 H           6.0828   -0.2695    1.1700 H       1  UNL1        0.0269
     49 H           5.3516    0.1632   -1.1344 H       1  UNL1        0.0269
     50 H           6.4178   -1.2694   -0.9542 H       1  UNL1        0.0269
     51 H           4.3912   -2.7586   -1.1415 H       1  UNL1        0.0328
     52 H           4.4139   -1.5318   -2.4911 H       1  UNL1        0.0328
@<TRIPOS>BOND
     1     1     2    1
     2     2     3    1
     3     3     4    1
     4     4     5    2
     5     4     6    1
     6     6     7    1
     7     7     8    1
     8     7     9    2
     9     9    10    1
    10    10    11   ar
    11    11    12   ar
    12    12    13   ar
    13    13    14   ar
    14    14    15    1
    15    14    16   ar
    16    16    17    1
    17    17    18    1
    18    18    19   ar
    19    19    20   ar
    20    20    21   ar
    21    21    22   ar
    22    22    23   ar
    23    13    24    1
    24    24    25    1
    25    25    26    1
    26    26    27    1
    27    17     6    1
    28    23    18   ar
    29    16    10   ar
    30    27    12    1
    31     1    28    1
    32     1    29    1
    33     1    30    1
    34     2    31    1
    35     2    32    1
    36     6    33    1
    37     8    34    1
    38     8    35    1
    39     8    36    1
    40    15    37    1
    41    15    38    1
    42    17    39    1
    43    19    40    1
    44    20    41    1
    45    21    42    1
    46    22    43    1
    47    23    44    1
    48    24    45    1
    49    24    46    1
    50    25    47    1
    51    25    48    1
    52    26    49    1
    53    26    50    1
    54    27    51    1
    55    27    52    1
