
     RDKit          3D

 52 55  0  0  0  0  0  0  0  0999 V2000
   -5.1939   -2.7389    0.3151 C   0  0  0  0  0  0  0  0  0  0  0  0
   -3.9792   -2.5508    1.1915 C   0  0  0  0  0  0  0  0  0  0  0  0
   -2.9097   -1.9467    0.4839 O   0  0  0  0  0  0  0  0  0  0  0  0
   -3.0844   -0.6894   -0.0739 C   0  0  0  0  0  0  0  0  0  0  0  0
   -4.1971   -0.1265    0.0707 O   0  0  0  0  0  0  0  0  0  0  0  0
   -1.9572   -0.0311   -0.8304 C   0  0  0  0  0  0  0  0  0  0  0  0
   -1.5617   -0.8597   -1.9733 C   0  0  0  0  0  0  0  0  0  0  0  0
   -2.6732   -1.2585   -2.9098 C   0  0  0  0  0  0  0  0  0  0  0  0
   -0.3900   -1.2606   -2.2352 N   0  0  0  0  0  0  0  0  0  0  0  0
    0.6896   -0.9169   -1.3930 C   0  0  0  0  0  0  0  0  0  0  0  0
    1.9077   -1.3905   -1.7267 N   0  0  0  0  0  0  0  0  0  0  0  0
    3.0176   -1.1353   -0.9846 C   0  0  0  0  0  0  0  0  0  0  0  0
    2.8255   -0.3627    0.1312 C   0  0  0  0  0  0  0  0  0  0  0  0
    1.5687    0.1458    0.5054 C   0  0  0  0  0  0  0  0  0  0  0  0
    1.4450    0.9367    1.6780 N   0  0  0  0  0  0  0  0  0  0  0  0
    0.4785   -0.1458   -0.2866 C   0  0  0  0  0  0  0  0  0  0  0  0
   -0.8597    0.3900    0.0838 C   0  0  0  0  0  0  0  0  0  0  0  0
   -0.8680    1.8571    0.2531 C   0  0  0  0  0  0  0  0  0  0  0  0
   -0.9767    2.4472    1.4816 C   0  0  0  0  0  0  0  0  0  0  0  0
   -0.9778    3.8408    1.6307 C   0  0  0  0  0  0  0  0  0  0  0  0
   -0.8686    4.6344    0.5287 C   0  0  0  0  0  0  0  0  0  0  0  0
   -0.7582    4.0629   -0.7188 C   0  0  0  0  0  0  0  0  0  0  0  0
   -0.7584    2.6686   -0.8518 C   0  0  0  0  0  0  0  0  0  0  0  0
    3.9557    0.0041    1.0482 C   0  0  0  0  0  0  0  0  0  0  0  0
    5.2075   -0.7832    0.7528 C   0  0  0  0  0  0  0  0  0  0  0  0
    5.4135   -0.8739   -0.7470 C   0  0  0  0  0  0  0  0  0  0  0  0
    4.3344   -1.6785   -1.3904 C   0  0  0  0  0  0  0  0  0  0  0  0
   -5.8590   -1.8450    0.3540 H   0  0  0  0  0  0  0  0  0  0  0  0
   -5.7999   -3.5883    0.7372 H   0  0  0  0  0  0  0  0  0  0  0  0
   -4.9066   -2.9650   -0.7431 H   0  0  0  0  0  0  0  0  0  0  0  0
   -3.6450   -3.5077    1.6425 H   0  0  0  0  0  0  0  0  0  0  0  0
   -4.3050   -1.8991    2.0473 H   0  0  0  0  0  0  0  0  0  0  0  0
   -2.4242    0.8967   -1.2800 H   0  0  0  0  0  0  0  0  0  0  0  0
   -3.0336   -2.2700   -2.6584 H   0  0  0  0  0  0  0  0  0  0  0  0
   -2.2813   -1.1962   -3.9577 H   0  0  0  0  0  0  0  0  0  0  0  0
   -3.5232   -0.5627   -2.8502 H   0  0  0  0  0  0  0  0  0  0  0  0
    0.9522    0.5530    2.4941 H   0  0  0  0  0  0  0  0  0  0  0  0
    1.8451    1.8866    1.7180 H   0  0  0  0  0  0  0  0  0  0  0  0
   -1.0468   -0.0442    1.1184 H   0  0  0  0  0  0  0  0  0  0  0  0
   -1.0703    1.8713    2.3867 H   0  0  0  0  0  0  0  0  0  0  0  0
   -1.0652    4.2950    2.6185 H   0  0  0  0  0  0  0  0  0  0  0  0
   -0.8734    5.7111    0.6866 H   0  0  0  0  0  0  0  0  0  0  0  0
   -0.6740    4.7230   -1.5631 H   0  0  0  0  0  0  0  0  0  0  0  0
   -0.6681    2.2973   -1.8626 H   0  0  0  0  0  0  0  0  0  0  0  0
    3.6320   -0.2138    2.1066 H   0  0  0  0  0  0  0  0  0  0  0  0
    4.1288    1.0850    0.9873 H   0  0  0  0  0  0  0  0  0  0  0  0
    5.1303   -1.7996    1.1779 H   0  0  0  0  0  0  0  0  0  0  0  0
    6.0828   -0.2695    1.1700 H   0  0  0  0  0  0  0  0  0  0  0  0
    5.3516    0.1632   -1.1344 H   0  0  0  0  0  0  0  0  0  0  0  0
    6.4178   -1.2694   -0.9542 H   0  0  0  0  0  0  0  0  0  0  0  0
    4.3912   -2.7586   -1.1415 H   0  0  0  0  0  0  0  0  0  0  0  0
    4.4139   -1.5318   -2.4911 H   0  0  0  0  0  0  0  0  0  0  0  0
  1  2  1  0
  2  3  1  0
  3  4  1  0
  4  5  2  0
  4  6  1  0
  6  7  1  0
  7  8  1  0
  7  9  2  0
  9 10  1  0
 10 11  2  0
 11 12  1  0
 12 13  2  0
 13 14  1  0
 14 15  1  0
 14 16  2  0
 16 17  1  0
 17 18  1  0
 18 19  2  0
 19 20  1  0
 20 21  2  0
 21 22  1  0
 22 23  2  0
 13 24  1  0
 24 25  1  0
 25 26  1  0
 26 27  1  0
 17  6  1  0
 23 18  1  0
 16 10  1  0
 27 12  1  0
  1 28  1  0
  1 29  1  0
  1 30  1  0
  2 31  1  0
  2 32  1  0
  6 33  1  0
  8 34  1  0
  8 35  1  0
  8 36  1  0
 15 37  1  0
 15 38  1  0
 17 39  1  0
 19 40  1  0
 20 41  1  0
 21 42  1  0
 22 43  1  0
 23 44  1  0
 24 45  1  0
 24 46  1  0
 25 47  1  0
 25 48  1  0
 26 49  1  0
 26 50  1  0
 27 51  1  0
 27 52  1  0
M  END
$$$$
