@<TRIPOS>MOLECULE
*****
 40 44 0 0 0
SMALL
GASTEIGER

@<TRIPOS>ATOM
      1 CL         -3.5648    0.9476   -2.4449 Cl      1  UNL1       -0.0829
      2 C          -4.2884    0.5304   -0.9127 C.ar    1  UNL1        0.0487
      3 C          -5.6557    0.5428   -0.6884 C.ar    1  UNL1       -0.0428
      4 C          -6.1903    0.2064    0.5375 C.ar    1  UNL1       -0.0603
      5 C          -5.3414   -0.1505    1.5633 C.ar    1  UNL1       -0.0611
      6 C          -3.9637   -0.1656    1.3460 C.ar    1  UNL1       -0.0526
      7 C          -3.4380    0.1747    0.1089 C.ar    1  UNL1        0.0012
      8 C          -1.9911    0.1163    0.0225 C.ar    1  UNL1       -0.0017
      9 C          -1.2676    1.2478    0.3304 C.ar    1  UNL1       -0.0292
     10 C           0.1001    1.2076    0.2532 C.ar    1  UNL1        0.0488
     11 C           0.7560    0.0633   -0.1243 C.ar    1  UNL1        0.0203
     12 C           2.0920    0.2836   -0.1212 C.ar    1  UNL1        0.0099
     13 C           2.2448    1.5952    0.2685 C.ar    1  UNL1        0.0476
     14 N           1.0216    2.1571    0.4967 N.ar    1  UNL1       -0.3541
     15 C           3.4684    2.2241    0.4006 C.ar    1  UNL1       -0.0360
     16 C           4.6313    1.5267    0.1343 C.ar    1  UNL1       -0.0385
     17 C           4.5172    0.1891   -0.2651 C.ar    1  UNL1        0.0339
     18 N           5.7236   -0.5326   -0.5410 N.am    1  UNL1       -0.2881
     19 C           6.3227   -1.2286    0.5664 C.2     1  UNL1        0.2041
     20 O           5.6098   -1.0337    1.5831 O.2     1  UNL1       -0.2792
     21 C           3.2573   -0.3543   -0.3697 C.ar    1  UNL1       -0.0307
     22 C           0.0569   -1.0627   -0.4318 C.ar    1  UNL1        0.0595
     23 C          -1.3132   -1.0427   -0.3606 C.ar    1  UNL1        0.0576
     24 C          -1.9226   -2.3210   -0.7185 C.2     1  UNL1        0.2518
     25 O          -3.1455   -2.6128   -0.7486 O.2     1  UNL1       -0.2697
     26 N          -0.7815   -3.1493   -1.0234 N.am    1  UNL1       -0.2483
     27 C           0.3956   -2.3968   -0.8517 C.2     1  UNL1        0.2519
     28 O           1.4497   -2.9739   -1.0765 O.2     1  UNL1       -0.2697
     29 H          -6.2868    0.8262   -1.5111 H       1  UNL1        0.0632
     30 H          -7.2665    0.2258    0.6819 H       1  UNL1        0.0618
     31 H          -5.7395   -0.4161    2.5264 H       1  UNL1        0.0618
     32 H          -3.3381   -0.4586    2.2021 H       1  UNL1        0.0624
     33 H          -1.7450    2.1774    0.6345 H       1  UNL1        0.0644
     34 H           0.8170    3.1328    0.8018 H       1  UNL1        0.1659
     35 H           3.5529    3.2363    0.7030 H       1  UNL1        0.0639
     36 H           5.5874    2.0087    0.2347 H       1  UNL1        0.0637
     37 H           6.0912   -0.5068   -1.5309 H       1  UNL1        0.1545
     38 H           7.2268   -1.7587    0.3200 H       1  UNL1        0.1255
     39 H           3.2773   -1.3695   -0.6779 H       1  UNL1        0.0643
     40 H          -0.9601   -4.1490   -1.3175 H       1  UNL1        0.1581
@<TRIPOS>BOND
     1     1     2    1
     2     2     3   ar
     3     3     4   ar
     4     4     5   ar
     5     5     6   ar
     6     6     7   ar
     7     7     8    1
     8     8     9   ar
     9     9    10   ar
    10    10    11   ar
    11    11    12   ar
    12    12    13   ar
    13    13    14   ar
    14    13    15   ar
    15    15    16   ar
    16    16    17   ar
    17    17    18    1
    18    18    19   am
    19    19    20    2
    20    17    21   ar
    21    11    22   ar
    22    22    23   ar
    23    23    24    1
    24    24    25    2
    25    24    26   am
    26    26    27   am
    27    27    28    2
    28     7     2   ar
    29    23     8   ar
    30    14    10   ar
    31    27    22    1
    32    21    12   ar
    33     3    29    1
    34     4    30    1
    35     5    31    1
    36     6    32    1
    37     9    33    1
    38    14    34    1
    39    15    35    1
    40    16    36    1
    41    18    37    1
    42    19    38    1
    43    21    39    1
    44    26    40    1
