
     RDKit          3D

 40 44  0  0  0  0  0  0  0  0999 V2000
   -3.5648    0.9476   -2.4449 Cl  0  0  0  0  0  0  0  0  0  0  0  0
   -4.2884    0.5304   -0.9127 C   0  0  0  0  0  0  0  0  0  0  0  0
   -5.6557    0.5428   -0.6884 C   0  0  0  0  0  0  0  0  0  0  0  0
   -6.1903    0.2064    0.5375 C   0  0  0  0  0  0  0  0  0  0  0  0
   -5.3414   -0.1505    1.5633 C   0  0  0  0  0  0  0  0  0  0  0  0
   -3.9637   -0.1656    1.3460 C   0  0  0  0  0  0  0  0  0  0  0  0
   -3.4380    0.1747    0.1089 C   0  0  0  0  0  0  0  0  0  0  0  0
   -1.9911    0.1163    0.0225 C   0  0  0  0  0  0  0  0  0  0  0  0
   -1.2676    1.2478    0.3304 C   0  0  0  0  0  0  0  0  0  0  0  0
    0.1001    1.2076    0.2532 C   0  0  0  0  0  0  0  0  0  0  0  0
    0.7560    0.0633   -0.1243 C   0  0  0  0  0  0  0  0  0  0  0  0
    2.0920    0.2836   -0.1212 C   0  0  0  0  0  0  0  0  0  0  0  0
    2.2448    1.5952    0.2685 C   0  0  0  0  0  0  0  0  0  0  0  0
    1.0216    2.1571    0.4967 N   0  0  0  0  0  0  0  0  0  0  0  0
    3.4684    2.2241    0.4006 C   0  0  0  0  0  0  0  0  0  0  0  0
    4.6313    1.5267    0.1343 C   0  0  0  0  0  0  0  0  0  0  0  0
    4.5172    0.1891   -0.2651 C   0  0  0  0  0  0  0  0  0  0  0  0
    5.7236   -0.5326   -0.5410 N   0  0  0  0  0  0  0  0  0  0  0  0
    6.3227   -1.2286    0.5664 C   0  0  0  0  0  0  0  0  0  0  0  0
    5.6098   -1.0337    1.5831 O   0  0  0  0  0  0  0  0  0  0  0  0
    3.2573   -0.3543   -0.3697 C   0  0  0  0  0  0  0  0  0  0  0  0
    0.0569   -1.0627   -0.4318 C   0  0  0  0  0  0  0  0  0  0  0  0
   -1.3132   -1.0427   -0.3606 C   0  0  0  0  0  0  0  0  0  0  0  0
   -1.9226   -2.3210   -0.7185 C   0  0  0  0  0  0  0  0  0  0  0  0
   -3.1455   -2.6128   -0.7486 O   0  0  0  0  0  0  0  0  0  0  0  0
   -0.7815   -3.1493   -1.0234 N   0  0  0  0  0  0  0  0  0  0  0  0
    0.3956   -2.3968   -0.8517 C   0  0  0  0  0  0  0  0  0  0  0  0
    1.4497   -2.9739   -1.0765 O   0  0  0  0  0  0  0  0  0  0  0  0
   -6.2868    0.8262   -1.5111 H   0  0  0  0  0  0  0  0  0  0  0  0
   -7.2665    0.2258    0.6819 H   0  0  0  0  0  0  0  0  0  0  0  0
   -5.7395   -0.4161    2.5264 H   0  0  0  0  0  0  0  0  0  0  0  0
   -3.3381   -0.4586    2.2021 H   0  0  0  0  0  0  0  0  0  0  0  0
   -1.7450    2.1774    0.6345 H   0  0  0  0  0  0  0  0  0  0  0  0
    0.8170    3.1328    0.8018 H   0  0  0  0  0  0  0  0  0  0  0  0
    3.5529    3.2363    0.7030 H   0  0  0  0  0  0  0  0  0  0  0  0
    5.5874    2.0087    0.2347 H   0  0  0  0  0  0  0  0  0  0  0  0
    6.0912   -0.5068   -1.5309 H   0  0  0  0  0  0  0  0  0  0  0  0
    7.2268   -1.7587    0.3200 H   0  0  0  0  0  0  0  0  0  0  0  0
    3.2773   -1.3695   -0.6779 H   0  0  0  0  0  0  0  0  0  0  0  0
   -0.9601   -4.1490   -1.3175 H   0  0  0  0  0  0  0  0  0  0  0  0
  1  2  1  0
  2  3  2  0
  3  4  1  0
  4  5  2  0
  5  6  1  0
  6  7  2  0
  7  8  1  0
  8  9  2  0
  9 10  1  0
 10 11  2  0
 11 12  1  0
 12 13  2  0
 13 14  1  0
 13 15  1  0
 15 16  2  0
 16 17  1  0
 17 18  1  0
 18 19  1  0
 19 20  2  0
 17 21  2  0
 11 22  1  0
 22 23  2  0
 23 24  1  0
 24 25  2  0
 24 26  1  0
 26 27  1  0
 27 28  2  0
  7  2  1  0
 23  8  1  0
 14 10  1  0
 27 22  1  0
 21 12  1  0
  3 29  1  0
  4 30  1  0
  5 31  1  0
  6 32  1  0
  9 33  1  0
 14 34  1  0
 15 35  1  0
 16 36  1  0
 18 37  1  0
 19 38  1  0
 21 39  1  0
 26 40  1  0
M  END
$$$$
