
     RDKit          3D

 32 33  0  0  0  0  0  0  0  0999 V2000
   -4.8510    1.7069   -2.0284 O   0  0  0  0  0  0  0  0  0  0  0  0
   -5.0639    1.1232   -0.9370 C   0  0  0  0  0  0  0  0  0  0  0  0
   -6.3529    1.0070   -0.4813 O   0  0  0  0  0  0  0  0  0  0  0  0
   -3.9119    0.5839   -0.1867 C   0  0  0  0  0  0  0  0  0  0  0  0
   -4.1239   -0.0614    1.0153 C   0  0  0  0  0  0  0  0  0  0  0  0
   -3.0385   -0.5593    1.7044 C   0  0  0  0  0  0  0  0  0  0  0  0
   -1.7520   -0.4044    1.1798 C   0  0  0  0  0  0  0  0  0  0  0  0
   -1.5125    0.2330   -0.0145 C   0  0  0  0  0  0  0  0  0  0  0  0
   -0.2453    0.4001   -0.5892 N   0  0  0  0  0  0  0  0  0  0  0  0
    0.8883   -0.3850   -0.3223 C   0  0  0  0  0  0  0  0  0  0  0  0
    0.8529   -1.7061    0.0507 C   0  0  0  0  0  0  0  0  0  0  0  0
    1.9991   -2.4003    0.3246 C   0  0  0  0  0  0  0  0  0  0  0  0
    3.1992   -1.6779    0.1986 C   0  0  0  0  0  0  0  0  0  0  0  0
    3.2926   -0.3588   -0.1726 C   0  0  0  0  0  0  0  0  0  0  0  0
    4.8762    0.4456   -0.4207 S   0  0  0  0  0  6  0  0  0  0  0  0
    5.0345    2.0415   -1.4177 F   0  0  0  0  0  0  0  0  0  0  0  0
    6.5227   -0.0434    0.4818 F   0  0  0  0  0  0  0  0  0  0  0  0
    4.6222    2.5237    0.5399 F   0  0  0  0  0  0  0  0  0  0  0  0
    4.9846    0.7986    1.7161 F   0  0  0  0  0  0  0  0  0  0  0  0
    5.6437    0.0275   -1.4801 F   0  0  0  0  0  0  0  0  0  0  0  0
    2.1402    0.2529   -0.4217 C   0  0  0  0  0  0  0  0  0  0  0  0
   -2.6318    0.7197   -0.6761 C   0  0  0  0  0  0  0  0  0  0  0  0
   -6.9832    1.8156   -0.5914 H   0  0  0  0  0  0  0  0  0  0  0  0
   -5.1401   -0.1645    1.3949 H   0  0  0  0  0  0  0  0  0  0  0  0
   -3.1780   -1.0659    2.6431 H   0  0  0  0  0  0  0  0  0  0  0  0
   -0.9464   -0.7949    1.7542 H   0  0  0  0  0  0  0  0  0  0  0  0
   -0.1334    1.1921   -1.2916 H   0  0  0  0  0  0  0  0  0  0  0  0
   -0.0986   -2.2220    0.1207 H   0  0  0  0  0  0  0  0  0  0  0  0
    2.0682   -3.4128    0.6167 H   0  0  0  0  0  0  0  0  0  0  0  0
    4.1810   -2.1297    0.3988 H   0  0  0  0  0  0  0  0  0  0  0  0
    2.1415    1.2879   -0.7182 H   0  0  0  0  0  0  0  0  0  0  0  0
   -2.4834    1.2274   -1.6185 H   0  0  0  0  0  0  0  0  0  0  0  0
  1  2  2  0
  2  3  1  0
  2  4  1  0
  4  5  2  0
  5  6  1  0
  6  7  2  0
  7  8  1  0
  8  9  1  0
  9 10  1  0
 10 11  2  0
 11 12  1  0
 12 13  2  0
 13 14  1  0
 14 15  1  0
 15 16  1  0
 15 17  1  0
 15 18  1  0
 15 19  1  0
 15 20  1  0
 14 21  2  0
  8 22  2  0
 22  4  1  0
 21 10  1  0
  3 23  1  0
  5 24  1  0
  6 25  1  0
  7 26  1  0
  9 27  1  0
 11 28  1  0
 12 29  1  0
 13 30  1  0
 21 31  1  0
 22 32  1  0
M  END
$$$$
