@<TRIPOS>MOLECULE
*****
 32 33 0 0 0
SMALL
GASTEIGER

@<TRIPOS>ATOM
      1 O          -4.8510    1.7069   -2.0284 O.2     1  UNL1       -0.2451
      2 C          -5.0639    1.1232   -0.9370 C.2     1  UNL1        0.3369
      3 O          -6.3529    1.0070   -0.4813 O.3     1  UNL1       -0.4771
      4 C          -3.9119    0.5839   -0.1867 C.ar    1  UNL1        0.0606
      5 C          -4.1239   -0.0614    1.0153 C.ar    1  UNL1       -0.0477
      6 C          -3.0385   -0.5593    1.7044 C.ar    1  UNL1       -0.0592
      7 C          -1.7520   -0.4044    1.1798 C.ar    1  UNL1       -0.0405
      8 C          -1.5125    0.2330   -0.0145 C.ar    1  UNL1        0.0321
      9 N          -0.2453    0.4001   -0.5892 N.pl3   1  UNL1       -0.3144
     10 C           0.8883   -0.3850   -0.3223 C.ar    1  UNL1        0.0326
     11 C           0.8529   -1.7061    0.0507 C.ar    1  UNL1       -0.0405
     12 C           1.9991   -2.4003    0.3246 C.ar    1  UNL1       -0.0587
     13 C           3.1992   -1.6779    0.1986 C.ar    1  UNL1       -0.0397
     14 C           3.2926   -0.3588   -0.1726 C.ar    1  UNL1        0.1079
     15 S           4.8762    0.4456   -0.4207 S.3     1  UNL1        0.3116
     16 F           5.0345    2.0415   -1.4177 F       1  UNL1       -0.0934
     17 F           6.5227   -0.0434    0.4818 F       1  UNL1       -0.0934
     18 F           4.6222    2.5237    0.5399 F       1  UNL1       -0.0934
     19 F           4.9846    0.7986    1.7161 F       1  UNL1       -0.0934
     20 F           5.6437    0.0275   -1.4801 F       1  UNL1       -0.0934
     21 C           2.1402    0.2529   -0.4217 C.ar    1  UNL1       -0.0186
     22 C          -2.6318    0.7197   -0.6761 C.ar    1  UNL1       -0.0266
     23 H          -6.9832    1.8156   -0.5914 H       1  UNL1        0.2954
     24 H          -5.1401   -0.1645    1.3949 H       1  UNL1        0.0626
     25 H          -3.1780   -1.0659    2.6431 H       1  UNL1        0.0618
     26 H          -0.9464   -0.7949    1.7542 H       1  UNL1        0.0636
     27 H          -0.1334    1.1921   -1.2916 H       1  UNL1        0.1522
     28 H          -0.0986   -2.2220    0.1207 H       1  UNL1        0.0636
     29 H           2.0682   -3.4128    0.6167 H       1  UNL1        0.0619
     30 H           4.1810   -2.1297    0.3988 H       1  UNL1        0.0631
     31 H           2.1415    1.2879   -0.7182 H       1  UNL1        0.0650
     32 H          -2.4834    1.2274   -1.6185 H       1  UNL1        0.0644
@<TRIPOS>BOND
     1     1     2    2
     2     2     3    1
     3     2     4    1
     4     4     5   ar
     5     5     6   ar
     6     6     7   ar
     7     7     8   ar
     8     8     9    1
     9     9    10    1
    10    10    11   ar
    11    11    12   ar
    12    12    13   ar
    13    13    14   ar
    14    14    15    1
    15    15    16    1
    16    15    17    1
    17    15    18    1
    18    15    19    1
    19    15    20    1
    20    14    21   ar
    21     8    22   ar
    22    22     4   ar
    23    21    10   ar
    24     3    23    1
    25     5    24    1
    26     6    25    1
    27     7    26    1
    28     9    27    1
    29    11    28    1
    30    12    29    1
    31    13    30    1
    32    21    31    1
    33    22    32    1
