
     RDKit          3D

 36 38  0  0  0  0  0  0  0  0999 V2000
   -2.3010    0.3206    0.2655 C   0  0  1  0  0  0  0  0  0  0  0  0
   -2.9446   -0.2920   -0.9744 C   0  0  0  0  0  0  0  0  0  0  0  0
   -2.9830   -2.0913   -0.7019 S   0  0  0  0  0  0  0  0  0  0  0  0
   -4.1115   -2.4540    0.6786 C   0  0  0  0  0  0  0  0  0  0  0  0
   -1.0307   -0.1593    0.4447 O   0  0  0  0  0  0  0  0  0  0  0  0
   -0.1765    0.9142    0.6690 C   0  0  1  0  0  0  0  0  0  0  0  0
    1.1902    0.6454    0.3585 N   0  0  0  0  0  0  0  0  0  0  0  0
    2.0923    1.6421    0.3072 C   0  0  0  0  0  0  0  0  0  0  0  0
    3.3335    1.0942   -0.0142 C   0  0  0  0  0  0  0  0  0  0  0  0
    3.0977   -0.2516   -0.1426 C   0  0  0  0  0  0  0  0  0  0  0  0
    3.8598   -1.3591   -0.4408 C   0  0  0  0  0  0  0  0  0  0  0  0
    5.2317   -1.2418   -0.7013 N   0  0  0  0  0  0  0  0  0  0  0  0
    3.3989   -2.6168   -0.5125 N   0  0  0  0  0  0  0  0  0  0  0  0
    2.0753   -2.8534   -0.2771 C   0  0  0  0  0  0  0  0  0  0  0  0
    1.3051   -1.7999    0.0157 N   0  0  0  0  0  0  0  0  0  0  0  0
    1.7725   -0.5482    0.0854 C   0  0  0  0  0  0  0  0  0  0  0  0
   -0.7148    1.8989   -0.3779 C   0  0  2  0  0  0  0  0  0  0  0  0
   -0.1804    3.1502   -0.2781 O   0  0  0  0  0  0  0  0  0  0  0  0
   -2.1935    1.8175   -0.0072 C   0  0  2  0  0  0  0  0  0  0  0  0
   -2.3155    2.5568    1.1860 O   0  0  0  0  0  0  0  0  0  0  0  0
   -2.9161    0.1107    1.1593 H   0  0  0  0  0  0  0  0  0  0  0  0
   -2.3476   -0.0639   -1.8769 H   0  0  0  0  0  0  0  0  0  0  0  0
   -3.9758    0.0859   -1.1173 H   0  0  0  0  0  0  0  0  0  0  0  0
   -3.8007   -3.4397    1.0776 H   0  0  0  0  0  0  0  0  0  0  0  0
   -4.0190   -1.6441    1.4436 H   0  0  0  0  0  0  0  0  0  0  0  0
   -5.1341   -2.4153    0.2947 H   0  0  0  0  0  0  0  0  0  0  0  0
   -0.3242    1.3256    1.6930 H   0  0  0  0  0  0  0  0  0  0  0  0
    1.9873    2.7059    0.4682 H   0  0  0  0  0  0  0  0  0  0  0  0
    4.3098    1.5303   -0.1540 H   0  0  0  0  0  0  0  0  0  0  0  0
    6.0328   -0.6254   -0.3756 H   0  0  0  0  0  0  0  0  0  0  0  0
    6.2457   -1.1273   -0.8696 H   0  0  0  0  0  0  0  0  0  0  0  0
    1.6711   -3.8504   -0.3261 H   0  0  0  0  0  0  0  0  0  0  0  0
   -0.6172    1.3917   -1.3433 H   0  0  0  0  0  0  0  0  0  0  0  0
   -0.2460    3.5727   -1.1847 H   0  0  0  0  0  0  0  0  0  0  0  0
   -2.8632    2.1692   -0.7926 H   0  0  0  0  0  0  0  0  0  0  0  0
   -2.4084    1.9018    1.9435 H   0  0  0  0  0  0  0  0  0  0  0  0
  1  2  1  0
  2  3  1  0
  3  4  1  0
  1  5  1  0
  5  6  1  0
  6  7  1  0
  7  8  1  0
  8  9  2  0
  9 10  1  0
 10 11  2  0
 11 12  1  0
 11 13  1  0
 13 14  2  0
 14 15  1  0
 15 16  2  0
  6 17  1  0
 17 18  1  0
 17 19  1  0
 19 20  1  0
 19  1  1  0
 16  7  1  0
 16 10  1  0
  1 21  1  1
  2 22  1  0
  2 23  1  0
  4 24  1  0
  4 25  1  0
  4 26  1  0
  6 27  1  1
  8 28  1  0
  9 29  1  0
 12 30  1  0
 12 31  1  0
 14 32  1  0
 17 33  1  6
 18 34  1  0
 19 35  1  6
 20 36  1  0
M  END
$$$$
