@<TRIPOS>MOLECULE
*****
 36 38 0 0 0
SMALL
GASTEIGER

@<TRIPOS>ATOM
      1 C          -2.3010    0.3206    0.2655 C.3     1  UNL1        0.0986
      2 C          -2.9446   -0.2920   -0.9744 C.3     1  UNL1        0.0223
      3 S          -2.9830   -2.0913   -0.7019 S.3     1  UNL1       -0.1615
      4 C          -4.1115   -2.4540    0.6786 C.3     1  UNL1       -0.0180
      5 O          -1.0307   -0.1593    0.4447 O.3     1  UNL1       -0.3472
      6 C          -0.1765    0.9142    0.6690 C.3     1  UNL1        0.1654
      7 N           1.1902    0.6454    0.3585 N.ar    1  UNL1       -0.3031
      8 C           2.0923    1.6421    0.3072 C.ar    1  UNL1        0.0098
      9 C           3.3335    1.0942   -0.0142 C.ar    1  UNL1       -0.0315
     10 C           3.0977   -0.2516   -0.1426 C.ar    1  UNL1        0.0584
     11 C           3.8598   -1.3591   -0.4408 C.ar    1  UNL1        0.1286
     12 N           5.2317   -1.2418   -0.7013 N.pl3   1  UNL1       -0.3425
     13 N           3.3989   -2.6168   -0.5125 N.ar    1  UNL1       -0.2204
     14 C           2.0753   -2.8534   -0.2771 C.ar    1  UNL1        0.1204
     15 N           1.3051   -1.7999    0.0157 N.ar    1  UNL1       -0.2175
     16 C           1.7725   -0.5482    0.0854 C.ar    1  UNL1        0.1478
     17 C          -0.7148    1.8989   -0.3779 C.3     1  UNL1        0.1285
     18 O          -0.1804    3.1502   -0.2781 O.3     1  UNL1       -0.3847
     19 C          -2.1935    1.8175   -0.0072 C.3     1  UNL1        0.1121
     20 O          -2.3155    2.5568    1.1860 O.3     1  UNL1       -0.3865
     21 H          -2.9161    0.1107    1.1593 H       1  UNL1        0.0632
     22 H          -2.3476   -0.0639   -1.8769 H       1  UNL1        0.0402
     23 H          -3.9758    0.0859   -1.1173 H       1  UNL1        0.0402
     24 H          -3.8007   -3.4397    1.0776 H       1  UNL1        0.0341
     25 H          -4.0190   -1.6441    1.4436 H       1  UNL1        0.0341
     26 H          -5.1341   -2.4153    0.2947 H       1  UNL1        0.0341
     27 H          -0.3242    1.3256    1.6930 H       1  UNL1        0.0866
     28 H           1.9873    2.7059    0.4682 H       1  UNL1        0.0810
     29 H           4.3098    1.5303   -0.1540 H       1  UNL1        0.0640
     30 H           6.0328   -0.6254   -0.3756 H       1  UNL1        0.1437
     31 H           6.2457   -1.1273   -0.8696 H       1  UNL1        0.1437
     32 H           1.6711   -3.8504   -0.3261 H       1  UNL1        0.1048
     33 H          -0.6172    1.3917   -1.3433 H       1  UNL1        0.0665
     34 H          -0.2460    3.5727   -1.1847 H       1  UNL1        0.2101
     35 H          -2.8632    2.1692   -0.7926 H       1  UNL1        0.0647
     36 H          -2.4084    1.9018    1.9435 H       1  UNL1        0.2100
@<TRIPOS>BOND
     1     1     2    1
     2     2     3    1
     3     3     4    1
     4     1     5    1
     5     5     6    1
     6     6     7    1
     7     7     8   ar
     8     8     9   ar
     9     9    10   ar
    10    10    11   ar
    11    11    12    1
    12    11    13   ar
    13    13    14   ar
    14    14    15   ar
    15    15    16   ar
    16     6    17    1
    17    17    18    1
    18    17    19    1
    19    19    20    1
    20    19     1    1
    21    16     7   ar
    22    16    10   ar
    23     1    21    1
    24     2    22    1
    25     2    23    1
    26     4    24    1
    27     4    25    1
    28     4    26    1
    29     6    27    1
    30     8    28    1
    31     9    29    1
    32    12    30    1
    33    12    31    1
    34    14    32    1
    35    17    33    1
    36    18    34    1
    37    19    35    1
    38    20    36    1
