@<TRIPOS>MOLECULE
*****
 44 46 0 0 0
SMALL
GASTEIGER

@<TRIPOS>ATOM
      1 C          -7.7820    1.4510   -0.7629 C.3     1  UNL1        0.0788
      2 O          -7.0776    1.1128    0.3887 O.3     1  UNL1       -0.4951
      3 C          -5.8969    0.3913    0.4105 C.ar    1  UNL1        0.1202
      4 C          -5.2872    0.1159    1.6260 C.ar    1  UNL1       -0.0181
      5 C          -4.1097   -0.5978    1.7183 C.ar    1  UNL1       -0.0319
      6 C          -3.4859   -1.0712    0.5868 C.ar    1  UNL1        0.1057
      7 S          -1.9949   -1.9748    0.7069 S.O2    1  UNL1        0.0614
      8 O          -2.0175   -2.7800    1.9519 O.2     1  UNL1       -0.1528
      9 O          -1.8807   -2.9288   -0.4585 O.2     1  UNL1       -0.1528
     10 N          -0.6213   -0.9290    0.6401 N.3     1  UNL1       -0.1680
     11 C          -0.5705   -0.2171   -0.6189 C.3     1  UNL1        0.0462
     12 C           0.8658    0.2058   -0.6695 C.ar    1  UNL1       -0.0272
     13 C           1.4825    1.2658   -1.2968 C.ar    1  UNL1       -0.0564
     14 C           2.8380    1.4075   -1.1690 C.ar    1  UNL1       -0.0543
     15 C           3.6120    0.5132   -0.4245 C.ar    1  UNL1       -0.0246
     16 C           5.0472    0.7469   -0.3468 C.2     1  UNL1       -0.0496
     17 C           5.8703   -0.0319    0.3263 C.2     1  UNL1        0.0027
     18 C           7.2926    0.2098    0.3964 C.2     1  UNL1        0.2593
     19 O           8.0551   -0.5622    1.0548 O.2     1  UNL1       -0.2687
     20 N           7.9272    1.3000   -0.2487 N.am    1  UNL1       -0.1940
     21 O           9.2657    1.4926   -0.1587 O.3     1  UNL1       -0.2949
     22 C           2.9594   -0.5350    0.1888 C.ar    1  UNL1       -0.0498
     23 C           1.5802   -0.7046    0.0762 C.ar    1  UNL1       -0.0266
     24 C           0.6077   -1.7011    0.6024 C.3     1  UNL1        0.0462
     25 C          -4.0777   -0.8068   -0.6294 C.ar    1  UNL1       -0.0319
     26 C          -5.2681   -0.0851   -0.7213 C.ar    1  UNL1       -0.0181
     27 H          -8.8658    1.6123   -0.5900 H       1  UNL1        0.0660
     28 H          -7.3794    2.4148   -1.1453 H       1  UNL1        0.0660
     29 H          -7.6397    0.7084   -1.6020 H       1  UNL1        0.0660
     30 H          -5.7916    0.4976    2.5267 H       1  UNL1        0.0655
     31 H          -3.6653   -0.7912    2.6948 H       1  UNL1        0.0638
     32 H          -1.2545    0.6469   -0.6574 H       1  UNL1        0.0493
     33 H          -0.7090   -0.9308   -1.4475 H       1  UNL1        0.0493
     34 H           0.8604    1.9382   -1.8633 H       1  UNL1        0.0621
     35 H           3.3127    2.2425   -1.6650 H       1  UNL1        0.0624
     36 H           5.4541    1.5994   -0.8660 H       1  UNL1        0.0625
     37 H           5.4910   -0.9116    0.8690 H       1  UNL1        0.0670
     38 H           7.4038    1.9969   -0.8155 H       1  UNL1        0.1825
     39 H           9.7692    0.6553   -0.1103 H       1  UNL1        0.2414
     40 H           3.5339   -1.2535    0.7791 H       1  UNL1        0.0627
     41 H           0.5431   -2.5141   -0.1512 H       1  UNL1        0.0493
     42 H           0.8932   -2.1226    1.5681 H       1  UNL1        0.0493
     43 H          -3.5919   -1.1763   -1.5206 H       1  UNL1        0.0638
     44 H          -5.6979    0.1006   -1.6856 H       1  UNL1        0.0655
@<TRIPOS>BOND
     1     1     2    1
     2     2     3    1
     3     3     4   ar
     4     4     5   ar
     5     5     6   ar
     6     6     7    1
     7     7     8    2
     8     7     9    2
     9     7    10    1
    10    10    11    1
    11    11    12    1
    12    12    13   ar
    13    13    14   ar
    14    14    15   ar
    15    15    16    1
    16    16    17    2
    17    17    18    1
    18    18    19    2
    19    18    20   am
    20    20    21    1
    21    15    22   ar
    22    22    23   ar
    23    23    24    1
    24     6    25   ar
    25    25    26   ar
    26    26     3   ar
    27    24    10    1
    28    23    12   ar
    29     1    27    1
    30     1    28    1
    31     1    29    1
    32     4    30    1
    33     5    31    1
    34    11    32    1
    35    11    33    1
    36    13    34    1
    37    14    35    1
    38    16    36    1
    39    17    37    1
    40    20    38    1
    41    21    39    1
    42    22    40    1
    43    24    41    1
    44    24    42    1
    45    25    43    1
    46    26    44    1
