@<TRIPOS>MOLECULE
*****
 48 49 0 0 0
SMALL
GASTEIGER

@<TRIPOS>ATOM
      1 C           6.3636   -1.2029   -0.3013 C.3     1  UNL1        0.0788
      2 O           5.1378   -1.9050   -0.3341 O.3     1  UNL1       -0.4950
      3 C           3.9872   -1.1711    0.0109 C.ar    1  UNL1        0.1239
      4 C           4.0568    0.1584    0.3618 C.ar    1  UNL1        0.0224
      5 C           2.9343    0.8714    0.6931 C.ar    1  UNL1        0.1346
      6 O           3.0967    2.2090    1.0489 O.3     1  UNL1       -0.5058
      7 C           1.6449    0.2727    0.6871 C.ar    1  UNL1        0.1036
      8 C           1.5652   -1.0503    0.3488 C.ar    1  UNL1       -0.0264
      9 C           2.7477   -1.7543    0.0104 C.ar    1  UNL1       -0.0158
     10 C           0.3956   -1.9659    0.4640 C.3     1  UNL1       -0.0267
     11 C          -0.1614   -2.5563   -0.7572 C.3     1  UNL1       -0.0490
     12 C          -1.0511   -1.7333   -1.5707 C.3     1  UNL1       -0.0524
     13 C          -2.4858   -1.5938   -1.1560 C.3     1  UNL1       -0.0460
     14 C          -2.7739   -1.0629    0.1659 C.3     1  UNL1        0.0099
     15 C          -4.2082   -0.6658    0.4189 C.2     1  UNL1        0.1558
     16 O          -5.0456   -1.6012    0.6867 O.2     1  UNL1       -0.2927
     17 C          -4.7093    0.6923    0.3986 C.2     1  UNL1       -0.0230
     18 C          -4.0253    1.8005    0.0494 C.2     1  UNL1       -0.0773
     19 C          -2.6519    1.7947   -0.3908 C.3     1  UNL1        0.0027
     20 C          -1.5462    2.4198    0.3602 C.3     1  UNL1        0.1040
     21 C          -1.4353    3.8845    0.0332 C.3     1  UNL1       -0.0274
     22 O          -0.4274    1.6245    0.1138 O.3     1  UNL1       -0.4578
     23 C           0.5338    1.1822    0.9887 C.2     1  UNL1        0.3433
     24 O           0.4916    1.5751    2.2053 O.2     1  UNL1       -0.2448
     25 H           6.6122   -0.8455    0.7187 H       1  UNL1        0.0660
     26 H           6.2643   -0.3158   -0.9554 H       1  UNL1        0.0660
     27 H           7.2100   -1.8417   -0.6308 H       1  UNL1        0.0660
     28 H           5.0497    0.6346    0.3685 H       1  UNL1        0.0691
     29 H           3.4693    2.3655    1.9809 H       1  UNL1        0.2922
     30 H           2.7052   -2.8119   -0.2696 H       1  UNL1        0.0657
     31 H          -0.3811   -1.5609    1.1137 H       1  UNL1        0.0313
     32 H           0.7804   -2.8515    1.1331 H       1  UNL1        0.0313
     33 H           0.6375   -3.0799   -1.3819 H       1  UNL1        0.0268
     34 H          -0.7765   -3.4642   -0.4043 H       1  UNL1        0.0268
     35 H          -0.6755   -0.6565   -1.6685 H       1  UNL1        0.0265
     36 H          -1.0910   -2.0518   -2.6574 H       1  UNL1        0.0265
     37 H          -3.0775   -1.0324   -1.9299 H       1  UNL1        0.0269
     38 H          -2.9274   -2.6538   -1.2265 H       1  UNL1        0.0269
     39 H          -2.6528   -1.9938    0.8848 H       1  UNL1        0.0345
     40 H          -2.1234   -0.3504    0.6522 H       1  UNL1        0.0345
     41 H          -5.7714    0.8119    0.7070 H       1  UNL1        0.0649
     42 H          -4.5843    2.7224    0.1265 H       1  UNL1        0.0574
     43 H          -2.3053    0.9750   -1.0431 H       1  UNL1        0.0343
     44 H          -2.7807    2.6080   -1.3376 H       1  UNL1        0.0343
     45 H          -1.6735    2.4409    1.4955 H       1  UNL1        0.0734
     46 H          -2.4664    4.2889   -0.0219 H       1  UNL1        0.0265
     47 H          -0.9066    4.4714    0.7933 H       1  UNL1        0.0265
     48 H          -0.9690    3.9696   -0.9831 H       1  UNL1        0.0265
@<TRIPOS>BOND
     1     1     2    1
     2     2     3    1
     3     3     4   ar
     4     4     5   ar
     5     5     6    1
     6     5     7   ar
     7     7     8   ar
     8     8     9   ar
     9     8    10    1
    10    10    11    1
    11    11    12    1
    12    12    13    1
    13    13    14    1
    14    14    15    1
    15    15    16    2
    16    15    17    1
    17    17    18    2
    18    18    19    1
    19    19    20    1
    20    20    21    1
    21    20    22    1
    22    22    23    1
    23    23    24    2
    24     9     3   ar
    25    23     7    1
    26     1    25    1
    27     1    26    1
    28     1    27    1
    29     4    28    1
    30     6    29    1
    31     9    30    1
    32    10    31    1
    33    10    32    1
    34    11    33    1
    35    11    34    1
    36    12    35    1
    37    12    36    1
    38    13    37    1
    39    13    38    1
    40    14    39    1
    41    14    40    1
    42    17    41    1
    43    18    42    1
    44    19    43    1
    45    19    44    1
    46    20    45    1
    47    21    46    1
    48    21    47    1
    49    21    48    1
