
     RDKit          3D

 48 49  0  0  0  0  0  0  0  0999 V2000
    6.3636   -1.2029   -0.3013 C   0  0  0  0  0  0  0  0  0  0  0  0
    5.1378   -1.9050   -0.3341 O   0  0  0  0  0  0  0  0  0  0  0  0
    3.9872   -1.1711    0.0109 C   0  0  0  0  0  0  0  0  0  0  0  0
    4.0568    0.1584    0.3618 C   0  0  0  0  0  0  0  0  0  0  0  0
    2.9343    0.8714    0.6931 C   0  0  0  0  0  0  0  0  0  0  0  0
    3.0967    2.2090    1.0489 O   0  0  0  0  0  0  0  0  0  0  0  0
    1.6449    0.2727    0.6871 C   0  0  0  0  0  0  0  0  0  0  0  0
    1.5652   -1.0503    0.3488 C   0  0  0  0  0  0  0  0  0  0  0  0
    2.7477   -1.7543    0.0104 C   0  0  0  0  0  0  0  0  0  0  0  0
    0.3956   -1.9659    0.4640 C   0  0  0  0  0  0  0  0  0  0  0  0
   -0.1614   -2.5563   -0.7572 C   0  0  0  0  0  0  0  0  0  0  0  0
   -1.0511   -1.7333   -1.5707 C   0  0  0  0  0  0  0  0  0  0  0  0
   -2.4858   -1.5938   -1.1560 C   0  0  0  0  0  0  0  0  0  0  0  0
   -2.7739   -1.0629    0.1659 C   0  0  0  0  0  0  0  0  0  0  0  0
   -4.2082   -0.6658    0.4189 C   0  0  0  0  0  0  0  0  0  0  0  0
   -5.0456   -1.6012    0.6867 O   0  0  0  0  0  0  0  0  0  0  0  0
   -4.7093    0.6923    0.3986 C   0  0  0  0  0  0  0  0  0  0  0  0
   -4.0253    1.8005    0.0494 C   0  0  0  0  0  0  0  0  0  0  0  0
   -2.6519    1.7947   -0.3908 C   0  0  0  0  0  0  0  0  0  0  0  0
   -1.5462    2.4198    0.3602 C   0  0  2  0  0  0  0  0  0  0  0  0
   -1.4353    3.8845    0.0332 C   0  0  0  0  0  0  0  0  0  0  0  0
   -0.4274    1.6245    0.1138 O   0  0  0  0  0  0  0  0  0  0  0  0
    0.5338    1.1822    0.9887 C   0  0  0  0  0  0  0  0  0  0  0  0
    0.4916    1.5751    2.2053 O   0  0  0  0  0  0  0  0  0  0  0  0
    6.6122   -0.8455    0.7187 H   0  0  0  0  0  0  0  0  0  0  0  0
    6.2643   -0.3158   -0.9554 H   0  0  0  0  0  0  0  0  0  0  0  0
    7.2100   -1.8417   -0.6308 H   0  0  0  0  0  0  0  0  0  0  0  0
    5.0497    0.6346    0.3685 H   0  0  0  0  0  0  0  0  0  0  0  0
    3.4693    2.3655    1.9809 H   0  0  0  0  0  0  0  0  0  0  0  0
    2.7052   -2.8119   -0.2696 H   0  0  0  0  0  0  0  0  0  0  0  0
   -0.3811   -1.5609    1.1137 H   0  0  0  0  0  0  0  0  0  0  0  0
    0.7804   -2.8515    1.1331 H   0  0  0  0  0  0  0  0  0  0  0  0
    0.6375   -3.0799   -1.3819 H   0  0  0  0  0  0  0  0  0  0  0  0
   -0.7765   -3.4642   -0.4043 H   0  0  0  0  0  0  0  0  0  0  0  0
   -0.6755   -0.6565   -1.6685 H   0  0  0  0  0  0  0  0  0  0  0  0
   -1.0910   -2.0518   -2.6574 H   0  0  0  0  0  0  0  0  0  0  0  0
   -3.0775   -1.0324   -1.9299 H   0  0  0  0  0  0  0  0  0  0  0  0
   -2.9274   -2.6538   -1.2265 H   0  0  0  0  0  0  0  0  0  0  0  0
   -2.6528   -1.9938    0.8848 H   0  0  0  0  0  0  0  0  0  0  0  0
   -2.1234   -0.3504    0.6522 H   0  0  0  0  0  0  0  0  0  0  0  0
   -5.7714    0.8119    0.7070 H   0  0  0  0  0  0  0  0  0  0  0  0
   -4.5843    2.7224    0.1265 H   0  0  0  0  0  0  0  0  0  0  0  0
   -2.3053    0.9750   -1.0431 H   0  0  0  0  0  0  0  0  0  0  0  0
   -2.7807    2.6080   -1.3376 H   0  0  0  0  0  0  0  0  0  0  0  0
   -1.6735    2.4409    1.4955 H   0  0  0  0  0  0  0  0  0  0  0  0
   -2.4664    4.2889   -0.0219 H   0  0  0  0  0  0  0  0  0  0  0  0
   -0.9066    4.4714    0.7933 H   0  0  0  0  0  0  0  0  0  0  0  0
   -0.9690    3.9696   -0.9831 H   0  0  0  0  0  0  0  0  0  0  0  0
  1  2  1  0
  2  3  1  0
  3  4  2  0
  4  5  1  0
  5  6  1  0
  5  7  2  0
  7  8  1  0
  8  9  2  0
  8 10  1  0
 10 11  1  0
 11 12  1  0
 12 13  1  0
 13 14  1  0
 14 15  1  0
 15 16  2  0
 15 17  1  0
 17 18  2  0
 18 19  1  0
 19 20  1  0
 20 21  1  0
 20 22  1  0
 22 23  1  0
 23 24  2  0
  9  3  1  0
 23  7  1  0
  1 25  1  0
  1 26  1  0
  1 27  1  0
  4 28  1  0
  6 29  1  0
  9 30  1  0
 10 31  1  0
 10 32  1  0
 11 33  1  0
 11 34  1  0
 12 35  1  0
 12 36  1  0
 13 37  1  0
 13 38  1  0
 14 39  1  0
 14 40  1  0
 17 41  1  0
 18 42  1  0
 19 43  1  0
 19 44  1  0
 20 45  1  1
 21 46  1  0
 21 47  1  0
 21 48  1  0
M  END
$$$$
