@<TRIPOS>MOLECULE
*****
 56 59 0 0 0
SMALL
GASTEIGER

@<TRIPOS>ATOM
      1 C           7.7311   -2.4258    0.1806 C.3     1  UNL1        0.0789
      2 O           6.3369   -2.6656    0.1642 O.3     1  UNL1       -0.4936
      3 C           5.4342   -1.6424   -0.1909 C.ar    1  UNL1        0.1387
      4 C           4.0939   -1.8715   -0.2054 C.ar    1  UNL1        0.0700
      5 N           3.1764   -0.9357   -0.5351 N.ar    1  UNL1       -0.2479
      6 C           3.6170    0.3130   -0.8737 C.ar    1  UNL1        0.1111
      7 C           2.7253    1.3072   -1.2144 C.ar    1  UNL1        0.1490
      8 N           1.3270    1.0836   -1.2321 N.pl3   1  UNL1       -0.2977
      9 C           0.5601    1.1696   -0.0415 C.ar    1  UNL1        0.0330
     10 C           1.1954    1.3531    1.1743 C.ar    1  UNL1       -0.0378
     11 C           0.4958    1.4371    2.3565 C.ar    1  UNL1       -0.0243
     12 C          -0.9021    1.3405    2.3837 C.ar    1  UNL1        0.1312
     13 F          -1.5385    1.4414    3.5816 F       1  UNL1       -0.2050
     14 C          -1.5285    1.1594    1.1810 C.ar    1  UNL1        0.0450
     15 C          -3.0257    1.0344    1.1609 C.3     1  UNL1        0.2272
     16 C          -3.5598    2.3711    1.6660 C.3     1  UNL1       -0.0082
     17 N          -3.4941    0.8796   -0.1643 N.2     1  UNL1       -0.0696
     18 C          -4.0711    0.0174   -0.8319 C.2     1  UNL1        0.3069
     19 N          -4.4253    0.1749   -2.2259 N.pl3   1  UNL1       -0.2488
     20 C          -4.4740   -1.3209   -0.2579 C.3     1  UNL1        0.1862
     21 C          -5.8867   -1.2982    0.2529 C.3     1  UNL1       -0.0287
     22 C          -4.3087   -2.3732   -1.3235 C.3     1  UNL1       -0.0287
     23 S          -3.3392   -1.5960    1.0858 S.O2    1  UNL1        0.0215
     24 O          -3.7355   -2.7903    1.9015 O.2     1  UNL1       -0.1703
     25 O          -1.9520   -1.7020    0.5514 O.2     1  UNL1       -0.1703
     26 C          -3.4677   -0.0926    2.0586 C.3     1  UNL1        0.2673
     27 F          -4.8501    0.0833    2.2597 F       1  UNL1       -0.2156
     28 C          -0.8119    1.0753   -0.0144 C.ar    1  UNL1       -0.0300
     29 N           3.2280    2.5272   -1.5370 N.ar    1  UNL1       -0.2380
     30 C           4.5320    2.7901   -1.5351 C.ar    1  UNL1        0.0304
     31 C           5.4616    1.8347   -1.2033 C.ar    1  UNL1       -0.0342
     32 C           4.9715    0.5682   -0.8661 C.ar    1  UNL1        0.0086
     33 C           5.9126   -0.3941   -0.5273 C.ar    1  UNL1       -0.0091
     34 H           8.2073   -3.3922    0.4700 H       1  UNL1        0.0660
     35 H           8.1186   -2.0304   -0.7792 H       1  UNL1        0.0660
     36 H           8.0073   -1.6763    0.9602 H       1  UNL1        0.0660
     37 H           3.7244   -2.8719    0.0651 H       1  UNL1        0.0867
     38 H           0.8661    0.8560   -2.1229 H       1  UNL1        0.1536
     39 H           2.2853    1.4267    1.1426 H       1  UNL1        0.0637
     40 H           0.9909    1.5796    3.3059 H       1  UNL1        0.0647
     41 H          -4.4782    2.2523    2.2561 H       1  UNL1        0.0280
     42 H          -2.7978    2.8620    2.3029 H       1  UNL1        0.0280
     43 H          -3.6851    3.0616    0.7793 H       1  UNL1        0.0280
     44 H          -4.6677    1.1302   -2.5271 H       1  UNL1        0.2881
     45 H          -4.4449   -0.5983   -2.9056 H       1  UNL1        0.2881
     46 H          -5.9220   -1.6959    1.3001 H       1  UNL1        0.0256
     47 H          -6.3381   -0.2831    0.2002 H       1  UNL1        0.0256
     48 H          -6.5093   -1.9919   -0.3536 H       1  UNL1        0.0256
     49 H          -5.2023   -2.3023   -1.9737 H       1  UNL1        0.0256
     50 H          -3.4107   -2.2084   -1.9335 H       1  UNL1        0.0256
     51 H          -4.2946   -3.3613   -0.8689 H       1  UNL1        0.0256
     52 H          -2.9449   -0.1829    3.0041 H       1  UNL1        0.0951
     53 H          -1.3311    0.9309   -0.9574 H       1  UNL1        0.0641
     54 H           4.9068    3.7801   -1.7995 H       1  UNL1        0.0830
     55 H           6.5281    2.0249   -1.1956 H       1  UNL1        0.0639
     56 H           6.9637   -0.1619   -0.5319 H       1  UNL1        0.0661
@<TRIPOS>BOND
     1     1     2    1
     2     2     3    1
     3     3     4   ar
     4     4     5   ar
     5     5     6   ar
     6     6     7   ar
     7     7     8    1
     8     8     9    1
     9     9    10   ar
    10    10    11   ar
    11    11    12   ar
    12    12    13    1
    13    12    14   ar
    14    14    15    1
    15    15    16    1
    16    15    17    1
    17    17    18    2
    18    18    19    1
    19    18    20    1
    20    20    21    1
    21    20    22    1
    22    20    23    1
    23    23    24    2
    24    23    25    2
    25    23    26    1
    26    26    27    1
    27    14    28   ar
    28     7    29   ar
    29    29    30   ar
    30    30    31   ar
    31    31    32   ar
    32    32    33   ar
    33    33     3   ar
    34    32     6   ar
    35    28     9   ar
    36    26    15    1
    37     1    34    1
    38     1    35    1
    39     1    36    1
    40     4    37    1
    41     8    38    1
    42    10    39    1
    43    11    40    1
    44    16    41    1
    45    16    42    1
    46    16    43    1
    47    19    44    1
    48    19    45    1
    49    21    46    1
    50    21    47    1
    51    21    48    1
    52    22    49    1
    53    22    50    1
    54    22    51    1
    55    26    52    1
    56    28    53    1
    57    30    54    1
    58    31    55    1
    59    33    56    1
