
     RDKit          3D

 51 54  0  0  0  0  0  0  0  0999 V2000
   -4.8407   -3.2284   -1.4243 C   0  0  0  0  0  0  0  0  0  0  0  0
   -3.5849   -2.5839   -1.3376 O   0  0  0  0  0  0  0  0  0  0  0  0
   -2.9867   -2.2578   -0.1316 C   0  0  0  0  0  0  0  0  0  0  0  0
   -3.4775   -2.4884    1.1372 C   0  0  0  0  0  0  0  0  0  0  0  0
   -2.7691   -2.1073    2.2581 C   0  0  0  0  0  0  0  0  0  0  0  0
   -1.5444   -1.4819    2.1458 C   0  0  0  0  0  0  0  0  0  0  0  0
   -1.0418   -1.2453    0.8797 C   0  0  0  0  0  0  0  0  0  0  0  0
   -1.7638   -1.6332   -0.2317 C   0  0  0  0  0  0  0  0  0  0  0  0
    0.2033   -0.6100    0.7383 N   0  0  0  0  0  0  0  0  0  0  0  0
    0.6199    0.7176    0.6244 C   0  0  0  0  0  0  0  0  0  0  0  0
   -0.6203    1.5780    0.6817 C   0  0  0  0  0  0  0  0  0  0  0  0
   -1.5466    1.2718   -0.3869 N   0  0  0  0  0  0  0  0  0  0  0  0
   -2.6916    2.1691   -0.2134 C   0  0  0  0  0  0  0  0  0  0  0  0
   -3.3542    2.4698   -1.5493 C   0  0  0  0  0  0  0  0  0  0  0  0
   -2.5539    3.2394   -2.3648 O   0  0  0  0  0  0  0  0  0  0  0  0
   -1.2281    3.0980   -1.9972 C   0  0  0  0  0  0  0  0  0  0  0  0
   -0.9521    1.6456   -1.6589 C   0  0  0  0  0  0  0  0  0  0  0  0
    1.8091    1.1863    0.4936 C   0  0  0  0  0  0  0  0  0  0  0  0
    2.9813    0.3385    0.4416 C   0  0  0  0  0  0  0  0  0  0  0  0
    2.8827   -1.0581    0.5324 C   0  0  0  0  0  0  0  0  0  0  0  0
    4.5863   -1.6501    0.4166 S   0  0  0  0  0  0  0  0  0  0  0  0
    5.2990   -0.0258    0.2582 C   0  0  0  0  0  0  0  0  0  0  0  0
    4.2328    0.8758    0.2995 C   0  0  0  0  0  0  0  0  0  0  0  0
    7.0513    0.1225    0.0947 S   0  0  0  0  0  0  0  0  0  0  0  0
    7.8106   -0.5557    1.4840 N   0  0  0  0  0  0  0  0  0  0  0  0
    7.4465    1.5452   -0.0786 O   0  0  0  0  0  0  0  0  0  0  0  0
    7.5231   -0.6307   -1.1309 O   0  0  0  0  0  0  0  0  0  0  0  0
    1.3766   -1.8750    0.7151 S   0  0  0  0  0  0  0  0  0  0  0  0
    1.2973   -2.5701    2.0667 O   0  0  0  0  0  0  0  0  0  0  0  0
    1.1353   -2.8395   -0.4047 O   0  0  0  0  0  0  0  0  0  0  0  0
   -5.6851   -2.4915   -1.5399 H   0  0  0  0  0  0  0  0  0  0  0  0
   -5.0781   -3.8625   -0.5484 H   0  0  0  0  0  0  0  0  0  0  0  0
   -4.8704   -3.8422   -2.3719 H   0  0  0  0  0  0  0  0  0  0  0  0
   -4.4417   -2.9815    1.1780 H   0  0  0  0  0  0  0  0  0  0  0  0
   -3.2405   -2.3332    3.2079 H   0  0  0  0  0  0  0  0  0  0  0  0
   -1.0384   -1.2081    3.0468 H   0  0  0  0  0  0  0  0  0  0  0  0
   -1.3027   -1.4130   -1.2078 H   0  0  0  0  0  0  0  0  0  0  0  0
   -0.3442    2.6452    0.5373 H   0  0  0  0  0  0  0  0  0  0  0  0
   -1.1143    1.5070    1.6726 H   0  0  0  0  0  0  0  0  0  0  0  0
   -3.4900    1.6653    0.3883 H   0  0  0  0  0  0  0  0  0  0  0  0
   -2.4131    3.0801    0.3372 H   0  0  0  0  0  0  0  0  0  0  0  0
   -3.6167    1.4789   -1.9811 H   0  0  0  0  0  0  0  0  0  0  0  0
   -4.3053    2.9808   -1.3347 H   0  0  0  0  0  0  0  0  0  0  0  0
   -0.5720    3.3696   -2.8490 H   0  0  0  0  0  0  0  0  0  0  0  0
   -1.0328    3.7918   -1.1657 H   0  0  0  0  0  0  0  0  0  0  0  0
    0.1214    1.3929   -1.7171 H   0  0  0  0  0  0  0  0  0  0  0  0
   -1.4719    1.0510   -2.4567 H   0  0  0  0  0  0  0  0  0  0  0  0
    1.8016    2.2668    0.4308 H   0  0  0  0  0  0  0  0  0  0  0  0
    4.6147    1.8758    0.2070 H   0  0  0  0  0  0  0  0  0  0  0  0
    7.3577   -0.1010    2.3242 H   0  0  0  0  0  0  0  0  0  0  0  0
    8.8227   -0.2888    1.4846 H   0  0  0  0  0  0  0  0  0  0  0  0
  1  2  1  0
  2  3  1  0
  3  4  2  0
  4  5  1  0
  5  6  2  0
  6  7  1  0
  7  8  2  0
  7  9  1  0
  9 10  1  0
 10 11  1  0
 11 12  1  0
 12 13  1  0
 13 14  1  0
 14 15  1  0
 15 16  1  0
 16 17  1  0
 10 18  2  0
 18 19  1  0
 19 20  2  0
 20 21  1  0
 21 22  1  0
 22 23  2  0
 22 24  1  0
 24 25  1  0
 24 26  2  0
 24 27  2  0
 20 28  1  0
 28 29  2  0
 28 30  2  0
  8  3  1  0
 28  9  1  0
 17 12  1  0
 23 19  1  0
  1 31  1  0
  1 32  1  0
  1 33  1  0
  4 34  1  0
  5 35  1  0
  6 36  1  0
  8 37  1  0
 11 38  1  0
 11 39  1  0
 13 40  1  0
 13 41  1  0
 14 42  1  0
 14 43  1  0
 16 44  1  0
 16 45  1  0
 17 46  1  0
 17 47  1  0
 18 48  1  0
 23 49  1  0
 25 50  1  0
 25 51  1  0
M  END
$$$$
