@<TRIPOS>MOLECULE
*****
 61 68 0 0 0
SMALL
GASTEIGER

@<TRIPOS>ATOM
      1 C           3.8311    3.0956    1.2328 C.3     1  UNL1       -0.0155
      2 N           3.6888    1.6585    1.1051 N.3     1  UNL1       -0.3136
      3 C           2.8981    1.3704   -0.0727 C.3     1  UNL1        0.0423
      4 C           1.5449    1.9911    0.0405 C.3     1  UNL1        0.0107
      5 C           0.7957    1.6840   -1.2339 C.3     1  UNL1        0.1402
      6 O           1.1711    0.5810   -1.8793 O.3     1  UNL1       -0.3282
      7 C           1.6370   -0.5140   -1.1436 C.3     1  UNL1        0.1741
      8 C           2.2692   -1.4092   -2.2152 C.3     1  UNL1       -0.0136
      9 C           2.6670   -0.1493   -0.1459 C.3     1  UNL1        0.1214
     10 O           2.3736   -0.5257    1.1603 O.3     1  UNL1       -0.3735
     11 C           3.4367   -1.2600    1.6829 C.3     1  UNL1        0.0371
     12 N           0.4930   -1.2507   -0.5890 N.ar    1  UNL1       -0.3070
     13 C           0.4443   -2.5630   -0.2810 C.ar    1  UNL1        0.0527
     14 C           1.3836   -3.5468   -0.3241 C.ar    1  UNL1       -0.0375
     15 C           1.0667   -4.8305    0.0634 C.ar    1  UNL1       -0.0598
     16 C          -0.1951   -5.1984    0.5119 C.ar    1  UNL1       -0.0611
     17 C          -1.1265   -4.1842    0.5468 C.ar    1  UNL1       -0.0520
     18 C          -0.8175   -2.9061    0.1628 C.ar    1  UNL1        0.0081
     19 C          -1.5812   -1.7572    0.1318 C.ar    1  UNL1        0.0151
     20 C          -2.8947   -1.4603    0.4504 C.ar    1  UNL1       -0.0078
     21 C          -3.4122   -0.1827    0.3226 C.ar    1  UNL1        0.0518
     22 C          -2.5667    0.8079   -0.1387 C.ar    1  UNL1        0.0221
     23 C          -2.7081    2.1461   -0.3670 C.ar    1  UNL1        0.0085
     24 C          -3.7601    3.0155   -0.2411 C.ar    1  UNL1       -0.0520
     25 C          -3.5453    4.3620   -0.5723 C.ar    1  UNL1       -0.0611
     26 C          -2.3310    4.8330   -1.0132 C.ar    1  UNL1       -0.0598
     27 C          -1.2787    3.9394   -1.1343 C.ar    1  UNL1       -0.0375
     28 C          -1.4691    2.6186   -0.8152 C.ar    1  UNL1        0.0524
     29 N          -0.6143    1.6087   -0.8570 N.ar    1  UNL1       -0.3115
     30 C          -1.2406    0.4756   -0.4538 C.ar    1  UNL1        0.0774
     31 C          -0.7461   -0.7968   -0.3240 C.ar    1  UNL1        0.0772
     32 C          -4.8076   -0.1919    0.7291 C.2     1  UNL1        0.2453
     33 O          -5.6514    0.7514    0.7685 O.2     1  UNL1       -0.2702
     34 N          -5.1080   -1.5436    1.1102 N.am    1  UNL1       -0.3072
     35 C          -3.9501   -2.3546    0.9540 C.3     1  UNL1        0.0385
     36 H           3.8066    3.6316    0.2840 H       1  UNL1        0.0388
     37 H           3.0432    3.5299    1.8917 H       1  UNL1        0.0388
     38 H           4.8227    3.3172    1.7163 H       1  UNL1        0.0388
     39 H           3.1589    1.3454    1.9588 H       1  UNL1        0.1220
     40 H           3.3988    1.7547   -0.9586 H       1  UNL1        0.0489
     41 H           0.9732    1.6128    0.9283 H       1  UNL1        0.0325
     42 H           1.5749    3.0935    0.1532 H       1  UNL1        0.0325
     43 H           0.9161    2.5651   -1.9255 H       1  UNL1        0.0839
     44 H           2.4222   -0.8268   -3.1881 H       1  UNL1        0.0277
     45 H           3.3111   -1.6966   -1.9626 H       1  UNL1        0.0277
     46 H           1.6125   -2.2304   -2.5321 H       1  UNL1        0.0277
     47 H           3.6866   -0.5473   -0.4285 H       1  UNL1        0.0660
     48 H           3.2692   -1.5879    2.7102 H       1  UNL1        0.0524
     49 H           3.5921   -2.1465    1.0364 H       1  UNL1        0.0524
     50 H           4.3966   -0.6815    1.6166 H       1  UNL1        0.0524
     51 H           2.3692   -3.3399   -0.6398 H       1  UNL1        0.0638
     52 H           1.8348   -5.6123    0.0223 H       1  UNL1        0.0618
     53 H          -0.4283   -6.2108    0.8125 H       1  UNL1        0.0618
     54 H          -2.1282   -4.4626    0.9001 H       1  UNL1        0.0624
     55 H          -4.7340    2.7483    0.0901 H       1  UNL1        0.0624
     56 H          -4.3688    5.0572   -0.4767 H       1  UNL1        0.0618
     57 H          -2.1714    5.8788   -1.2683 H       1  UNL1        0.0618
     58 H          -0.3062    4.2899   -1.4821 H       1  UNL1        0.0638
     59 H          -6.0734   -1.8257    1.4493 H       1  UNL1        0.1493
     60 H          -3.6656   -2.8232    1.9241 H       1  UNL1        0.0512
     61 H          -4.2093   -3.1468    0.1966 H       1  UNL1        0.0512
@<TRIPOS>BOND
     1     1     2    1
     2     2     3    1
     3     3     4    1
     4     4     5    1
     5     5     6    1
     6     6     7    1
     7     7     8    1
     8     7     9    1
     9     9    10    1
    10    10    11    1
    11     7    12    1
    12    12    13   ar
    13    13    14   ar
    14    14    15   ar
    15    15    16   ar
    16    16    17   ar
    17    17    18   ar
    18    18    19   ar
    19    19    20   ar
    20    20    21   ar
    21    21    22   ar
    22    22    23   ar
    23    23    24   ar
    24    24    25   ar
    25    25    26   ar
    26    26    27   ar
    27    27    28   ar
    28    28    29   ar
    29    29    30   ar
    30    30    31   ar
    31    21    32    1
    32    32    33    2
    33    32    34   am
    34    34    35    1
    35     9     3    1
    36    31    12   ar
    37    29     5    1
    38    18    13   ar
    39    31    19   ar
    40    35    20    1
    41    30    22   ar
    42    28    23   ar
    43     1    36    1
    44     1    37    1
    45     1    38    1
    46     2    39    1
    47     3    40    1
    48     4    41    1
    49     4    42    1
    50     5    43    1
    51     8    44    1
    52     8    45    1
    53     8    46    1
    54     9    47    1
    55    11    48    1
    56    11    49    1
    57    11    50    1
    58    14    51    1
    59    15    52    1
    60    16    53    1
    61    17    54    1
    62    24    55    1
    63    25    56    1
    64    26    57    1
    65    27    58    1
    66    34    59    1
    67    35    60    1
    68    35    61    1
