
     RDKit          3D

 61 68  0  0  0  0  0  0  0  0999 V2000
    3.8311    3.0956    1.2328 C   0  0  0  0  0  0  0  0  0  0  0  0
    3.6888    1.6585    1.1051 N   0  0  0  0  0  0  0  0  0  0  0  0
    2.8981    1.3704   -0.0727 C   0  0  2  0  0  0  0  0  0  0  0  0
    1.5449    1.9911    0.0405 C   0  0  0  0  0  0  0  0  0  0  0  0
    0.7957    1.6840   -1.2339 C   0  0  1  0  0  0  0  0  0  0  0  0
    1.1711    0.5810   -1.8793 O   0  0  0  0  0  0  0  0  0  0  0  0
    1.6370   -0.5140   -1.1436 C   0  0  1  0  0  0  0  0  0  0  0  0
    2.2692   -1.4092   -2.2152 C   0  0  0  0  0  0  0  0  0  0  0  0
    2.6670   -0.1493   -0.1459 C   0  0  2  0  0  0  0  0  0  0  0  0
    2.3736   -0.5257    1.1603 O   0  0  0  0  0  0  0  0  0  0  0  0
    3.4367   -1.2600    1.6829 C   0  0  0  0  0  0  0  0  0  0  0  0
    0.4930   -1.2507   -0.5890 N   0  0  0  0  0  0  0  0  0  0  0  0
    0.4443   -2.5630   -0.2810 C   0  0  0  0  0  0  0  0  0  0  0  0
    1.3836   -3.5468   -0.3241 C   0  0  0  0  0  0  0  0  0  0  0  0
    1.0667   -4.8305    0.0634 C   0  0  0  0  0  0  0  0  0  0  0  0
   -0.1951   -5.1984    0.5119 C   0  0  0  0  0  0  0  0  0  0  0  0
   -1.1265   -4.1842    0.5468 C   0  0  0  0  0  0  0  0  0  0  0  0
   -0.8175   -2.9061    0.1628 C   0  0  0  0  0  0  0  0  0  0  0  0
   -1.5812   -1.7572    0.1318 C   0  0  0  0  0  0  0  0  0  0  0  0
   -2.8947   -1.4603    0.4504 C   0  0  0  0  0  0  0  0  0  0  0  0
   -3.4122   -0.1827    0.3226 C   0  0  0  0  0  0  0  0  0  0  0  0
   -2.5667    0.8079   -0.1387 C   0  0  0  0  0  0  0  0  0  0  0  0
   -2.7081    2.1461   -0.3670 C   0  0  0  0  0  0  0  0  0  0  0  0
   -3.7601    3.0155   -0.2411 C   0  0  0  0  0  0  0  0  0  0  0  0
   -3.5453    4.3620   -0.5723 C   0  0  0  0  0  0  0  0  0  0  0  0
   -2.3310    4.8330   -1.0132 C   0  0  0  0  0  0  0  0  0  0  0  0
   -1.2787    3.9394   -1.1343 C   0  0  0  0  0  0  0  0  0  0  0  0
   -1.4691    2.6186   -0.8152 C   0  0  0  0  0  0  0  0  0  0  0  0
   -0.6143    1.6087   -0.8570 N   0  0  0  0  0  0  0  0  0  0  0  0
   -1.2406    0.4756   -0.4538 C   0  0  0  0  0  0  0  0  0  0  0  0
   -0.7461   -0.7968   -0.3240 C   0  0  0  0  0  0  0  0  0  0  0  0
   -4.8076   -0.1919    0.7291 C   0  0  0  0  0  0  0  0  0  0  0  0
   -5.6514    0.7514    0.7685 O   0  0  0  0  0  0  0  0  0  0  0  0
   -5.1080   -1.5436    1.1102 N   0  0  0  0  0  0  0  0  0  0  0  0
   -3.9501   -2.3546    0.9540 C   0  0  0  0  0  0  0  0  0  0  0  0
    3.8066    3.6316    0.2840 H   0  0  0  0  0  0  0  0  0  0  0  0
    3.0432    3.5299    1.8917 H   0  0  0  0  0  0  0  0  0  0  0  0
    4.8227    3.3172    1.7163 H   0  0  0  0  0  0  0  0  0  0  0  0
    3.1589    1.3454    1.9588 H   0  0  0  0  0  0  0  0  0  0  0  0
    3.3988    1.7547   -0.9586 H   0  0  0  0  0  0  0  0  0  0  0  0
    0.9732    1.6128    0.9283 H   0  0  0  0  0  0  0  0  0  0  0  0
    1.5749    3.0935    0.1532 H   0  0  0  0  0  0  0  0  0  0  0  0
    0.9161    2.5651   -1.9255 H   0  0  0  0  0  0  0  0  0  0  0  0
    2.4222   -0.8268   -3.1881 H   0  0  0  0  0  0  0  0  0  0  0  0
    3.3111   -1.6966   -1.9626 H   0  0  0  0  0  0  0  0  0  0  0  0
    1.6125   -2.2304   -2.5321 H   0  0  0  0  0  0  0  0  0  0  0  0
    3.6866   -0.5473   -0.4285 H   0  0  0  0  0  0  0  0  0  0  0  0
    3.2692   -1.5879    2.7102 H   0  0  0  0  0  0  0  0  0  0  0  0
    3.5921   -2.1465    1.0364 H   0  0  0  0  0  0  0  0  0  0  0  0
    4.3966   -0.6815    1.6166 H   0  0  0  0  0  0  0  0  0  0  0  0
    2.3692   -3.3399   -0.6398 H   0  0  0  0  0  0  0  0  0  0  0  0
    1.8348   -5.6123    0.0223 H   0  0  0  0  0  0  0  0  0  0  0  0
   -0.4283   -6.2108    0.8125 H   0  0  0  0  0  0  0  0  0  0  0  0
   -2.1282   -4.4626    0.9001 H   0  0  0  0  0  0  0  0  0  0  0  0
   -4.7340    2.7483    0.0901 H   0  0  0  0  0  0  0  0  0  0  0  0
   -4.3688    5.0572   -0.4767 H   0  0  0  0  0  0  0  0  0  0  0  0
   -2.1714    5.8788   -1.2683 H   0  0  0  0  0  0  0  0  0  0  0  0
   -0.3062    4.2899   -1.4821 H   0  0  0  0  0  0  0  0  0  0  0  0
   -6.0734   -1.8257    1.4493 H   0  0  0  0  0  0  0  0  0  0  0  0
   -3.6656   -2.8232    1.9241 H   0  0  0  0  0  0  0  0  0  0  0  0
   -4.2093   -3.1468    0.1966 H   0  0  0  0  0  0  0  0  0  0  0  0
  1  2  1  0
  2  3  1  0
  3  4  1  0
  4  5  1  0
  5  6  1  0
  6  7  1  0
  7  8  1  6
  7  9  1  0
  9 10  1  0
 10 11  1  0
  7 12  1  0
 12 13  1  0
 13 14  2  0
 14 15  1  0
 15 16  2  0
 16 17  1  0
 17 18  2  0
 18 19  1  0
 19 20  2  0
 20 21  1  0
 21 22  2  0
 22 23  1  0
 23 24  2  0
 24 25  1  0
 25 26  2  0
 26 27  1  0
 27 28  2  0
 28 29  1  0
 29 30  1  0
 30 31  2  0
 21 32  1  0
 32 33  2  0
 32 34  1  0
 34 35  1  0
  9  3  1  0
 31 12  1  0
 29  5  1  0
 18 13  1  0
 31 19  1  0
 35 20  1  0
 30 22  1  0
 28 23  1  0
  1 36  1  0
  1 37  1  0
  1 38  1  0
  2 39  1  0
  3 40  1  6
  4 41  1  0
  4 42  1  0
  5 43  1  6
  8 44  1  0
  8 45  1  0
  8 46  1  0
  9 47  1  6
 11 48  1  0
 11 49  1  0
 11 50  1  0
 14 51  1  0
 15 52  1  0
 16 53  1  0
 17 54  1  0
 24 55  1  0
 25 56  1  0
 26 57  1  0
 27 58  1  0
 34 59  1  0
 35 60  1  0
 35 61  1  0
M  END
$$$$
