@<TRIPOS>MOLECULE
*****
 60 59 0 0 0
SMALL
GASTEIGER

@<TRIPOS>ATOM
      1 C          -8.6413   -1.9279    0.8986 C.3     1  UNL1       -0.0653
      2 C          -8.2338   -1.4942   -0.4939 C.3     1  UNL1       -0.0559
      3 C          -6.9137   -0.7459   -0.4854 C.3     1  UNL1       -0.0533
      4 C          -5.7920   -1.5645    0.0496 C.3     1  UNL1       -0.0531
      5 C          -4.5076   -0.7541    0.0416 C.3     1  UNL1       -0.0531
      6 C          -4.0810   -0.2860   -1.3021 C.3     1  UNL1       -0.0531
      7 C          -2.7975    0.5042   -1.3410 C.3     1  UNL1       -0.0531
      8 C          -2.9444    1.7247   -0.5097 C.3     1  UNL1       -0.0531
      9 C          -1.7144    2.5988   -0.4923 C.3     1  UNL1       -0.0531
     10 C          -0.5046    1.8720    0.0535 C.3     1  UNL1       -0.0531
     11 C           0.6270    2.8709    0.0046 C.3     1  UNL1       -0.0531
     12 C           1.8939    2.2660    0.5377 C.3     1  UNL1       -0.0531
     13 C           2.2613    1.0754   -0.2995 C.3     1  UNL1       -0.0531
     14 C           3.5401    0.4450    0.2155 C.3     1  UNL1       -0.0530
     15 C           4.7252    1.3477    0.1903 C.3     1  UNL1       -0.0526
     16 C           5.9426    0.6368    0.7265 C.3     1  UNL1       -0.0431
     17 C           6.2579   -0.5647   -0.0942 C.3     1  UNL1        0.0417
     18 C           7.4719   -1.2835    0.4026 C.2     1  UNL1        0.2740
     19 O           7.7226   -0.5126    1.3655 O.2     1  UNL1       -0.2543
     20 O           7.8797   -2.4202   -0.2681 O.3     1  UNL1       -0.5748
     21 AL          9.3430   -3.4187    0.2069 Al      1  UNL1        1.0073
     22 O          11.0502   -2.8394   -0.1302 O.3     1  UNL1       -0.4600
     23 O           9.0949   -5.0506    1.0083 O.3     1  UNL1       -0.4600
     24 H          -9.7337   -1.8965    0.9650 H       1  UNL1        0.0230
     25 H          -8.2247   -2.9352    1.1029 H       1  UNL1        0.0230
     26 H          -8.2220   -1.1481    1.5930 H       1  UNL1        0.0230
     27 H          -8.9963   -0.7394   -0.8263 H       1  UNL1        0.0263
     28 H          -8.2809   -2.2965   -1.2375 H       1  UNL1        0.0263
     29 H          -6.6995   -0.5361   -1.5725 H       1  UNL1        0.0265
     30 H          -7.0531    0.2050    0.0255 H       1  UNL1        0.0265
     31 H          -5.6318   -2.4393   -0.6371 H       1  UNL1        0.0265
     32 H          -5.9983   -1.9245    1.0746 H       1  UNL1        0.0265
     33 H          -3.7341   -1.4539    0.4598 H       1  UNL1        0.0265
     34 H          -4.5595    0.0666    0.7877 H       1  UNL1        0.0265
     35 H          -3.9079   -1.1781   -1.9672 H       1  UNL1        0.0265
     36 H          -4.8985    0.3030   -1.8099 H       1  UNL1        0.0265
     37 H          -1.9732   -0.1651   -1.0223 H       1  UNL1        0.0265
     38 H          -2.6455    0.7801   -2.4084 H       1  UNL1        0.0265
     39 H          -3.7700    2.3330   -0.9325 H       1  UNL1        0.0265
     40 H          -3.1263    1.4212    0.5495 H       1  UNL1        0.0265
     41 H          -1.9246    3.4707    0.1524 H       1  UNL1        0.0265
     42 H          -1.4561    2.9668   -1.5012 H       1  UNL1        0.0265
     43 H          -0.6176    1.5257    1.0799 H       1  UNL1        0.0265
     44 H          -0.2895    1.0553   -0.6875 H       1  UNL1        0.0265
     45 H           0.8436    3.1250   -1.0736 H       1  UNL1        0.0265
     46 H           0.3713    3.8259    0.4888 H       1  UNL1        0.0265
     47 H           2.7093    2.9965    0.6263 H       1  UNL1        0.0265
     48 H           1.6405    1.8966    1.5700 H       1  UNL1        0.0265
     49 H           1.4941    0.2703   -0.2244 H       1  UNL1        0.0265
     50 H           2.3707    1.3183   -1.3661 H       1  UNL1        0.0265
     51 H           3.7386   -0.4125   -0.4865 H       1  UNL1        0.0265
     52 H           3.3323    0.0454    1.2210 H       1  UNL1        0.0265
     53 H           4.5798    2.3237    0.6991 H       1  UNL1        0.0265
     54 H           4.9590    1.6403   -0.8773 H       1  UNL1        0.0265
     55 H           5.6724    0.3026    1.7658 H       1  UNL1        0.0270
     56 H           6.7765    1.3660    0.7689 H       1  UNL1        0.0270
     57 H           6.3202   -0.3526   -1.1669 H       1  UNL1        0.0376
     58 H           5.4272   -1.3145    0.0579 H       1  UNL1        0.0376
     59 H          11.1860   -1.9248    0.2109 H       1  UNL1        0.1697
     60 H           8.6419   -4.9996    1.8762 H       1  UNL1        0.1697
@<TRIPOS>BOND
     1     1     2    1
     2     2     3    1
     3     3     4    1
     4     4     5    1
     5     5     6    1
     6     6     7    1
     7     7     8    1
     8     8     9    1
     9     9    10    1
    10    10    11    1
    11    11    12    1
    12    12    13    1
    13    13    14    1
    14    14    15    1
    15    15    16    1
    16    16    17    1
    17    17    18    1
    18    18    19    2
    19    18    20    1
    20    20    21    1
    21    21    22    1
    22    21    23    1
    23     1    24    1
    24     1    25    1
    25     1    26    1
    26     2    27    1
    27     2    28    1
    28     3    29    1
    29     3    30    1
    30     4    31    1
    31     4    32    1
    32     5    33    1
    33     5    34    1
    34     6    35    1
    35     6    36    1
    36     7    37    1
    37     7    38    1
    38     8    39    1
    39     8    40    1
    40     9    41    1
    41     9    42    1
    42    10    43    1
    43    10    44    1
    44    11    45    1
    45    11    46    1
    46    12    47    1
    47    12    48    1
    48    13    49    1
    49    13    50    1
    50    14    51    1
    51    14    52    1
    52    15    53    1
    53    15    54    1
    54    16    55    1
    55    16    56    1
    56    17    57    1
    57    17    58    1
    58    22    59    1
    59    23    60    1
