@<TRIPOS>MOLECULE
*****
 53 55 0 0 0
SMALL
GASTEIGER

@<TRIPOS>ATOM
      1 C           8.8692    2.7956    0.4454 C.2     1  UNL1       -0.0938
      2 C           7.6373    3.2443    0.3823 C.2     1  UNL1       -0.0066
      3 C           6.4688    2.3814    0.4087 C.2     1  UNL1        0.2405
      4 O           5.3123    2.8670    0.3443 O.2     1  UNL1       -0.2705
      5 N           6.5466    0.9664    0.5065 N.am    1  UNL1       -0.2820
      6 C           5.3876    0.1278    0.5316 C.ar    1  UNL1        0.0338
      7 C           4.8356   -0.3788   -0.6255 C.ar    1  UNL1       -0.0386
      8 C           3.7176   -1.1880   -0.6156 C.ar    1  UNL1       -0.0336
      9 C           3.0918   -1.5327    0.5644 C.ar    1  UNL1        0.1056
     10 S           1.6728   -2.5587    0.6071 S.O2    1  UNL1        0.0609
     11 O           1.7632   -3.3761    1.8563 O.2     1  UNL1       -0.1528
     12 O           1.7119   -3.5252   -0.5707 O.2     1  UNL1       -0.1528
     13 N           0.2190   -1.6879    0.4829 N.3     1  UNL1       -0.1736
     14 C          -0.0027   -0.7457    1.5551 C.3     1  UNL1        0.0364
     15 C          -1.4744   -0.3409    1.6227 C.3     1  UNL1        0.0323
     16 N          -2.0030   -0.4015    0.2763 N.am    1  UNL1       -0.2649
     17 C          -3.3383   -0.7420   -0.0508 C.2     1  UNL1        0.4033
     18 O          -4.1849   -1.0238    0.8546 O.2     1  UNL1       -0.2262
     19 O          -3.7828   -0.7854   -1.3410 O.3     1  UNL1       -0.4455
     20 C          -5.0445   -1.0956   -1.8277 C.3     1  UNL1        0.1193
     21 C          -6.1412   -0.2352   -1.3823 C.ar    1  UNL1       -0.0048
     22 C          -6.9449   -0.5150   -0.3067 C.ar    1  UNL1       -0.0199
     23 C          -7.9712    0.2901    0.1278 C.ar    1  UNL1        0.1265
     24 F          -8.7115   -0.0714    1.2022 F       1  UNL1       -0.2054
     25 C          -8.2185    1.4709   -0.5654 C.ar    1  UNL1        0.0088
     26 C          -7.4423    1.7937   -1.6474 C.ar    1  UNL1        0.1265
     27 F          -7.7194    2.9600   -2.2984 F       1  UNL1       -0.2054
     28 C          -6.4259    0.9582   -2.0466 C.ar    1  UNL1       -0.0199
     29 C          -1.0816   -0.0885   -0.7881 C.3     1  UNL1        0.0323
     30 C           0.0307   -1.0742   -0.7840 C.3     1  UNL1        0.0364
     31 C           3.6460   -1.0238    1.7296 C.ar    1  UNL1       -0.0336
     32 C           4.7637   -0.2155    1.7121 C.ar    1  UNL1       -0.0386
     33 H           9.1050    1.7330    0.5227 H       1  UNL1        0.0536
     34 H           9.7170    3.4532    0.4240 H       1  UNL1        0.0536
     35 H           7.4833    4.3074    0.3074 H       1  UNL1        0.0663
     36 H           7.4712    0.5226    0.5618 H       1  UNL1        0.1551
     37 H           5.3101   -0.1218   -1.5723 H       1  UNL1        0.0637
     38 H           3.2814   -1.5894   -1.5428 H       1  UNL1        0.0638
     39 H           0.3714   -1.0716    2.5245 H       1  UNL1        0.0459
     40 H           0.5476    0.1737    1.2685 H       1  UNL1        0.0459
     41 H          -1.4904    0.7154    1.9491 H       1  UNL1        0.0479
     42 H          -2.0355   -0.9395    2.3418 H       1  UNL1        0.0479
     43 H          -4.9816   -1.1022   -2.9484 H       1  UNL1        0.0749
     44 H          -5.3133   -2.1431   -1.5605 H       1  UNL1        0.0749
     45 H          -6.7765   -1.4282    0.2367 H       1  UNL1        0.0650
     46 H          -9.0314    2.1063   -0.2194 H       1  UNL1        0.0675
     47 H          -5.8406    1.2503   -2.9026 H       1  UNL1        0.0650
     48 H          -0.6446    0.9346   -0.6678 H       1  UNL1        0.0479
     49 H          -1.6546   -0.0636   -1.7396 H       1  UNL1        0.0479
     50 H          -0.0525   -1.8410   -1.5878 H       1  UNL1        0.0459
     51 H           0.9820   -0.5170   -1.0334 H       1  UNL1        0.0459
     52 H           3.1647   -1.2872    2.6609 H       1  UNL1        0.0638
     53 H           5.2004    0.1841    2.6174 H       1  UNL1        0.0637
@<TRIPOS>BOND
     1     1     2    2
     2     2     3    1
     3     3     4    2
     4     3     5   am
     5     5     6    1
     6     6     7   ar
     7     7     8   ar
     8     8     9   ar
     9     9    10    1
    10    10    11    2
    11    10    12    2
    12    10    13    1
    13    13    14    1
    14    14    15    1
    15    15    16    1
    16    16    17   am
    17    17    18    2
    18    17    19    1
    19    19    20    1
    20    20    21    1
    21    21    22   ar
    22    22    23   ar
    23    23    24    1
    24    23    25   ar
    25    25    26   ar
    26    26    27    1
    27    26    28   ar
    28    16    29    1
    29    29    30    1
    30     9    31   ar
    31    31    32   ar
    32    32     6   ar
    33    30    13    1
    34    28    21   ar
    35     1    33    1
    36     1    34    1
    37     2    35    1
    38     5    36    1
    39     7    37    1
    40     8    38    1
    41    14    39    1
    42    14    40    1
    43    15    41    1
    44    15    42    1
    45    20    43    1
    46    20    44    1
    47    22    45    1
    48    25    46    1
    49    28    47    1
    50    29    48    1
    51    29    49    1
    52    30    50    1
    53    30    51    1
    54    31    52    1
    55    32    53    1
