@<TRIPOS>MOLECULE
*****
 66 71 0 0 0
SMALL
GASTEIGER

@<TRIPOS>ATOM
      1 C          -0.6044    5.6220   -0.8174 C.3     1  UNL1       -0.0306
      2 C           0.0162    5.2797    0.5159 C.3     1  UNL1        0.0899
      3 O           0.2898    3.9341    0.6903 O.3     1  UNL1       -0.4638
      4 C           1.1356    3.1776   -0.1069 C.ar    1  UNL1        0.2995
      5 N           1.7314    3.8149   -1.1298 N.ar    1  UNL1       -0.1949
      6 C           2.4890    2.8890   -1.7446 C.ar    1  UNL1        0.0935
      7 C           2.3188    1.7103   -1.0580 C.ar    1  UNL1        0.0860
      8 N           1.4770    1.8779   -0.0368 N.ar    1  UNL1       -0.2888
      9 C           0.9658    0.9553    0.9228 C.3     1  UNL1        0.0531
     10 C          -0.3421    0.3706    0.5358 C.ar    1  UNL1       -0.0276
     11 C          -0.6489   -0.7630   -0.1752 C.ar    1  UNL1       -0.0563
     12 C          -1.9171   -1.1980   -0.4729 C.ar    1  UNL1       -0.0537
     13 C          -3.0125   -0.4764   -0.0482 C.ar    1  UNL1       -0.0172
     14 C          -2.7946    0.6766    0.6731 C.ar    1  UNL1       -0.0537
     15 C          -1.4981    1.0575    0.9379 C.ar    1  UNL1       -0.0563
     16 C          -4.3009   -1.0002   -0.4077 C.ar    1  UNL1       -0.0072
     17 C          -4.5655   -1.0288   -1.7670 C.ar    1  UNL1       -0.0534
     18 C          -5.7615   -1.4985   -2.2689 C.ar    1  UNL1       -0.0611
     19 C          -6.7346   -1.9581   -1.3930 C.ar    1  UNL1       -0.0611
     20 C          -6.4884   -1.9383   -0.0175 C.ar    1  UNL1       -0.0504
     21 C          -5.2798   -1.4606    0.4371 C.ar    1  UNL1        0.0283
     22 C          -5.0001   -1.4366    1.8527 C.ar    1  UNL1        0.1834
     23 N          -3.9257   -1.0520    2.5627 N.ar    1  UNL1       -0.0542
     24 O          -4.1457   -1.2217    3.8335 O.2     1  UNL1       -0.2952
     25 C          -5.3255   -1.7092    4.0681 C.ar    1  UNL1        0.4401
     26 O          -5.8892   -2.0034    5.1337 O.2     1  UNL1       -0.2209
     27 N          -5.8404   -1.8364    2.8370 N.ar    1  UNL1       -0.2713
     28 C           3.0289    0.6343   -1.5358 C.ar    1  UNL1        0.0846
     29 C           3.8663    0.6876   -2.6306 C.ar    1  UNL1       -0.0456
     30 C           4.0462    1.8448   -3.3245 C.ar    1  UNL1       -0.0588
     31 C           3.3287    2.9082   -2.8290 C.ar    1  UNL1       -0.0341
     32 C           2.9550   -0.6511   -0.8664 C.2     1  UNL1        0.3417
     33 O           2.8541   -1.7148   -0.2590 O.2     1  UNL1       -0.2449
     34 O           3.6541   -1.7494   -1.3209 O.3     1  UNL1       -0.4531
     35 C           3.6873   -3.0477   -0.8016 C.3     1  UNL1        0.1536
     36 C           4.1676   -3.0776    0.6228 C.ar    1  UNL1        0.1871
     37 C           5.5238   -2.9196    0.9331 C.ar    1  UNL1        0.1506
     38 C           6.6340   -2.7107   -0.0241 C.3     1  UNL1       -0.0027
     39 O           5.6276   -2.9906    2.2251 O.2     1  UNL1       -0.3958
     40 C           4.4248   -3.1832    2.7533 C.ar    1  UNL1        0.5207
     41 O           4.0530   -3.3100    3.9479 O.2     1  UNL1       -0.2021
     42 O           3.5588   -3.2327    1.7701 O.2     1  UNL1       -0.3921
     43 H          -0.9521    6.6852   -0.7351 H       1  UNL1        0.0262
     44 H           0.0921    5.6046   -1.6594 H       1  UNL1        0.0262
     45 H          -1.5279    5.0234   -0.9727 H       1  UNL1        0.0262
     46 H          -0.7603    5.5485    1.2799 H       1  UNL1        0.0695
     47 H           0.8680    5.9510    0.7220 H       1  UNL1        0.0695
     48 H           1.6939    0.1932    1.2613 H       1  UNL1        0.0543
     49 H           0.7722    1.5472    1.8715 H       1  UNL1        0.0543
     50 H           0.1951   -1.3372   -0.5131 H       1  UNL1        0.0621
     51 H          -2.0117   -2.1113   -1.0425 H       1  UNL1        0.0624
     52 H          -3.6494    1.2461    1.0063 H       1  UNL1        0.0624
     53 H          -1.4287    1.9730    1.5115 H       1  UNL1        0.0621
     54 H          -3.8674   -0.6927   -2.5029 H       1  UNL1        0.0624
     55 H          -5.9564   -1.5146   -3.3534 H       1  UNL1        0.0618
     56 H          -7.6565   -2.3189   -1.8057 H       1  UNL1        0.0618
     57 H          -7.2573   -2.2991    0.6420 H       1  UNL1        0.0625
     58 H          -6.8164   -2.2143    2.6380 H       1  UNL1        0.1736
     59 H           4.4153   -0.1977   -2.9803 H       1  UNL1        0.0626
     60 H           4.6723    1.9997   -4.1904 H       1  UNL1        0.0618
     61 H           3.4103    3.8658   -3.3155 H       1  UNL1        0.0639
     62 H           4.4555   -3.6141   -1.4004 H       1  UNL1        0.0781
     63 H           2.7411   -3.6160   -0.9367 H       1  UNL1        0.0781
     64 H           7.2780   -1.8896    0.3671 H       1  UNL1        0.0309
     65 H           7.2684   -3.6301   -0.0075 H       1  UNL1        0.0309
     66 H           6.2631   -2.4741   -1.0415 H       1  UNL1        0.0309
@<TRIPOS>BOND
     1     1     2    1
     2     2     3    1
     3     3     4    1
     4     4     5   ar
     5     5     6   ar
     6     6     7   ar
     7     7     8   ar
     8     8     9    1
     9     9    10    1
    10    10    11   ar
    11    11    12   ar
    12    12    13   ar
    13    13    14   ar
    14    14    15   ar
    15    13    16    1
    16    16    17   ar
    17    17    18   ar
    18    18    19   ar
    19    19    20   ar
    20    20    21   ar
    21    21    22    1
    22    22    23   ar
    23    23    24   ar
    24    24    25   ar
    25    25    26    2
    26    25    27   ar
    27     7    28   ar
    28    28    29   ar
    29    29    30   ar
    30    30    31   ar
    31    28    32    1
    32    32    33    2
    33    32    34    1
    34    34    35    1
    35    35    36    1
    36    36    37   ar
    37    37    38    1
    38    37    39   ar
    39    39    40   ar
    40    40    41    2
    41    40    42   ar
    42     8     4   ar
    43    15    10   ar
    44    21    16   ar
    45    27    22   ar
    46    42    36   ar
    47    31     6   ar
    48     1    43    1
    49     1    44    1
    50     1    45    1
    51     2    46    1
    52     2    47    1
    53     9    48    1
    54     9    49    1
    55    11    50    1
    56    12    51    1
    57    14    52    1
    58    15    53    1
    59    17    54    1
    60    18    55    1
    61    19    56    1
    62    20    57    1
    63    27    58    1
    64    29    59    1
    65    30    60    1
    66    31    61    1
    67    35    62    1
    68    35    63    1
    69    38    64    1
    70    38    65    1
    71    38    66    1
