
     RDKit          3D

 43 46  0  0  0  0  0  0  0  0999 V2000
   -1.2266    0.8609    0.7472 C   0  0  2  0  0  0  0  0  0  0  0  0
   -2.1628    0.4831    1.8324 C   0  0  0  0  0  0  0  0  0  0  0  0
   -3.4481    0.0427    1.1116 C   0  0  0  0  0  0  0  0  0  0  0  0
   -3.1265    0.3044   -0.3563 C   0  0  1  0  0  0  0  0  0  0  0  0
   -3.9757   -0.4272   -1.3225 C   0  0  0  0  0  0  0  0  0  0  0  0
   -3.1413    1.6886   -0.5412 O   0  0  0  0  0  0  0  0  0  0  0  0
   -1.6634   -0.1228   -0.3414 C   0  0  2  0  0  0  0  0  0  0  0  0
   -1.4766   -1.5365    0.0921 C   0  0  0  0  0  0  0  0  0  0  0  0
   -0.9559    0.1830   -1.6211 C   0  0  0  0  0  0  0  0  0  0  0  0
    0.5096   -0.0297   -1.4471 C   0  0  0  0  0  0  0  0  0  0  0  0
    1.0049    0.2142   -0.0810 C   0  0  0  0  0  0  0  0  0  0  0  0
    0.1971    0.6357    0.9685 C   0  0  0  0  0  0  0  0  0  0  0  0
    0.7250    0.8490    2.2379 C   0  0  0  0  0  0  0  0  0  0  0  0
    2.0600    0.6435    2.4683 C   0  0  0  0  0  0  0  0  0  0  0  0
    2.8516    0.2259    1.4216 C   0  0  0  0  0  0  0  0  0  0  0  0
    4.2079    0.0269    1.6947 C   0  0  0  0  0  0  0  0  0  0  0  0
    4.9622   -0.3913    0.6163 C   0  0  0  0  0  0  0  0  0  0  0  0
    6.3119   -0.5932    0.8728 O   0  0  0  0  0  0  0  0  0  0  0  0
    4.5447   -0.6278   -0.6586 C   0  0  0  0  0  0  0  0  0  0  0  0
    3.1863   -0.4206   -0.9005 C   0  0  0  0  0  0  0  0  0  0  0  0
    2.3535    0.0020    0.1334 C   0  0  0  0  0  0  0  0  0  0  0  0
   -1.4302    1.8881    0.3930 H   0  0  0  0  0  0  0  0  0  0  0  0
   -2.4489    1.4348    2.3664 H   0  0  0  0  0  0  0  0  0  0  0  0
   -1.8104   -0.2448    2.5620 H   0  0  0  0  0  0  0  0  0  0  0  0
   -3.5218   -1.0689    1.2127 H   0  0  0  0  0  0  0  0  0  0  0  0
   -4.3302    0.5888    1.4530 H   0  0  0  0  0  0  0  0  0  0  0  0
   -3.9202    0.1479   -2.2931 H   0  0  0  0  0  0  0  0  0  0  0  0
   -3.6433   -1.4342   -1.5798 H   0  0  0  0  0  0  0  0  0  0  0  0
   -5.0280   -0.3514   -1.0048 H   0  0  0  0  0  0  0  0  0  0  0  0
   -3.0294    1.9464   -1.4850 H   0  0  0  0  0  0  0  0  0  0  0  0
   -1.3455   -1.6803    1.1808 H   0  0  0  0  0  0  0  0  0  0  0  0
   -0.5369   -1.9440   -0.3613 H   0  0  0  0  0  0  0  0  0  0  0  0
   -2.2732   -2.2307   -0.2525 H   0  0  0  0  0  0  0  0  0  0  0  0
   -1.2284    1.1564   -2.0271 H   0  0  0  0  0  0  0  0  0  0  0  0
   -1.3131   -0.5893   -2.3595 H   0  0  0  0  0  0  0  0  0  0  0  0
    0.8264   -1.0601   -1.7536 H   0  0  0  0  0  0  0  0  0  0  0  0
    1.0326    0.6683   -2.1377 H   0  0  0  0  0  0  0  0  0  0  0  0
    0.1405    1.1731    3.0740 H   0  0  0  0  0  0  0  0  0  0  0  0
    2.4863    0.8075    3.4604 H   0  0  0  0  0  0  0  0  0  0  0  0
    4.6258    0.1885    2.6706 H   0  0  0  0  0  0  0  0  0  0  0  0
    6.9951    0.1380    0.7176 H   0  0  0  0  0  0  0  0  0  0  0  0
    5.2067   -0.9504   -1.4276 H   0  0  0  0  0  0  0  0  0  0  0  0
    2.8087   -0.5944   -1.8937 H   0  0  0  0  0  0  0  0  0  0  0  0
  1  2  1  0
  2  3  1  0
  3  4  1  0
  4  5  1  0
  4  6  1  6
  4  7  1  0
  7  8  1  1
  7  9  1  0
  9 10  1  0
 10 11  1  0
 11 12  2  0
 12 13  1  0
 13 14  2  0
 14 15  1  0
 15 16  2  0
 16 17  1  0
 17 18  1  0
 17 19  2  0
 19 20  1  0
 20 21  2  0
  7  1  1  0
 21 11  1  0
 12  1  1  0
 21 15  1  0
  1 22  1  6
  2 23  1  0
  2 24  1  0
  3 25  1  0
  3 26  1  0
  5 27  1  0
  5 28  1  0
  5 29  1  0
  6 30  1  0
  8 31  1  0
  8 32  1  0
  8 33  1  0
  9 34  1  0
  9 35  1  0
 10 36  1  0
 10 37  1  0
 13 38  1  0
 14 39  1  0
 16 40  1  0
 18 41  1  0
 19 42  1  0
 20 43  1  0
M  END
$$$$
