@<TRIPOS>MOLECULE
*****
 43 46 0 0 0
SMALL
GASTEIGER

@<TRIPOS>ATOM
      1 C          -1.2266    0.8609    0.7472 C.3     1  UNL1       -0.0075
      2 C          -2.1628    0.4831    1.8324 C.3     1  UNL1       -0.0430
      3 C          -3.4481    0.0427    1.1116 C.3     1  UNL1       -0.0232
      4 C          -3.1265    0.3044   -0.3563 C.3     1  UNL1        0.0692
      5 C          -3.9757   -0.4272   -1.3225 C.3     1  UNL1       -0.0355
      6 O          -3.1413    1.6886   -0.5412 O.3     1  UNL1       -0.3883
      7 C          -1.6634   -0.1228   -0.3414 C.3     1  UNL1        0.0036
      8 C          -1.4766   -1.5365    0.0921 C.3     1  UNL1       -0.0564
      9 C          -0.9559    0.1830   -1.6211 C.3     1  UNL1       -0.0404
     10 C           0.5096   -0.0297   -1.4471 C.3     1  UNL1       -0.0262
     11 C           1.0049    0.2142   -0.0810 C.ar    1  UNL1       -0.0362
     12 C           0.1971    0.6357    0.9685 C.ar    1  UNL1       -0.0399
     13 C           0.7250    0.8490    2.2379 C.ar    1  UNL1       -0.0574
     14 C           2.0600    0.6435    2.4683 C.ar    1  UNL1       -0.0536
     15 C           2.8516    0.2259    1.4216 C.ar    1  UNL1       -0.0142
     16 C           4.2079    0.0269    1.6947 C.ar    1  UNL1       -0.0125
     17 C           4.9622   -0.3913    0.6163 C.ar    1  UNL1        0.1175
     18 O           6.3119   -0.5932    0.8728 O.3     1  UNL1       -0.5067
     19 C           4.5447   -0.6278   -0.6586 C.ar    1  UNL1       -0.0196
     20 C           3.1863   -0.4206   -0.9005 C.ar    1  UNL1       -0.0503
     21 C           2.3535    0.0020    0.1334 C.ar    1  UNL1       -0.0142
     22 H          -1.4302    1.8881    0.3930 H       1  UNL1        0.0355
     23 H          -2.4489    1.4348    2.3664 H       1  UNL1        0.0272
     24 H          -1.8104   -0.2448    2.5620 H       1  UNL1        0.0272
     25 H          -3.5218   -1.0689    1.2127 H       1  UNL1        0.0293
     26 H          -4.3302    0.5888    1.4530 H       1  UNL1        0.0293
     27 H          -3.9202    0.1479   -2.2931 H       1  UNL1        0.0257
     28 H          -3.6433   -1.4342   -1.5798 H       1  UNL1        0.0257
     29 H          -5.0280   -0.3514   -1.0048 H       1  UNL1        0.0257
     30 H          -3.0294    1.9464   -1.4850 H       1  UNL1        0.2102
     31 H          -1.3455   -1.6803    1.1808 H       1  UNL1        0.0236
     32 H          -0.5369   -1.9440   -0.3613 H       1  UNL1        0.0236
     33 H          -2.2732   -2.2307   -0.2525 H       1  UNL1        0.0236
     34 H          -1.2284    1.1564   -2.0271 H       1  UNL1        0.0275
     35 H          -1.3131   -0.5893   -2.3595 H       1  UNL1        0.0275
     36 H           0.8264   -1.0601   -1.7536 H       1  UNL1        0.0314
     37 H           1.0326    0.6683   -2.1377 H       1  UNL1        0.0314
     38 H           0.1405    1.1731    3.0740 H       1  UNL1        0.0621
     39 H           2.4863    0.8075    3.4604 H       1  UNL1        0.0624
     40 H           4.6258    0.1885    2.6706 H       1  UNL1        0.0660
     41 H           6.9951    0.1380    0.7176 H       1  UNL1        0.2921
     42 H           5.2067   -0.9504   -1.4276 H       1  UNL1        0.0654
     43 H           2.8087   -0.5944   -1.8937 H       1  UNL1        0.0625
@<TRIPOS>BOND
     1     1     2    1
     2     2     3    1
     3     3     4    1
     4     4     5    1
     5     4     6    1
     6     4     7    1
     7     7     8    1
     8     7     9    1
     9     9    10    1
    10    10    11    1
    11    11    12   ar
    12    12    13   ar
    13    13    14   ar
    14    14    15   ar
    15    15    16   ar
    16    16    17   ar
    17    17    18    1
    18    17    19   ar
    19    19    20   ar
    20    20    21   ar
    21     7     1    1
    22    21    11   ar
    23    12     1    1
    24    21    15   ar
    25     1    22    1
    26     2    23    1
    27     2    24    1
    28     3    25    1
    29     3    26    1
    30     5    27    1
    31     5    28    1
    32     5    29    1
    33     6    30    1
    34     8    31    1
    35     8    32    1
    36     8    33    1
    37     9    34    1
    38     9    35    1
    39    10    36    1
    40    10    37    1
    41    13    38    1
    42    14    39    1
    43    16    40    1
    44    18    41    1
    45    19    42    1
    46    20    43    1
