@<TRIPOS>MOLECULE
*****
 49 54 0 0 0
SMALL
GASTEIGER

@<TRIPOS>ATOM
      1 C          -8.1270    0.4605    0.0438 C.3     1  UNL1        0.0085
      2 N          -6.7438    0.6787   -0.3285 N.am    1  UNL1       -0.2674
      3 C          -6.3720    1.2838   -1.5712 C.2     1  UNL1        0.2573
      4 O          -7.2292    1.4251   -2.4749 O.2     1  UNL1       -0.2715
      5 C          -4.9878    1.7555   -1.8281 C.3     1  UNL1        0.1658
      6 O          -4.0468    1.0815   -1.0119 O.3     1  UNL1       -0.4802
      7 C          -4.4155    0.4938    0.1942 C.ar    1  UNL1        0.1531
      8 C          -5.7133    0.2772    0.5708 C.ar    1  UNL1        0.0970
      9 C          -6.0008   -0.3142    1.7896 C.ar    1  UNL1        0.0532
     10 N          -5.0271   -0.6920    2.6358 N.ar    1  UNL1       -0.2529
     11 C          -3.7399   -0.4860    2.2809 C.ar    1  UNL1        0.0747
     12 C          -2.6923   -0.8535    3.1064 C.ar    1  UNL1       -0.0346
     13 C          -1.3849   -0.6358    2.7246 C.ar    1  UNL1       -0.0458
     14 C          -1.0539   -0.0501    1.5200 C.ar    1  UNL1        0.0164
     15 S           0.6665    0.2053    1.0733 S.3     1  UNL1       -0.0496
     16 C           1.2917   -1.2019    0.1918 C.ar    1  UNL1        0.2007
     17 N           0.6386   -2.3241   -0.1308 N.ar    1  UNL1       -0.1214
     18 N           1.4510   -3.1367   -0.7910 N.ar    1  UNL1       -0.1256
     19 C           2.6413   -2.5533   -0.9057 C.ar    1  UNL1        0.1972
     20 C           3.8138   -2.9700   -1.4948 C.ar    1  UNL1        0.1684
     21 F           3.8515   -4.1811   -2.0893 F       1  UNL1       -0.2016
     22 C           4.9157   -2.1656   -1.4734 C.ar    1  UNL1       -0.0135
     23 C           4.8290   -0.9307   -0.8509 C.ar    1  UNL1        0.0045
     24 C           5.9976   -0.0434   -0.8108 C.ar    1  UNL1        0.0210
     25 C           6.9944    0.0696   -1.7577 C.ar    1  UNL1        0.0571
     26 N           7.8716    0.9962   -1.3288 N.ar    1  UNL1       -0.1793
     27 N           7.4872    1.4777   -0.1624 N.ar    1  UNL1       -0.2739
     28 C           8.2025    2.5059    0.6053 C.3     1  UNL1        0.0302
     29 C           6.3424    0.8585    0.1782 C.ar    1  UNL1        0.0329
     30 C           3.6331   -0.5573   -0.2749 C.ar    1  UNL1        0.0216
     31 N           2.5344   -1.3411   -0.2876 N.ar    1  UNL1       -0.2744
     32 C          -2.0923    0.3192    0.6914 C.ar    1  UNL1       -0.0351
     33 C          -3.4101    0.0997    1.0763 C.ar    1  UNL1        0.0450
     34 H          -8.8094    0.8046   -0.7538 H       1  UNL1        0.0433
     35 H          -8.3353    0.9568    1.0163 H       1  UNL1        0.0433
     36 H          -8.2514   -0.6559    0.1614 H       1  UNL1        0.0433
     37 H          -4.7718    1.5764   -2.9175 H       1  UNL1        0.0795
     38 H          -4.9697    2.8552   -1.6628 H       1  UNL1        0.0795
     39 H          -7.0596   -0.4520    2.0158 H       1  UNL1        0.0850
     40 H          -2.9383   -1.3188    4.0647 H       1  UNL1        0.0639
     41 H          -0.5725   -0.9281    3.3806 H       1  UNL1        0.0629
     42 H           5.8650   -2.4390   -1.9196 H       1  UNL1        0.0654
     43 H           7.0807   -0.4831   -2.6994 H       1  UNL1        0.0854
     44 H           8.8699    3.0540   -0.0893 H       1  UNL1        0.0473
     45 H           8.8015    2.0175    1.4056 H       1  UNL1        0.0473
     46 H           7.4589    3.2192    1.0229 H       1  UNL1        0.0473
     47 H           5.7802    1.0305    1.0721 H       1  UNL1        0.0832
     48 H           3.5929    0.4307    0.2129 H       1  UNL1        0.0820
     49 H          -1.8666    0.7807   -0.2594 H       1  UNL1        0.0636
@<TRIPOS>BOND
     1     1     2    1
     2     2     3   am
     3     3     4    2
     4     3     5    1
     5     5     6    1
     6     6     7    1
     7     7     8   ar
     8     8     9   ar
     9     9    10   ar
    10    10    11   ar
    11    11    12   ar
    12    12    13   ar
    13    13    14   ar
    14    14    15    1
    15    15    16    1
    16    16    17   ar
    17    17    18   ar
    18    18    19   ar
    19    19    20   ar
    20    20    21    1
    21    20    22   ar
    22    22    23   ar
    23    23    24    1
    24    24    25   ar
    25    25    26   ar
    26    26    27   ar
    27    27    28    1
    28    27    29   ar
    29    23    30   ar
    30    30    31   ar
    31    14    32   ar
    32    32    33   ar
    33     8     2    1
    34    33    11   ar
    35    33     7   ar
    36    31    16   ar
    37    31    19   ar
    38    29    24   ar
    39     1    34    1
    40     1    35    1
    41     1    36    1
    42     5    37    1
    43     5    38    1
    44     9    39    1
    45    12    40    1
    46    13    41    1
    47    22    42    1
    48    25    43    1
    49    28    44    1
    50    28    45    1
    51    28    46    1
    52    29    47    1
    53    30    48    1
    54    32    49    1
