@<TRIPOS>MOLECULE
*****
 47 47 0 0 0
SMALL
GASTEIGER

@<TRIPOS>ATOM
      1 C           0.1548   -1.7065    0.2368 C.3     1  UNL1        0.1051
      2 N          -0.8075   -0.7541   -0.2906 N.am    1  UNL1       -0.2695
      3 C          -1.9385   -0.3327    0.5000 C.2     1  UNL1        0.4014
      4 O          -2.1782   -0.7401    1.6717 O.2     1  UNL1       -0.2264
      5 O          -2.8388    0.5623   -0.0016 O.3     1  UNL1       -0.4447
      6 C          -3.9771    1.0775    0.6103 C.3     1  UNL1        0.1068
      7 C          -4.9283   -0.0316    0.9604 C.3     1  UNL1       -0.0253
      8 C          -4.5996    2.0480   -0.4007 C.3     1  UNL1       -0.0253
      9 C          -3.6682    1.9144    1.8313 C.3     1  UNL1       -0.0253
     10 C           0.2634   -2.9676   -0.5454 C.3     1  UNL1       -0.0196
     11 C           1.2600   -3.9590   -0.0035 C.3     1  UNL1       -0.0605
     12 C           0.5180   -2.7310   -2.0184 C.3     1  UNL1       -0.0605
     13 C           1.4401   -0.9827    0.4183 C.2     1  UNL1        0.2379
     14 O           2.5680   -1.4024    0.8535 O.2     1  UNL1       -0.2734
     15 N           1.5768    0.4179    0.0915 N.am    1  UNL1       -0.2833
     16 C           2.7866    1.1492    0.2494 C.ar    1  UNL1        0.0451
     17 C           2.9618    1.7671    1.4933 C.ar    1  UNL1       -0.0397
     18 C           4.0904    2.5093    1.7838 C.ar    1  UNL1       -0.0586
     19 C           5.0992    2.6698    0.8439 C.ar    1  UNL1       -0.0426
     20 C           4.9180    2.0525   -0.3908 C.ar    1  UNL1        0.0529
     21 CL          6.1356    2.1885   -1.6627 Cl      1  UNL1       -0.0828
     22 C           3.7922    1.3131   -0.6780 C.ar    1  UNL1        0.0536
     23 C           3.5945    0.6720   -1.9484 C.2     1  UNL1        0.1534
     24 O           2.5474    0.0077   -2.1607 O.2     1  UNL1       -0.2956
     25 H          -0.2101   -1.9520    1.2620 H       1  UNL1        0.0598
     26 H          -0.7452   -0.3232   -1.2519 H       1  UNL1        0.1528
     27 H          -4.7561   -0.2505    2.0519 H       1  UNL1        0.0268
     28 H          -4.7709   -0.9422    0.3754 H       1  UNL1        0.0268
     29 H          -5.9759    0.3482    0.8811 H       1  UNL1        0.0268
     30 H          -4.7294    1.5549   -1.3688 H       1  UNL1        0.0268
     31 H          -3.8207    2.8558   -0.5221 H       1  UNL1        0.0268
     32 H          -5.5001    2.4993    0.0158 H       1  UNL1        0.0268
     33 H          -2.8855    2.6573    1.5913 H       1  UNL1        0.0268
     34 H          -4.6220    2.4455    2.0732 H       1  UNL1        0.0268
     35 H          -3.4104    1.3005    2.6992 H       1  UNL1        0.0268
     36 H          -0.7237   -3.4720   -0.4805 H       1  UNL1        0.0318
     37 H           2.2846   -3.5915    0.0869 H       1  UNL1        0.0233
     38 H           1.2631   -4.8335   -0.6867 H       1  UNL1        0.0233
     39 H           0.9501   -4.3681    0.9801 H       1  UNL1        0.0233
     40 H           1.5851   -2.5659   -2.2590 H       1  UNL1        0.0233
     41 H           0.1235   -3.6387   -2.5631 H       1  UNL1        0.0233
     42 H          -0.1423   -1.9098   -2.3830 H       1  UNL1        0.0233
     43 H           0.7407    0.9538   -0.2900 H       1  UNL1        0.1549
     44 H           2.1908    1.6707    2.2744 H       1  UNL1        0.0636
     45 H           4.2218    2.9866    2.7499 H       1  UNL1        0.0619
     46 H           6.0105    3.2336    0.9938 H       1  UNL1        0.0632
     47 H           4.1514    0.5997   -2.8506 H       1  UNL1        0.1082
@<TRIPOS>BOND
     1     1     2    1
     2     2     3   am
     3     3     4    2
     4     3     5    1
     5     5     6    1
     6     6     7    1
     7     6     8    1
     8     6     9    1
     9     1    10    1
    10    10    11    1
    11    10    12    1
    12     1    13    1
    13    13    14    2
    14    13    15   am
    15    15    16    1
    16    16    17   ar
    17    17    18   ar
    18    18    19   ar
    19    19    20   ar
    20    20    21    1
    21    20    22   ar
    22    22    23    1
    23    23    24    2
    24    22    16   ar
    25     1    25    1
    26     2    26    1
    27     7    27    1
    28     7    28    1
    29     7    29    1
    30     8    30    1
    31     8    31    1
    32     8    32    1
    33     9    33    1
    34     9    34    1
    35     9    35    1
    36    10    36    1
    37    11    37    1
    38    11    38    1
    39    11    39    1
    40    12    40    1
    41    12    41    1
    42    12    42    1
    43    15    43    1
    44    17    44    1
    45    18    45    1
    46    19    46    1
    47    23    47    1
