@<TRIPOS>MOLECULE
*****
 66 71 0 0 0
SMALL
GASTEIGER

@<TRIPOS>ATOM
      1 N1         -2.3267   -4.8421    3.5203 N.3     1  <1>        -0.2035
      2 S1         -3.6758   -4.3848    2.5431 S.O2    1  <1>         0.0559
      3 O1         -4.8608   -3.9832    3.3747 O.2     1  <1>        -0.1533
      4 O2         -4.1067   -5.5599    1.6880 O.2     1  <1>        -0.1533
      5 C1         -3.2763   -2.9976    1.5343 C.ar    1  <1>         0.1050
      6 C2         -3.4869   -1.7131    1.9851 C.ar    1  <1>        -0.0351
      7 C3         -3.1719   -0.6160    1.1881 C.ar    1  <1>        -0.0564
      8 C4         -2.6365   -0.7555   -0.0849 C.ar    1  <1>        -0.0428
      9 C5         -2.3026    0.4069   -0.9483 C.3     1  <1>         0.0014
     10 C6         -0.9702    0.9645   -0.7379 C.ar    1  <1>         0.0059
     11 C7          0.2544    0.4961   -1.1438 C.ar    1  <1>         0.0970
     12 C8          0.6101   -0.6766   -1.9087 C.ar    1  <1>         0.0030
     13 C9         -0.0170   -0.9890   -3.0898 C.ar    1  <1>        -0.0525
     14 C10         0.3876   -2.1344   -3.7470 C.ar    1  <1>        -0.0606
     15 C11         1.3885   -2.9423   -3.2391 C.ar    1  <1>        -0.0540
     16 C12         2.0270   -2.6400   -2.0538 C.ar    1  <1>        -0.0173
     17 C13         3.0863   -3.4656   -1.4856 C.ar    1  <1>        -0.0179
     18 C14         3.0851   -4.8224   -1.6766 C.ar    1  <1>        -0.0540
     19 C15         4.0677   -5.6508   -1.1581 C.ar    1  <1>        -0.0612
     20 C16         5.0993   -5.1137   -0.4165 C.ar    1  <1>        -0.0617
     21 C17         5.1195   -3.7396   -0.2108 C.ar    1  <1>        -0.0612
     22 C18         4.1205   -2.9346   -0.7432 C.ar    1  <1>        -0.0540
     23 C19         1.6088   -1.4862   -1.4059 C.ar    1  <1>        -0.0448
     24 N2          1.2049    1.3567   -0.6892 N.ar    1  <1>        -0.1641
     25 N3          0.6440    2.3249   -0.0308 N.ar    1  <1>        -0.2117
     26 C20         1.3362    3.4529    0.6211 C.ar    1  <1>         0.1946
     27 N4          1.2056    4.5851    0.8452 N.ar    1  <1>        -0.2145
     28 C21         2.0066    5.4198    1.4772 C.ar    1  <1>         0.1568
     29 C22         1.7519    6.8728    1.7199 C.2     1  <1>         0.3559
     30 O3          0.7079    7.3777    1.3091 O.2     1  <1>        -0.2434
     31 O4          2.6800    7.6237    2.3943 O.3     1  <1>        -0.4761
     32 C23         3.1929    4.8167    1.9391 C.ar    1  <1>         0.0116
     33 S2          2.9849    3.1269    1.3951 S.2     1  <1>        -0.0554
     34 C24        -0.6898    2.1254   -0.0359 C.ar    1  <1>         0.0515
     35 C25        -1.6350    3.0334    0.6124 C.3     1  <1>        -0.0071
     36 C26        -2.4054    3.9124   -0.3467 C.3     1  <1>        -0.0356
     37 C27        -1.6896    4.8454   -1.2419 C.3     1  <1>        -0.0496
     38 C28        -2.4067    5.4123   -0.0807 C.3     1  <1>        -0.0496
     39 C29        -2.4326   -2.0456   -0.5202 C.ar    1  <1>        -0.0564
     40 C30        -2.7460   -3.1558    0.2739 C.ar    1  <1>        -0.0351
     41 H1         -1.7172   -4.0186    3.6192 H       1  <1>         0.1442
     42 H2         -1.8527   -5.6384    3.0330 H       1  <1>         0.1442
     43 H3         -3.9035   -1.5741    2.9747 H       1  <1>         0.0637
     44 H4         -3.3408    0.3884    1.5436 H       1  <1>         0.0621
     45 H5         -2.5255    0.0822   -1.9876 H       1  <1>         0.0363
     46 H6         -3.0626    1.1885   -0.7250 H       1  <1>         0.0363
     47 H7         -0.7989   -0.3885   -3.5292 H       1  <1>         0.0624
     48 H8         -0.1177   -2.3761   -4.6882 H       1  <1>         0.0618
     49 H9          1.7089   -3.8425   -3.7529 H       1  <1>         0.0624
     50 H10         2.2680   -5.2466   -2.2636 H       1  <1>         0.0624
     51 H11         4.0720   -6.7210   -1.3056 H       1  <1>         0.0618
     52 H12         5.8996   -5.7143    0.0166 H       1  <1>         0.0618
     53 H13         5.9220   -3.2830    0.3714 H       1  <1>         0.0618
     54 H14         4.1792   -1.8725   -0.5564 H       1  <1>         0.0624
     55 H15         2.1192   -1.2537   -0.4682 H       1  <1>         0.0630
     56 H16         2.6566    8.6416    2.4394 H       1  <1>         0.2955
     57 H17         4.0312    5.2518    2.4872 H       1  <1>         0.0718
     58 H18        -1.1043    3.7181    1.3413 H       1  <1>         0.0331
     59 H19        -2.3917    2.5265    1.2423 H       1  <1>         0.0331
     60 H20        -3.4048    3.5621   -0.7078 H       1  <1>         0.0304
     61 H21        -0.5907    4.7483   -1.2749 H       1  <1>         0.0268
     62 H22        -2.1186    5.0135   -2.2753 H       1  <1>         0.0268
     63 H23        -3.3206    5.9925   -0.1937 H       1  <1>         0.0268
     64 H24        -1.7369    5.7258    0.7661 H       1  <1>         0.0268
     65 H25        -2.0223   -2.2432   -1.5059 H       1  <1>         0.0621
     66 H26        -2.5814   -4.1719   -0.0785 H       1  <1>         0.0637
@<TRIPOS>BOND
     1     1     2    1
     2     2     3    2
     3     2     4    2
     4     2     5    1
     5     5     6   ar
     6     6     7   ar
     7     7     8   ar
     8     8     9    1
     9     9    10    1
    10    10    11   ar
    11    11    12    1
    12    12    13   ar
    13    13    14   ar
    14    14    15   ar
    15    15    16   ar
    16    16    17    1
    17    17    18   ar
    18    18    19   ar
    19    19    20   ar
    20    20    21   ar
    21    21    22   ar
    22    16    23   ar
    23    11    24   ar
    24    24    25   ar
    25    25    26    1
    26    26    27   ar
    27    27    28   ar
    28    28    29    1
    29    29    30    2
    30    29    31    1
    31    28    32   ar
    32    32    33   ar
    33    25    34   ar
    34    34    35    1
    35    35    36    1
    36    36    37    1
    37    37    38    1
    38     8    39   ar
    39    39    40   ar
    40    40     5   ar
    41    34    10   ar
    42    38    36    1
    43    23    12   ar
    44    33    26   ar
    45    22    17   ar
    46     1    41    1
    47     1    42    1
    48     6    43    1
    49     7    44    1
    50     9    45    1
    51     9    46    1
    52    13    47    1
    53    14    48    1
    54    15    49    1
    55    18    50    1
    56    19    51    1
    57    20    52    1
    58    21    53    1
    59    22    54    1
    60    23    55    1
    61    31    56    1
    62    32    57    1
    63    35    58    1
    64    35    59    1
    65    36    60    1
    66    37    61    1
    67    37    62    1
    68    38    63    1
    69    38    64    1
    70    39    65    1
    71    40    66    1
