@<TRIPOS>MOLECULE
*****
 76 78 0 0 0
SMALL
GASTEIGER

@<TRIPOS>ATOM
      1 C          -5.4145    1.0829   -1.8724 C.3     1  UNL1        0.0364
      2 O          -6.4299    1.8312   -1.3354 O.3     1  UNL1       -0.3829
      3 C          -6.0689    3.0494   -0.8582 C.3     1  UNL1        0.0504
      4 C          -5.1385    3.0766    0.3264 C.3     1  UNL1        0.0049
      5 C          -5.7454    2.4250    1.5207 C.3     1  UNL1        0.0918
      6 O          -6.0353    1.0895    1.4789 O.3     1  UNL1       -0.4882
      7 C          -5.1859    0.0060    1.4136 C.ar    1  UNL1        0.1626
      8 C          -3.8180    0.0682    1.4250 C.ar    1  UNL1       -0.0042
      9 C          -2.9908   -1.0605    1.3597 C.ar    1  UNL1        0.0406
     10 C          -1.5623   -0.8299    1.4314 C.2     1  UNL1        0.2470
     11 O          -1.0236   -1.2082    2.5252 O.2     1  UNL1       -0.2700
     12 N          -0.7628   -0.2387    0.4238 N.am    1  UNL1       -0.2946
     13 C           0.6348   -0.0676    0.6290 C.3     1  UNL1        0.0227
     14 C           1.5637   -1.0871    0.0856 C.3     1  UNL1        0.0257
     15 C           1.3858   -2.4990    0.5278 C.3     1  UNL1        0.0037
     16 N           2.4194   -2.7894    1.4649 N.3     1  UNL1       -0.3120
     17 C           2.9648   -1.5564    1.8744 C.3     1  UNL1        0.0335
     18 C           2.9604   -0.6906    0.6321 C.3     1  UNL1        0.1224
     19 O           3.9003   -1.0639   -0.3180 O.3     1  UNL1       -0.4454
     20 C           4.8693   -0.1796   -0.8107 C.2     1  UNL1        0.4008
     21 O           4.8149    0.9672   -0.3307 O.2     1  UNL1       -0.2265
     22 N           5.8226   -0.5566   -1.7633 N.am    1  UNL1       -0.2770
     23 C           6.8281    0.3517   -2.2659 C.3     1  UNL1        0.0400
     24 C           7.9428    0.6006   -1.3524 C.ar    1  UNL1       -0.0302
     25 C           9.0095   -0.2787   -1.3560 C.ar    1  UNL1       -0.0571
     26 C          10.0559   -0.0361   -0.5032 C.ar    1  UNL1       -0.0615
     27 C          10.0580    1.0515    0.3415 C.ar    1  UNL1       -0.0617
     28 C           8.9935    1.9143    0.3329 C.ar    1  UNL1       -0.0615
     29 C           7.9354    1.6770   -0.5238 C.ar    1  UNL1       -0.0571
     30 C          -1.4001    0.1650   -0.8162 C.3     1  UNL1        0.0207
     31 C          -1.2591    1.6184   -1.1216 C.3     1  UNL1       -0.0467
     32 C          -0.8922   -0.6802   -1.9954 C.3     1  UNL1       -0.0467
     33 C          -3.5734   -2.2811    1.2780 C.ar    1  UNL1       -0.0459
     34 C          -4.9425   -2.4145    1.2614 C.ar    1  UNL1       -0.0156
     35 C          -5.7211   -1.2870    1.3289 C.ar    1  UNL1        0.1615
     36 O          -7.1027   -1.3728    1.3177 O.3     1  UNL1       -0.4915
     37 C          -7.8294   -2.5792    1.2417 C.3     1  UNL1        0.0790
     38 H          -4.5805    0.8547   -1.2249 H       1  UNL1        0.0523
     39 H          -5.9022    0.1334   -2.2566 H       1  UNL1        0.0523
     40 H          -4.9907    1.5332   -2.8210 H       1  UNL1        0.0523
     41 H          -5.6465    3.7312   -1.6303 H       1  UNL1        0.0561
     42 H          -7.0135    3.5577   -0.4978 H       1  UNL1        0.0561
     43 H          -4.1344    2.7324    0.1001 H       1  UNL1        0.0320
     44 H          -5.0269    4.1730    0.5835 H       1  UNL1        0.0320
     45 H          -4.9952    2.5805    2.3671 H       1  UNL1        0.0697
     46 H          -6.6422    3.0020    1.8689 H       1  UNL1        0.0697
     47 H          -3.3498    1.0446    1.4983 H       1  UNL1        0.0663
     48 H           0.8370   -0.0251    1.7434 H       1  UNL1        0.0469
     49 H           1.0036    0.9329    0.2813 H       1  UNL1        0.0469
     50 H           1.5880   -1.0632   -1.0236 H       1  UNL1        0.0365
     51 H           0.3800   -2.7483    0.9319 H       1  UNL1        0.0428
     52 H           1.5893   -3.2116   -0.3565 H       1  UNL1        0.0428
     53 H           3.1592   -3.3892    1.0595 H       1  UNL1        0.1221
     54 H           3.9792   -1.6247    2.3236 H       1  UNL1        0.0460
     55 H           2.3296   -1.0790    2.6334 H       1  UNL1        0.0460
     56 H           2.9942    0.3528    0.9556 H       1  UNL1        0.0751
     57 H           5.7739   -1.5663   -2.1136 H       1  UNL1        0.1523
     58 H           7.2156   -0.0215   -3.2428 H       1  UNL1        0.0513
     59 H           6.2936    1.3107   -2.5453 H       1  UNL1        0.0513
     60 H           9.0338   -1.1385   -2.0091 H       1  UNL1        0.0621
     61 H          10.9140   -0.7184   -0.4839 H       1  UNL1        0.0618
     62 H          10.9101    1.1991    0.9992 H       1  UNL1        0.0618
     63 H           9.0126    2.7651    1.0000 H       1  UNL1        0.0618
     64 H           7.1129    2.3815   -0.5116 H       1  UNL1        0.0621
     65 H          -2.4789   -0.0748   -0.7652 H       1  UNL1        0.0495
     66 H          -0.2086    1.9628   -1.1671 H       1  UNL1        0.0247
     67 H          -1.8669    2.2642   -0.4661 H       1  UNL1        0.0247
     68 H          -1.6487    1.7594   -2.1727 H       1  UNL1        0.0247
     69 H          -0.6321   -1.6861   -1.6558 H       1  UNL1        0.0247
     70 H          -1.7154   -0.8287   -2.7560 H       1  UNL1        0.0247
     71 H          -0.0963   -0.1528   -2.5516 H       1  UNL1        0.0247
     72 H          -2.9397   -3.1546    1.2251 H       1  UNL1        0.0626
     73 H          -5.4066   -3.4149    1.1956 H       1  UNL1        0.0655
     74 H          -7.7868   -3.0572    2.2497 H       1  UNL1        0.0660
     75 H          -8.8906   -2.3190    1.0534 H       1  UNL1        0.0660
     76 H          -7.4370   -3.2147    0.4398 H       1  UNL1        0.0660
@<TRIPOS>BOND
     1     1     2    1
     2     2     3    1
     3     3     4    1
     4     4     5    1
     5     5     6    1
     6     6     7    1
     7     7     8   ar
     8     8     9   ar
     9     9    10    1
    10    10    11    2
    11    10    12   am
    12    12    13    1
    13    13    14    1
    14    14    15    1
    15    15    16    1
    16    16    17    1
    17    17    18    1
    18    18    19    1
    19    19    20    1
    20    20    21    2
    21    20    22   am
    22    22    23    1
    23    23    24    1
    24    24    25   ar
    25    25    26   ar
    26    26    27   ar
    27    27    28   ar
    28    28    29   ar
    29    12    30    1
    30    30    31    1
    31    30    32    1
    32     9    33   ar
    33    33    34   ar
    34    34    35   ar
    35    35    36    1
    36    36    37    1
    37    35     7   ar
    38    18    14    1
    39    29    24   ar
    40     1    38    1
    41     1    39    1
    42     1    40    1
    43     3    41    1
    44     3    42    1
    45     4    43    1
    46     4    44    1
    47     5    45    1
    48     5    46    1
    49     8    47    1
    50    13    48    1
    51    13    49    1
    52    14    50    1
    53    15    51    1
    54    15    52    1
    55    16    53    1
    56    17    54    1
    57    17    55    1
    58    18    56    1
    59    22    57    1
    60    23    58    1
    61    23    59    1
    62    25    60    1
    63    26    61    1
    64    27    62    1
    65    28    63    1
    66    29    64    1
    67    30    65    1
    68    31    66    1
    69    31    67    1
    70    31    68    1
    71    32    69    1
    72    32    70    1
    73    32    71    1
    74    33    72    1
    75    34    73    1
    76    37    74    1
    77    37    75    1
    78    37    76    1
