@<TRIPOS>MOLECULE
*****
 51 51 0 0 0
SMALL
GASTEIGER

@<TRIPOS>ATOM
      1 C          -3.5953    1.0624    1.7733 C.3     1  UNL1        0.0962
      2 O          -3.8288    0.1440    2.8034 O.3     1  UNL1       -0.3879
      3 C          -2.2782    0.8689    1.1004 C.3     1  UNL1        0.0279
      4 N          -2.2034   -0.2740    0.2177 N.3     1  UNL1       -0.2923
      5 C          -1.3896   -0.0016   -0.9515 C.3     1  UNL1       -0.0006
      6 C           0.0491    0.1642   -0.5168 C.3     1  UNL1       -0.0402
      7 C           0.9593    0.4541   -1.6910 C.3     1  UNL1       -0.0519
      8 C           2.3938    0.6198   -1.2545 C.3     1  UNL1       -0.0530
      9 C           2.9742   -0.5773   -0.5805 C.3     1  UNL1       -0.0531
     10 C           4.4169   -0.2038   -0.2233 C.3     1  UNL1       -0.0531
     11 C           5.1321   -1.3332    0.4702 C.3     1  UNL1       -0.0533
     12 C           6.5463   -0.8811    0.7864 C.3     1  UNL1       -0.0559
     13 C           6.5653    0.3323    1.6880 C.3     1  UNL1       -0.0653
     14 C          -3.5260   -0.7374   -0.0876 C.3     1  UNL1        0.0621
     15 C          -3.5870   -1.8254   -1.0995 C.3     1  UNL1        0.0622
     16 O          -4.9621   -2.1393   -1.2501 O.3     1  UNL1       -0.3934
     17 C          -4.3910    0.4524   -0.5075 C.3     1  UNL1        0.1011
     18 O          -5.4846    0.0219   -1.2263 O.3     1  UNL1       -0.3875
     19 C          -4.7491    1.1456    0.7943 C.3     1  UNL1        0.1095
     20 O          -5.0528    2.4577    0.4685 O.3     1  UNL1       -0.3866
     21 H          -3.5510    2.0506    2.2813 H       1  UNL1        0.0633
     22 H          -4.7921   -0.0278    2.8905 H       1  UNL1        0.2099
     23 H          -1.5260    0.6985    1.9089 H       1  UNL1        0.0453
     24 H          -2.0565    1.8042    0.5270 H       1  UNL1        0.0453
     25 H          -1.7177    0.8528   -1.5462 H       1  UNL1        0.0427
     26 H          -1.4242   -0.9243   -1.5865 H       1  UNL1        0.0427
     27 H           0.3637   -0.7599   -0.0102 H       1  UNL1        0.0278
     28 H           0.1494    1.0253    0.1847 H       1  UNL1        0.0278
     29 H           0.9502   -0.4270   -2.3894 H       1  UNL1        0.0266
     30 H           0.6472    1.3895   -2.1822 H       1  UNL1        0.0266
     31 H           2.3728    1.4356   -0.4733 H       1  UNL1        0.0265
     32 H           3.0371    1.0160   -2.0525 H       1  UNL1        0.0265
     33 H           3.0080   -1.4768   -1.1931 H       1  UNL1        0.0265
     34 H           2.4738   -0.7415    0.4131 H       1  UNL1        0.0265
     35 H           4.4553    0.6731    0.4554 H       1  UNL1        0.0265
     36 H           4.9462    0.0830   -1.1315 H       1  UNL1        0.0265
     37 H           4.6671   -1.5667    1.4529 H       1  UNL1        0.0265
     38 H           5.2174   -2.2441   -0.1375 H       1  UNL1        0.0265
     39 H           7.1007   -1.6897    1.3186 H       1  UNL1        0.0263
     40 H           7.1070   -0.6724   -0.1506 H       1  UNL1        0.0263
     41 H           6.5703    1.2286    1.0410 H       1  UNL1        0.0230
     42 H           5.6312    0.3235    2.2609 H       1  UNL1        0.0230
     43 H           7.4910    0.3721    2.3055 H       1  UNL1        0.0230
     44 H          -3.9577   -1.1519    0.8569 H       1  UNL1        0.0511
     45 H          -3.1098   -2.7339   -0.7021 H       1  UNL1        0.0573
     46 H          -3.2646   -1.5403   -2.1233 H       1  UNL1        0.0573
     47 H          -5.4184   -2.1891   -0.3653 H       1  UNL1        0.2095
     48 H          -3.8105    1.1496   -1.1340 H       1  UNL1        0.0636
     49 H          -5.6627    0.6323   -1.9738 H       1  UNL1        0.2100
     50 H          -5.5967    0.6044    1.2386 H       1  UNL1        0.0646
     51 H          -4.2897    3.0561    0.6759 H       1  UNL1        0.2100
@<TRIPOS>BOND
     1     1     2    1
     2     1     3    1
     3     3     4    1
     4     4     5    1
     5     5     6    1
     6     6     7    1
     7     7     8    1
     8     8     9    1
     9     9    10    1
    10    10    11    1
    11    11    12    1
    12    12    13    1
    13     4    14    1
    14    14    15    1
    15    15    16    1
    16    14    17    1
    17    17    18    1
    18    17    19    1
    19    19    20    1
    20    19     1    1
    21     1    21    1
    22     2    22    1
    23     3    23    1
    24     3    24    1
    25     5    25    1
    26     5    26    1
    27     6    27    1
    28     6    28    1
    29     7    29    1
    30     7    30    1
    31     8    31    1
    32     8    32    1
    33     9    33    1
    34     9    34    1
    35    10    35    1
    36    10    36    1
    37    11    37    1
    38    11    38    1
    39    12    39    1
    40    12    40    1
    41    13    41    1
    42    13    42    1
    43    13    43    1
    44    14    44    1
    45    15    45    1
    46    15    46    1
    47    16    47    1
    48    17    48    1
    49    18    49    1
    50    19    50    1
    51    20    51    1
