@<TRIPOS>MOLECULE
*****
 43 46 0 0 0
SMALL
GASTEIGER

@<TRIPOS>ATOM
      1 C           0.2911   -3.1065   -1.0020 C.3     1  UNL1       -0.0420
      2 C           1.4291   -2.3911   -1.6673 C.3     1  UNL1        0.0562
      3 C           1.1397   -2.3023   -3.1509 C.3     1  UNL1        0.0647
      4 O           2.2207   -1.6301   -3.7475 O.3     1  UNL1       -0.3930
      5 N           1.7690   -1.1237   -1.0767 N.ar    1  UNL1       -0.3245
      6 C           3.0659   -0.6905   -1.0556 C.ar    1  UNL1        0.0974
      7 N           3.0843    0.4921   -0.4545 N.ar    1  UNL1       -0.2351
      8 C           1.8363    0.8236   -0.0923 C.ar    1  UNL1        0.0967
      9 C           1.4278    2.0411    0.5950 C.ar    1  UNL1        0.0026
     10 C           1.9786    2.2943    1.8340 C.ar    1  UNL1       -0.0498
     11 C           1.6167    3.4516    2.5427 C.ar    1  UNL1       -0.0258
     12 C           0.7135    4.3447    2.0170 C.ar    1  UNL1        0.1234
     13 F           0.3894    5.4604    2.7479 F       1  UNL1       -0.2055
     14 C           0.1646    4.0933    0.7835 C.ar    1  UNL1       -0.0258
     15 C           0.5268    2.9456    0.0858 C.ar    1  UNL1       -0.0498
     16 C           1.0092   -0.2119   -0.4936 C.ar    1  UNL1        0.0781
     17 C          -0.4264   -0.2575   -0.2932 C.ar    1  UNL1        0.0173
     18 C          -1.3591   -0.1851   -1.3046 C.ar    1  UNL1       -0.0477
     19 C          -2.7161   -0.2323   -1.0659 C.ar    1  UNL1       -0.0181
     20 C          -3.1695   -0.3579    0.2473 C.ar    1  UNL1        0.1385
     21 N          -4.4173   -0.4258    0.7429 N.ar    1  UNL1       -0.2348
     22 C          -4.3022   -0.5423    2.0792 C.ar    1  UNL1        0.0643
     23 C          -2.9393   -0.5454    2.4083 C.ar    1  UNL1        0.1438
     24 C          -2.3877   -0.6518    3.7288 C.1     1  UNL1        0.1192
     25 N          -1.9345   -0.7237    4.7997 N.1     1  UNL1       -0.1893
     26 N          -2.2731   -0.4294    1.2455 N.ar    1  UNL1       -0.2906
     27 C          -0.9435   -0.3808    0.9842 C.ar    1  UNL1        0.0216
     28 H          -0.6762   -2.9739   -1.5320 H       1  UNL1        0.0250
     29 H           0.5376   -4.2075   -1.0206 H       1  UNL1        0.0250
     30 H           0.1767   -2.8663    0.0640 H       1  UNL1        0.0250
     31 H           2.3256   -3.0870   -1.6034 H       1  UNL1        0.0548
     32 H           1.1183   -3.3327   -3.5751 H       1  UNL1        0.0578
     33 H           0.1805   -1.8399   -3.3705 H       1  UNL1        0.0578
     34 H           2.1692   -1.8032   -4.7114 H       1  UNL1        0.2095
     35 H           3.9445   -1.1852   -1.4439 H       1  UNL1        0.1029
     36 H           2.6950    1.6385    2.3133 H       1  UNL1        0.0625
     37 H           2.0339    3.6749    3.5170 H       1  UNL1        0.0646
     38 H          -0.5401    4.7972    0.3833 H       1  UNL1        0.0646
     39 H           0.0841    2.7487   -0.9028 H       1  UNL1        0.0625
     40 H          -1.0305   -0.0843   -2.3251 H       1  UNL1        0.0626
     41 H          -3.4466   -0.1738   -1.8763 H       1  UNL1        0.0654
     42 H          -5.0835   -0.6195    2.7961 H       1  UNL1        0.0859
     43 H          -0.2824   -0.4447    1.8496 H       1  UNL1        0.0820
@<TRIPOS>BOND
     1     1     2    1
     2     2     3    1
     3     3     4    1
     4     2     5    1
     5     5     6   ar
     6     6     7   ar
     7     7     8   ar
     8     8     9    1
     9     9    10   ar
    10    10    11   ar
    11    11    12   ar
    12    12    13    1
    13    12    14   ar
    14    14    15   ar
    15     8    16   ar
    16    16    17    1
    17    17    18   ar
    18    18    19   ar
    19    19    20   ar
    20    20    21   ar
    21    21    22   ar
    22    22    23   ar
    23    23    24    1
    24    24    25    3
    25    23    26   ar
    26    26    27   ar
    27    16     5   ar
    28    27    17   ar
    29    15     9   ar
    30    26    20   ar
    31     1    28    1
    32     1    29    1
    33     1    30    1
    34     2    31    1
    35     3    32    1
    36     3    33    1
    37     4    34    1
    38     6    35    1
    39    10    36    1
    40    11    37    1
    41    14    38    1
    42    15    39    1
    43    18    40    1
    44    19    41    1
    45    22    42    1
    46    27    43    1
