@<TRIPOS>MOLECULE
*****
 47 50 0 0 0
SMALL
GASTEIGER

@<TRIPOS>ATOM
      1 C           8.0128    1.0229    2.1949 C.3     1  UNL1        0.0788
      2 O           7.4469    1.4702    1.0002 O.3     1  UNL1       -0.4951
      3 C           6.3688    0.8112    0.3960 C.ar    1  UNL1        0.1202
      4 C           5.8577    1.3073   -0.7848 C.ar    1  UNL1       -0.0182
      5 C           4.7868    0.6633   -1.3968 C.ar    1  UNL1       -0.0370
      6 C           4.2204   -0.4634   -0.8511 C.ar    1  UNL1        0.0350
      7 N           3.1380   -1.1035   -1.4815 N.am    1  UNL1       -0.2692
      8 C           1.7736   -0.8020   -1.2385 C.2     1  UNL1        0.3082
      9 O           1.4892    0.0807   -0.4202 O.2     1  UNL1       -0.2522
     10 N           0.7098   -1.4859   -1.9094 N.am    1  UNL1       -0.2667
     11 C          -0.6484   -1.1586   -1.6420 C.ar    1  UNL1        0.0702
     12 C          -1.3543   -1.8117   -0.6351 C.ar    1  UNL1       -0.0370
     13 C          -2.6799   -1.4661   -0.4018 C.ar    1  UNL1       -0.0506
     14 C          -3.3426   -0.5026   -1.1184 C.ar    1  UNL1        0.0039
     15 C          -4.7273   -0.1524   -0.8514 C.ar    1  UNL1        0.0837
     16 N          -5.6543   -0.2793   -1.8453 N.ar    1  UNL1       -0.2347
     17 C          -6.9350    0.0432   -1.6207 C.ar    1  UNL1        0.1189
     18 N          -7.3489    0.4957   -0.4325 N.ar    1  UNL1       -0.2179
     19 C          -6.4889    0.6468    0.5891 C.ar    1  UNL1        0.1422
     20 N          -6.6943    1.0995    1.8317 N.ar    1  UNL1       -0.3455
     21 C          -5.5097    1.0729    2.4288 C.ar    1  UNL1        0.0071
     22 C          -4.5336    0.5984    1.5627 C.ar    1  UNL1       -0.0218
     23 C          -3.0897    0.4713    1.8592 C.3     1  UNL1       -0.0376
     24 C          -5.1526    0.3158    0.3706 C.ar    1  UNL1        0.0475
     25 C          -2.6176    0.1445   -2.1278 C.ar    1  UNL1       -0.0154
     26 C          -1.3015   -0.1875   -2.3714 C.ar    1  UNL1        0.1451
     27 F          -0.5918    0.4352   -3.3483 F       1  UNL1       -0.2035
     28 C           4.7324   -0.9526    0.3233 C.ar    1  UNL1       -0.0370
     29 C           5.8053   -0.3128    0.9423 C.ar    1  UNL1       -0.0182
     30 H           7.4324    1.3855    3.0666 H       1  UNL1        0.0660
     31 H           8.1167   -0.0685    2.2075 H       1  UNL1        0.0660
     32 H           9.0502    1.4650    2.2449 H       1  UNL1        0.0660
     33 H           6.3162    2.1951   -1.1997 H       1  UNL1        0.0655
     34 H           4.4113    1.0716   -2.3128 H       1  UNL1        0.0637
     35 H           3.3109   -1.8720   -2.1961 H       1  UNL1        0.1564
     36 H           0.9386   -2.2329   -2.6022 H       1  UNL1        0.1565
     37 H          -0.8851   -2.5683   -0.0490 H       1  UNL1        0.0637
     38 H          -3.1866   -2.0148    0.3954 H       1  UNL1        0.0625
     39 H          -7.6211   -0.0825   -2.4568 H       1  UNL1        0.1048
     40 H          -7.5857    1.4191    2.2824 H       1  UNL1        0.1668
     41 H          -5.2846    1.3694    3.4476 H       1  UNL1        0.0810
     42 H          -2.8267    1.2045    2.7150 H       1  UNL1        0.0278
     43 H          -2.4674    0.8615    1.0388 H       1  UNL1        0.0278
     44 H          -2.7763   -0.5063    2.1938 H       1  UNL1        0.0278
     45 H          -3.1523    0.8990   -2.6823 H       1  UNL1        0.0653
     46 H           4.3307   -1.8191    0.7848 H       1  UNL1        0.0637
     47 H           6.2075   -0.7069    1.8757 H       1  UNL1        0.0655
@<TRIPOS>BOND
     1     1     2    1
     2     2     3    1
     3     3     4   ar
     4     4     5   ar
     5     5     6   ar
     6     6     7    1
     7     7     8   am
     8     8     9    2
     9     8    10   am
    10    10    11    1
    11    11    12   ar
    12    12    13   ar
    13    13    14   ar
    14    14    15    1
    15    15    16   ar
    16    16    17   ar
    17    17    18   ar
    18    18    19   ar
    19    19    20   ar
    20    20    21   ar
    21    21    22   ar
    22    22    23    1
    23    22    24   ar
    24    14    25   ar
    25    25    26   ar
    26    26    27    1
    27     6    28   ar
    28    28    29   ar
    29    29     3   ar
    30    26    11   ar
    31    24    15   ar
    32    24    19   ar
    33     1    30    1
    34     1    31    1
    35     1    32    1
    36     4    33    1
    37     5    34    1
    38     7    35    1
    39    10    36    1
    40    12    37    1
    41    13    38    1
    42    17    39    1
    43    20    40    1
    44    21    41    1
    45    23    42    1
    46    23    43    1
    47    23    44    1
    48    25    45    1
    49    28    46    1
    50    29    47    1
