@<TRIPOS>MOLECULE
*****
 59 64 0 0 0
SMALL
GASTEIGER

@<TRIPOS>ATOM
      1 C          -2.4774    4.0425    0.4219 C.3     1  UNL1        0.0119
      2 N          -2.3453    2.6089    0.1105 N.ar    1  UNL1       -0.3491
      3 C          -2.0096    2.0605   -1.0546 C.ar    1  UNL1        0.0133
      4 C          -1.9929    0.6765   -0.9524 C.ar    1  UNL1        0.0131
      5 C          -1.7154   -0.3187   -1.9755 C.2     1  UNL1        0.0590
      6 C          -0.8543   -1.3130   -1.9179 C.2     1  UNL1        0.0592
      7 C           0.0421   -1.6651   -0.8257 C.ar    1  UNL1        0.0163
      8 C           0.9879   -0.8759   -0.2008 C.ar    1  UNL1        0.0279
      9 N           1.5677   -1.5836    0.7989 N.ar    1  UNL1       -0.3432
     10 C           1.0303   -2.8295    0.8527 C.ar    1  UNL1        0.0499
     11 C           1.2423   -3.9401    1.6530 C.ar    1  UNL1       -0.0376
     12 C           0.5523   -5.1242    1.5041 C.ar    1  UNL1       -0.0598
     13 C          -0.3990   -5.1499    0.4765 C.ar    1  UNL1       -0.0611
     14 C          -0.6230   -4.0522   -0.3299 C.ar    1  UNL1       -0.0520
     15 C           0.0888   -2.8845   -0.1490 C.ar    1  UNL1        0.0080
     16 C           2.6012   -1.0727    1.6735 C.3     1  UNL1        0.0238
     17 C           3.0852    0.2836    1.3121 C.3     1  UNL1       -0.0317
     18 C           1.9283    1.1210    0.8150 C.3     1  UNL1       -0.0329
     19 C           2.3543    2.5628    0.5943 C.3     1  UNL1       -0.0374
     20 C           3.4652    2.6530   -0.4270 C.3     1  UNL1       -0.0066
     21 N           3.8212    4.0498   -0.5850 N.3     1  UNL1       -0.3300
     22 C           1.4657    0.4900   -0.4753 C.3     1  UNL1       -0.0088
     23 C          -0.9129   -2.0775   -3.1974 C.2     1  UNL1        0.2519
     24 O          -0.1978   -3.0901   -3.4366 O.2     1  UNL1       -0.2697
     25 N          -1.8695   -1.4697   -4.0233 N.am    1  UNL1       -0.2483
     26 C          -2.3837   -0.3817   -3.3002 C.2     1  UNL1        0.2519
     27 O          -3.2551    0.4243   -3.6649 O.2     1  UNL1       -0.2697
     28 C          -2.3399    0.3975    0.3466 C.ar    1  UNL1        0.0077
     29 C          -2.5247   -0.7366    1.1019 C.ar    1  UNL1       -0.0520
     30 C          -2.9059   -0.6888    2.4489 C.ar    1  UNL1       -0.0611
     31 C          -3.1075    0.5237    3.0538 C.ar    1  UNL1       -0.0598
     32 C          -2.9288    1.6839    2.3129 C.ar    1  UNL1       -0.0376
     33 C          -2.5551    1.6187    0.9934 C.ar    1  UNL1        0.0494
     34 H          -1.6945    4.3965    1.0954 H       1  UNL1        0.0456
     35 H          -3.4909    4.2041    0.8766 H       1  UNL1        0.0456
     36 H          -2.5061    4.5901   -0.5409 H       1  UNL1        0.0456
     37 H          -1.7761    2.5969   -1.9700 H       1  UNL1        0.0815
     38 H           1.9837   -3.9073    2.4469 H       1  UNL1        0.0638
     39 H           0.7049   -5.9981    2.1212 H       1  UNL1        0.0618
     40 H          -0.9346   -6.0834    0.3670 H       1  UNL1        0.0618
     41 H          -1.3635   -4.0865   -1.1204 H       1  UNL1        0.0624
     42 H           2.2493   -1.1136    2.7488 H       1  UNL1        0.0492
     43 H           3.4824   -1.7836    1.6652 H       1  UNL1        0.0492
     44 H           3.5673    0.7741    2.1870 H       1  UNL1        0.0285
     45 H           3.7856    0.1869    0.4397 H       1  UNL1        0.0285
     46 H           1.1093    1.1247    1.5469 H       1  UNL1        0.0305
     47 H           2.7113    3.0228    1.5323 H       1  UNL1        0.0280
     48 H           1.4627    3.1131    0.2452 H       1  UNL1        0.0280
     49 H           3.2026    2.2625   -1.4081 H       1  UNL1        0.0422
     50 H           4.3661    2.1530    0.0163 H       1  UNL1        0.0422
     51 H           4.0260    4.2959   -1.5822 H       1  UNL1        0.1182
     52 H           3.1614    4.6817   -0.1200 H       1  UNL1        0.1182
     53 H           0.7518    1.1588   -0.9598 H       1  UNL1        0.0330
     54 H           2.3912    0.4295   -1.1169 H       1  UNL1        0.0330
     55 H          -2.0963   -1.8205   -4.9809 H       1  UNL1        0.1581
     56 H          -2.3862   -1.6887    0.6488 H       1  UNL1        0.0624
     57 H          -3.0365   -1.6177    2.9936 H       1  UNL1        0.0618
     58 H          -3.4029    0.5560    4.0955 H       1  UNL1        0.0618
     59 H          -3.1026    2.6100    2.8419 H       1  UNL1        0.0638
@<TRIPOS>BOND
     1     1     2    1
     2     2     3   ar
     3     3     4   ar
     4     4     5    1
     5     5     6    2
     6     6     7    1
     7     7     8   ar
     8     8     9   ar
     9     9    10   ar
    10    10    11   ar
    11    11    12   ar
    12    12    13   ar
    13    13    14   ar
    14    14    15   ar
    15     9    16    1
    16    16    17    1
    17    17    18    1
    18    18    19    1
    19    19    20    1
    20    20    21    1
    21    18    22    1
    22     6    23    1
    23    23    24    2
    24    23    25   am
    25    25    26   am
    26    26    27    2
    27     4    28   ar
    28    28    29   ar
    29    29    30   ar
    30    30    31   ar
    31    31    32   ar
    32    32    33   ar
    33    33     2   ar
    34    26     5    1
    35    33    28   ar
    36    15     7   ar
    37    22     8    1
    38    15    10   ar
    39     1    34    1
    40     1    35    1
    41     1    36    1
    42     3    37    1
    43    11    38    1
    44    12    39    1
    45    13    40    1
    46    14    41    1
    47    16    42    1
    48    16    43    1
    49    17    44    1
    50    17    45    1
    51    18    46    1
    52    19    47    1
    53    19    48    1
    54    20    49    1
    55    20    50    1
    56    21    51    1
    57    21    52    1
    58    22    53    1
    59    22    54    1
    60    25    55    1
    61    29    56    1
    62    30    57    1
    63    31    58    1
    64    32    59    1
