
     RDKit          3D

 59 64  0  0  0  0  0  0  0  0999 V2000
   -2.4774    4.0425    0.4219 C   0  0  0  0  0  0  0  0  0  0  0  0
   -2.3453    2.6089    0.1105 N   0  0  0  0  0  0  0  0  0  0  0  0
   -2.0096    2.0605   -1.0546 C   0  0  0  0  0  0  0  0  0  0  0  0
   -1.9929    0.6765   -0.9524 C   0  0  0  0  0  0  0  0  0  0  0  0
   -1.7154   -0.3187   -1.9755 C   0  0  0  0  0  0  0  0  0  0  0  0
   -0.8543   -1.3130   -1.9179 C   0  0  0  0  0  0  0  0  0  0  0  0
    0.0421   -1.6651   -0.8257 C   0  0  0  0  0  0  0  0  0  0  0  0
    0.9879   -0.8759   -0.2008 C   0  0  0  0  0  0  0  0  0  0  0  0
    1.5677   -1.5836    0.7989 N   0  0  0  0  0  0  0  0  0  0  0  0
    1.0303   -2.8295    0.8527 C   0  0  0  0  0  0  0  0  0  0  0  0
    1.2423   -3.9401    1.6530 C   0  0  0  0  0  0  0  0  0  0  0  0
    0.5523   -5.1242    1.5041 C   0  0  0  0  0  0  0  0  0  0  0  0
   -0.3990   -5.1499    0.4765 C   0  0  0  0  0  0  0  0  0  0  0  0
   -0.6230   -4.0522   -0.3299 C   0  0  0  0  0  0  0  0  0  0  0  0
    0.0888   -2.8845   -0.1490 C   0  0  0  0  0  0  0  0  0  0  0  0
    2.6012   -1.0727    1.6735 C   0  0  0  0  0  0  0  0  0  0  0  0
    3.0852    0.2836    1.3121 C   0  0  0  0  0  0  0  0  0  0  0  0
    1.9283    1.1210    0.8150 C   0  0  0  0  0  0  0  0  0  0  0  0
    2.3543    2.5628    0.5943 C   0  0  0  0  0  0  0  0  0  0  0  0
    3.4652    2.6530   -0.4270 C   0  0  0  0  0  0  0  0  0  0  0  0
    3.8212    4.0498   -0.5850 N   0  0  0  0  0  0  0  0  0  0  0  0
    1.4657    0.4900   -0.4753 C   0  0  0  0  0  0  0  0  0  0  0  0
   -0.9129   -2.0775   -3.1974 C   0  0  0  0  0  0  0  0  0  0  0  0
   -0.1978   -3.0901   -3.4366 O   0  0  0  0  0  0  0  0  0  0  0  0
   -1.8695   -1.4697   -4.0233 N   0  0  0  0  0  0  0  0  0  0  0  0
   -2.3837   -0.3817   -3.3002 C   0  0  0  0  0  0  0  0  0  0  0  0
   -3.2551    0.4243   -3.6649 O   0  0  0  0  0  0  0  0  0  0  0  0
   -2.3399    0.3975    0.3466 C   0  0  0  0  0  0  0  0  0  0  0  0
   -2.5247   -0.7366    1.1019 C   0  0  0  0  0  0  0  0  0  0  0  0
   -2.9059   -0.6888    2.4489 C   0  0  0  0  0  0  0  0  0  0  0  0
   -3.1075    0.5237    3.0538 C   0  0  0  0  0  0  0  0  0  0  0  0
   -2.9288    1.6839    2.3129 C   0  0  0  0  0  0  0  0  0  0  0  0
   -2.5551    1.6187    0.9934 C   0  0  0  0  0  0  0  0  0  0  0  0
   -1.6945    4.3965    1.0954 H   0  0  0  0  0  0  0  0  0  0  0  0
   -3.4909    4.2041    0.8766 H   0  0  0  0  0  0  0  0  0  0  0  0
   -2.5061    4.5901   -0.5409 H   0  0  0  0  0  0  0  0  0  0  0  0
   -1.7761    2.5969   -1.9700 H   0  0  0  0  0  0  0  0  0  0  0  0
    1.9837   -3.9073    2.4469 H   0  0  0  0  0  0  0  0  0  0  0  0
    0.7049   -5.9981    2.1212 H   0  0  0  0  0  0  0  0  0  0  0  0
   -0.9346   -6.0834    0.3670 H   0  0  0  0  0  0  0  0  0  0  0  0
   -1.3635   -4.0865   -1.1204 H   0  0  0  0  0  0  0  0  0  0  0  0
    2.2493   -1.1136    2.7488 H   0  0  0  0  0  0  0  0  0  0  0  0
    3.4824   -1.7836    1.6652 H   0  0  0  0  0  0  0  0  0  0  0  0
    3.5673    0.7741    2.1870 H   0  0  0  0  0  0  0  0  0  0  0  0
    3.7856    0.1869    0.4397 H   0  0  0  0  0  0  0  0  0  0  0  0
    1.1093    1.1247    1.5469 H   0  0  0  0  0  0  0  0  0  0  0  0
    2.7113    3.0228    1.5323 H   0  0  0  0  0  0  0  0  0  0  0  0
    1.4627    3.1131    0.2452 H   0  0  0  0  0  0  0  0  0  0  0  0
    3.2026    2.2625   -1.4081 H   0  0  0  0  0  0  0  0  0  0  0  0
    4.3661    2.1530    0.0163 H   0  0  0  0  0  0  0  0  0  0  0  0
    4.0260    4.2959   -1.5822 H   0  0  0  0  0  0  0  0  0  0  0  0
    3.1614    4.6817   -0.1200 H   0  0  0  0  0  0  0  0  0  0  0  0
    0.7518    1.1588   -0.9598 H   0  0  0  0  0  0  0  0  0  0  0  0
    2.3912    0.4295   -1.1169 H   0  0  0  0  0  0  0  0  0  0  0  0
   -2.0963   -1.8205   -4.9809 H   0  0  0  0  0  0  0  0  0  0  0  0
   -2.3862   -1.6887    0.6488 H   0  0  0  0  0  0  0  0  0  0  0  0
   -3.0365   -1.6177    2.9936 H   0  0  0  0  0  0  0  0  0  0  0  0
   -3.4029    0.5560    4.0955 H   0  0  0  0  0  0  0  0  0  0  0  0
   -3.1026    2.6100    2.8419 H   0  0  0  0  0  0  0  0  0  0  0  0
  1  2  1  0
  2  3  1  0
  3  4  2  0
  4  5  1  0
  5  6  2  0
  6  7  1  0
  7  8  2  0
  8  9  1  0
  9 10  1  0
 10 11  2  0
 11 12  1  0
 12 13  2  0
 13 14  1  0
 14 15  2  0
  9 16  1  0
 16 17  1  0
 17 18  1  0
 18 19  1  0
 19 20  1  0
 20 21  1  0
 18 22  1  0
  6 23  1  0
 23 24  2  0
 23 25  1  0
 25 26  1  0
 26 27  2  0
  4 28  1  0
 28 29  2  0
 29 30  1  0
 30 31  2  0
 31 32  1  0
 32 33  2  0
 33  2  1  0
 26  5  1  0
 33 28  1  0
 15  7  1  0
 22  8  1  0
 15 10  1  0
  1 34  1  0
  1 35  1  0
  1 36  1  0
  3 37  1  0
 11 38  1  0
 12 39  1  0
 13 40  1  0
 14 41  1  0
 16 42  1  0
 16 43  1  0
 17 44  1  0
 17 45  1  0
 18 46  1  0
 19 47  1  0
 19 48  1  0
 20 49  1  0
 20 50  1  0
 21 51  1  0
 21 52  1  0
 22 53  1  0
 22 54  1  0
 25 55  1  0
 29 56  1  0
 30 57  1  0
 31 58  1  0
 32 59  1  0
M  END
$$$$
