
     RDKit          3D

 57 59  0  0  0  0  0  0  0  0999 V2000
   -4.3456    2.9598   -1.5044 C   0  0  0  0  0  0  0  0  0  0  0  0
   -3.7895    2.1878   -0.3309 C   0  0  0  0  0  0  0  0  0  0  0  0
   -2.6624    1.3611   -0.7097 C   0  0  0  0  0  0  0  0  0  0  0  0
   -3.0326    1.9450   -1.7461 O   0  0  0  0  0  0  0  0  0  0  0  0
   -1.7707    0.4732   -0.1402 N   0  0  0  0  0  0  0  0  0  0  0  0
   -2.2831    0.5823    1.2130 C   0  0  0  0  0  0  0  0  0  0  0  0
   -3.2254   -0.4147    1.4959 C   0  0  0  0  0  0  0  0  0  0  0  0
   -3.8792   -0.5229    2.7261 C   0  0  0  0  0  0  0  0  0  0  0  0
   -3.5760    0.3973    3.6968 C   0  0  0  0  0  0  0  0  0  0  0  0
   -2.6589    1.3679    3.4219 C   0  0  0  0  0  0  0  0  0  0  0  0
   -1.9950    1.5068    2.2242 C   0  0  0  0  0  0  0  0  0  0  0  0
   -0.6958   -0.4378   -0.2624 C   0  0  0  0  0  0  0  0  0  0  0  0
   -0.9043   -1.7037   -1.0271 C   0  0  0  0  0  0  0  0  0  0  0  0
   -1.1272   -1.7342   -2.3151 O   0  0  0  0  0  0  0  0  0  0  0  0
   -2.0890   -1.2068   -3.0445 C   0  0  0  0  0  0  0  0  0  0  0  0
   -0.1257   -0.7913    1.0998 C   0  0  0  0  0  0  0  0  0  0  0  0
    1.1906   -1.4587    1.0417 C   0  0  0  0  0  0  0  0  0  0  0  0
    2.1274   -0.9171    0.0976 N   0  0  0  0  0  0  0  0  0  0  0  0
    3.1558   -1.9175   -0.1009 C   0  0  0  0  0  0  0  0  0  0  0  0
    4.2779   -1.5124   -0.9903 C   0  0  0  0  0  0  0  0  0  0  0  0
    5.0545   -0.3727   -0.5699 C   0  0  0  0  0  0  0  0  0  0  0  0
    6.1620   -0.4191    0.2201 C   0  0  0  0  0  0  0  0  0  0  0  0
    6.8737    0.6768    0.5992 C   0  0  0  0  0  0  0  0  0  0  0  0
    6.3029    1.9340    0.0514 C   0  0  0  0  0  0  0  0  0  0  0  0
    4.8044    1.3678   -0.9456 S   0  0  0  0  0  0  0  0  0  0  0  0
    1.5487   -0.6403   -1.1946 C   0  0  0  0  0  0  0  0  0  0  0  0
    0.4204    0.3053   -1.0623 C   0  0  0  0  0  0  0  0  0  0  0  0
   -3.6383    3.7037   -1.9236 H   0  0  0  0  0  0  0  0  0  0  0  0
   -5.1630    3.5949   -1.0399 H   0  0  0  0  0  0  0  0  0  0  0  0
   -4.8003    2.2990   -2.2777 H   0  0  0  0  0  0  0  0  0  0  0  0
   -4.6070    1.5342    0.0934 H   0  0  0  0  0  0  0  0  0  0  0  0
   -3.5298    2.9800    0.4335 H   0  0  0  0  0  0  0  0  0  0  0  0
   -3.5241   -1.1788    0.7901 H   0  0  0  0  0  0  0  0  0  0  0  0
   -4.6021   -1.2976    2.9269 H   0  0  0  0  0  0  0  0  0  0  0  0
   -4.0462    0.3764    4.6811 H   0  0  0  0  0  0  0  0  0  0  0  0
   -2.3783    2.1270    4.1575 H   0  0  0  0  0  0  0  0  0  0  0  0
   -1.2704    2.2128    1.8933 H   0  0  0  0  0  0  0  0  0  0  0  0
   -0.0251   -2.3832   -0.7220 H   0  0  0  0  0  0  0  0  0  0  0  0
   -1.7500   -2.3075   -0.5013 H   0  0  0  0  0  0  0  0  0  0  0  0
   -2.0968   -0.1178   -3.0253 H   0  0  0  0  0  0  0  0  0  0  0  0
   -3.1206   -1.6272   -2.8656 H   0  0  0  0  0  0  0  0  0  0  0  0
   -1.8832   -1.4648   -4.1384 H   0  0  0  0  0  0  0  0  0  0  0  0
   -0.8692   -1.4493    1.5882 H   0  0  0  0  0  0  0  0  0  0  0  0
   -0.0865    0.1487    1.6866 H   0  0  0  0  0  0  0  0  0  0  0  0
    1.1258   -2.5538    0.9258 H   0  0  0  0  0  0  0  0  0  0  0  0
    1.6770   -1.3251    2.0521 H   0  0  0  0  0  0  0  0  0  0  0  0
    2.7160   -2.8798   -0.4873 H   0  0  0  0  0  0  0  0  0  0  0  0
    3.6158   -2.2189    0.8787 H   0  0  0  0  0  0  0  0  0  0  0  0
    3.9191   -1.3364   -2.0219 H   0  0  0  0  0  0  0  0  0  0  0  0
    4.9722   -2.4014   -1.1083 H   0  0  0  0  0  0  0  0  0  0  0  0
    6.5700   -1.3651    0.6169 H   0  0  0  0  0  0  0  0  0  0  0  0
    7.7480    0.8027    1.2042 H   0  0  0  0  0  0  0  0  0  0  0  0
    6.8155    2.9899    0.2946 H   0  0  0  0  0  0  0  0  0  0  0  0
    1.3876   -1.5484   -1.7753 H   0  0  0  0  0  0  0  0  0  0  0  0
    2.3627   -0.0943   -1.7572 H   0  0  0  0  0  0  0  0  0  0  0  0
    0.7632    1.1824   -0.4918 H   0  0  0  0  0  0  0  0  0  0  0  0
   -0.0399    0.5818   -2.0310 H   0  0  0  0  0  0  0  0  0  0  0  0
  1  2  1  0
  2  3  1  0
  3  4  2  0
  3  5  1  0
  5  6  1  0
  6  7  2  0
  7  8  1  0
  8  9  2  0
  9 10  1  0
 10 11  2  0
  5 12  1  0
 12 13  1  0
 13 14  1  0
 14 15  1  0
 12 16  1  0
 16 17  1  0
 17 18  1  0
 18 19  1  0
 19 20  1  0
 20 21  1  0
 21 22  2  0
 22 23  1  0
 23 24  2  0
 24 25  1  0
 18 26  1  0
 26 27  1  0
 11  6  1  0
 27 12  1  0
 25 21  1  0
  1 28  1  0
  1 29  1  0
  1 30  1  0
  2 31  1  0
  2 32  1  0
  7 33  1  0
  8 34  1  0
  9 35  1  0
 10 36  1  0
 11 37  1  0
 13 38  1  0
 13 39  1  0
 15 40  1  0
 15 41  1  0
 15 42  1  0
 16 43  1  0
 16 44  1  0
 17 45  1  0
 17 46  1  0
 19 47  1  0
 19 48  1  0
 20 49  1  0
 20 50  1  0
 22 51  1  0
 23 52  1  0
 24 53  1  0
 26 54  1  0
 26 55  1  0
 27 56  1  0
 27 57  1  0
M  END
$$$$
