@<TRIPOS>MOLECULE
*****
 57 59 0 0 0
SMALL
GASTEIGER

@<TRIPOS>ATOM
      1 C          -4.3456    2.9598   -1.5044 C.3     1  UNL1       -0.0570
      2 C          -3.7895    2.1878   -0.3309 C.3     1  UNL1        0.0217
      3 C          -2.6624    1.3611   -0.7097 C.2     1  UNL1        0.2201
      4 O          -3.0326    1.9450   -1.7461 O.2     1  UNL1       -0.2752
      5 N          -1.7707    0.4732   -0.1402 N.am    1  UNL1       -0.2630
      6 C          -2.2831    0.5823    1.2130 C.ar    1  UNL1        0.0370
      7 C          -3.2254   -0.4147    1.4959 C.ar    1  UNL1       -0.0402
      8 C          -3.8792   -0.5229    2.7261 C.ar    1  UNL1       -0.0600
      9 C          -3.5760    0.3973    3.6968 C.ar    1  UNL1       -0.0616
     10 C          -2.6589    1.3679    3.4219 C.ar    1  UNL1       -0.0600
     11 C          -1.9950    1.5068    2.2242 C.ar    1  UNL1       -0.0402
     12 C          -0.6958   -0.4378   -0.2624 C.3     1  UNL1        0.0677
     13 C          -0.9043   -1.7037   -1.0271 C.3     1  UNL1        0.0691
     14 O          -1.1272   -1.7342   -2.3151 O.3     1  UNL1       -0.3808
     15 C          -2.0890   -1.2068   -3.0445 C.3     1  UNL1        0.0365
     16 C          -0.1257   -0.7913    1.0998 C.3     1  UNL1       -0.0160
     17 C           1.1906   -1.4587    1.0417 C.3     1  UNL1        0.0009
     18 N           2.1274   -0.9171    0.0976 N.3     1  UNL1       -0.3018
     19 C           3.1558   -1.9175   -0.1009 C.3     1  UNL1        0.0034
     20 C           4.2779   -1.5124   -0.9903 C.3     1  UNL1       -0.0086
     21 C           5.0545   -0.3727   -0.5699 C.ar    1  UNL1       -0.0090
     22 C           6.1620   -0.4191    0.2201 C.ar    1  UNL1       -0.0515
     23 C           6.8737    0.6768    0.5992 C.ar    1  UNL1       -0.0545
     24 C           6.3029    1.9340    0.0514 C.ar    1  UNL1       -0.0241
     25 S           4.8044    1.3678   -0.9456 S.2     1  UNL1       -0.1016
     26 C           1.5487   -0.6403   -1.1946 C.3     1  UNL1        0.0009
     27 C           0.4204    0.3053   -1.0623 C.3     1  UNL1       -0.0160
     28 H          -3.6383    3.7037   -1.9236 H       1  UNL1        0.0234
     29 H          -5.1630    3.5949   -1.0399 H       1  UNL1        0.0234
     30 H          -4.8003    2.2990   -2.2777 H       1  UNL1        0.0234
     31 H          -4.6070    1.5342    0.0934 H       1  UNL1        0.0356
     32 H          -3.5298    2.9800    0.4335 H       1  UNL1        0.0356
     33 H          -3.5241   -1.1788    0.7901 H       1  UNL1        0.0636
     34 H          -4.6021   -1.2976    2.9269 H       1  UNL1        0.0618
     35 H          -4.0462    0.3764    4.6811 H       1  UNL1        0.0618
     36 H          -2.3783    2.1270    4.1575 H       1  UNL1        0.0618
     37 H          -1.2704    2.2128    1.8933 H       1  UNL1        0.0636
     38 H          -0.0251   -2.3832   -0.7220 H       1  UNL1        0.0581
     39 H          -1.7500   -2.3075   -0.5013 H       1  UNL1        0.0581
     40 H          -2.0968   -0.1178   -3.0253 H       1  UNL1        0.0523
     41 H          -3.1206   -1.6272   -2.8656 H       1  UNL1        0.0523
     42 H          -1.8832   -1.4648   -4.1384 H       1  UNL1        0.0523
     43 H          -0.8692   -1.4493    1.5882 H       1  UNL1        0.0299
     44 H          -0.0865    0.1487    1.6866 H       1  UNL1        0.0299
     45 H           1.1258   -2.5538    0.9258 H       1  UNL1        0.0427
     46 H           1.6770   -1.3251    2.0521 H       1  UNL1        0.0427
     47 H           2.7160   -2.8798   -0.4873 H       1  UNL1        0.0430
     48 H           3.6158   -2.2189    0.8787 H       1  UNL1        0.0430
     49 H           3.9191   -1.3364   -2.0219 H       1  UNL1        0.0331
     50 H           4.9722   -2.4014   -1.1083 H       1  UNL1        0.0331
     51 H           6.5700   -1.3651    0.6169 H       1  UNL1        0.0626
     52 H           7.7480    0.8027    1.2042 H       1  UNL1        0.0623
     53 H           6.8155    2.9899    0.2946 H       1  UNL1        0.0693
     54 H           1.3876   -1.5484   -1.7753 H       1  UNL1        0.0427
     55 H           2.3627   -0.0943   -1.7572 H       1  UNL1        0.0427
     56 H           0.7632    1.1824   -0.4918 H       1  UNL1        0.0299
     57 H          -0.0399    0.5818   -2.0310 H       1  UNL1        0.0299
@<TRIPOS>BOND
     1     1     2    1
     2     2     3    1
     3     3     4    2
     4     3     5   am
     5     5     6    1
     6     6     7   ar
     7     7     8   ar
     8     8     9   ar
     9     9    10   ar
    10    10    11   ar
    11     5    12    1
    12    12    13    1
    13    13    14    1
    14    14    15    1
    15    12    16    1
    16    16    17    1
    17    17    18    1
    18    18    19    1
    19    19    20    1
    20    20    21    1
    21    21    22   ar
    22    22    23   ar
    23    23    24   ar
    24    24    25   ar
    25    18    26    1
    26    26    27    1
    27    11     6   ar
    28    27    12    1
    29    25    21   ar
    30     1    28    1
    31     1    29    1
    32     1    30    1
    33     2    31    1
    34     2    32    1
    35     7    33    1
    36     8    34    1
    37     9    35    1
    38    10    36    1
    39    11    37    1
    40    13    38    1
    41    13    39    1
    42    15    40    1
    43    15    41    1
    44    15    42    1
    45    16    43    1
    46    16    44    1
    47    17    45    1
    48    17    46    1
    49    19    47    1
    50    19    48    1
    51    20    49    1
    52    20    50    1
    53    22    51    1
    54    23    52    1
    55    24    53    1
    56    26    54    1
    57    26    55    1
    58    27    56    1
    59    27    57    1
