@<TRIPOS>MOLECULE
*****
 49 52 0 0 0
SMALL
GASTEIGER

@<TRIPOS>ATOM
      1 N           6.1650    0.1198    3.6060 N.1     1  UNL1       -0.1946
      2 C           6.1308   -0.1976    2.5160 C.1     1  UNL1        0.0851
      3 C           6.1062   -0.6142    1.1064 C.3     1  UNL1        0.1129
      4 C           7.3786   -0.2262    0.4257 C.3     1  UNL1       -0.0196
      5 C           7.0475    0.9368   -0.4525 C.3     1  UNL1       -0.0345
      6 C           5.6172    1.2882   -0.0718 C.3     1  UNL1        0.0161
      7 N           5.0652    0.0128    0.3545 N.am    1  UNL1       -0.2844
      8 C           3.7833   -0.5003    0.0748 C.2     1  UNL1        0.2337
      9 O           3.3903   -1.6280    0.5063 O.2     1  UNL1       -0.2738
     10 C           2.8135    0.2662   -0.7545 C.3     1  UNL1        0.0886
     11 N           1.5699   -0.4354   -0.9214 N.am    1  UNL1       -0.3027
     12 C           0.7350   -0.8033    0.1707 C.2     1  UNL1        0.2451
     13 O           1.1237   -0.4861    1.3132 O.2     1  UNL1       -0.2702
     14 C          -0.5047   -1.5188   -0.1063 C.ar    1  UNL1        0.0473
     15 C          -0.4011   -2.8738   -0.4426 C.ar    1  UNL1       -0.0309
     16 C          -1.5569   -3.5741   -0.7082 C.ar    1  UNL1        0.0290
     17 N          -2.7579   -2.9566   -0.6434 N.ar    1  UNL1       -0.2549
     18 C          -2.8842   -1.6468   -0.3200 C.ar    1  UNL1        0.0723
     19 C          -4.1424   -1.0448   -0.2629 C.ar    1  UNL1       -0.0280
     20 C          -4.2795    0.3049    0.0691 C.ar    1  UNL1       -0.0158
     21 C          -5.5956    0.9327    0.1354 C.ar    1  UNL1       -0.0178
     22 C          -6.5777    0.4624   -0.7179 C.ar    1  UNL1       -0.0540
     23 C          -7.8713    0.9787   -0.7389 C.ar    1  UNL1       -0.0612
     24 C          -8.1715    2.0057    0.1368 C.ar    1  UNL1       -0.0617
     25 C          -7.1931    2.4707    0.9826 C.ar    1  UNL1       -0.0612
     26 C          -5.9065    1.9501    0.9965 C.ar    1  UNL1       -0.0540
     27 C          -3.1284    1.0042    0.3339 C.ar    1  UNL1       -0.0533
     28 C          -1.8578    0.4178    0.2820 C.ar    1  UNL1       -0.0513
     29 C          -1.7458   -0.9249   -0.0500 C.ar    1  UNL1        0.0125
     30 H           6.0519   -1.7350    1.0516 H       1  UNL1        0.0659
     31 H           8.0957    0.1601    1.1998 H       1  UNL1        0.0294
     32 H           7.8389   -1.0748   -0.1372 H       1  UNL1        0.0294
     33 H           7.0228    0.5468   -1.5146 H       1  UNL1        0.0281
     34 H           7.7339    1.7953   -0.3795 H       1  UNL1        0.0281
     35 H           5.6945    2.0052    0.7606 H       1  UNL1        0.0465
     36 H           5.0457    1.7573   -0.8836 H       1  UNL1        0.0465
     37 H           3.2032    0.5606   -1.7260 H       1  UNL1        0.0558
     38 H           2.5622    1.2206   -0.2125 H       1  UNL1        0.0558
     39 H           1.2701   -0.6858   -1.8935 H       1  UNL1        0.1495
     40 H           0.5541   -3.3686   -0.4962 H       1  UNL1        0.0640
     41 H          -1.4658   -4.6342   -0.9690 H       1  UNL1        0.0830
     42 H          -5.0302   -1.6077   -0.4721 H       1  UNL1        0.0645
     43 H          -6.3421   -0.3451   -1.4067 H       1  UNL1        0.0624
     44 H          -8.6430    0.6216   -1.4004 H       1  UNL1        0.0618
     45 H          -9.1574    2.4379    0.1558 H       1  UNL1        0.0618
     46 H          -7.4615    3.2768    1.6583 H       1  UNL1        0.0618
     47 H          -5.1636    2.3331    1.6648 H       1  UNL1        0.0624
     48 H          -3.2062    2.0543    0.5933 H       1  UNL1        0.0624
     49 H          -0.9551    0.9618    0.4888 H       1  UNL1        0.0624
@<TRIPOS>BOND
     1     1     2    3
     2     2     3    1
     3     3     4    1
     4     4     5    1
     5     5     6    1
     6     6     7    1
     7     7     8   am
     8     8     9    2
     9     8    10    1
    10    10    11    1
    11    11    12   am
    12    12    13    2
    13    12    14    1
    14    14    15   ar
    15    15    16   ar
    16    16    17   ar
    17    17    18   ar
    18    18    19   ar
    19    19    20   ar
    20    20    21    1
    21    21    22   ar
    22    22    23   ar
    23    23    24   ar
    24    24    25   ar
    25    25    26   ar
    26    20    27   ar
    27    27    28   ar
    28    28    29   ar
    29     7     3    1
    30    29    14   ar
    31    29    18   ar
    32    26    21   ar
    33     3    30    1
    34     4    31    1
    35     4    32    1
    36     5    33    1
    37     5    34    1
    38     6    35    1
    39     6    36    1
    40    10    37    1
    41    10    38    1
    42    11    39    1
    43    15    40    1
    44    16    41    1
    45    19    42    1
    46    22    43    1
    47    23    44    1
    48    24    45    1
    49    25    46    1
    50    26    47    1
    51    27    48    1
    52    28    49    1
