
     RDKit          3D

 49 52  0  0  0  0  0  0  0  0999 V2000
    6.1650    0.1198    3.6060 N   0  0  0  0  0  0  0  0  0  0  0  0
    6.1308   -0.1976    2.5160 C   0  0  0  0  0  0  0  0  0  0  0  0
    6.1062   -0.6142    1.1064 C   0  0  2  0  0  0  0  0  0  0  0  0
    7.3786   -0.2262    0.4257 C   0  0  0  0  0  0  0  0  0  0  0  0
    7.0475    0.9368   -0.4525 C   0  0  0  0  0  0  0  0  0  0  0  0
    5.6172    1.2882   -0.0718 C   0  0  0  0  0  0  0  0  0  0  0  0
    5.0652    0.0128    0.3545 N   0  0  0  0  0  0  0  0  0  0  0  0
    3.7833   -0.5003    0.0748 C   0  0  0  0  0  0  0  0  0  0  0  0
    3.3903   -1.6280    0.5063 O   0  0  0  0  0  0  0  0  0  0  0  0
    2.8135    0.2662   -0.7545 C   0  0  0  0  0  0  0  0  0  0  0  0
    1.5699   -0.4354   -0.9214 N   0  0  0  0  0  0  0  0  0  0  0  0
    0.7350   -0.8033    0.1707 C   0  0  0  0  0  0  0  0  0  0  0  0
    1.1237   -0.4861    1.3132 O   0  0  0  0  0  0  0  0  0  0  0  0
   -0.5047   -1.5188   -0.1063 C   0  0  0  0  0  0  0  0  0  0  0  0
   -0.4011   -2.8738   -0.4426 C   0  0  0  0  0  0  0  0  0  0  0  0
   -1.5569   -3.5741   -0.7082 C   0  0  0  0  0  0  0  0  0  0  0  0
   -2.7579   -2.9566   -0.6434 N   0  0  0  0  0  0  0  0  0  0  0  0
   -2.8842   -1.6468   -0.3200 C   0  0  0  0  0  0  0  0  0  0  0  0
   -4.1424   -1.0448   -0.2629 C   0  0  0  0  0  0  0  0  0  0  0  0
   -4.2795    0.3049    0.0691 C   0  0  0  0  0  0  0  0  0  0  0  0
   -5.5956    0.9327    0.1354 C   0  0  0  0  0  0  0  0  0  0  0  0
   -6.5777    0.4624   -0.7179 C   0  0  0  0  0  0  0  0  0  0  0  0
   -7.8713    0.9787   -0.7389 C   0  0  0  0  0  0  0  0  0  0  0  0
   -8.1715    2.0057    0.1368 C   0  0  0  0  0  0  0  0  0  0  0  0
   -7.1931    2.4707    0.9826 C   0  0  0  0  0  0  0  0  0  0  0  0
   -5.9065    1.9501    0.9965 C   0  0  0  0  0  0  0  0  0  0  0  0
   -3.1284    1.0042    0.3339 C   0  0  0  0  0  0  0  0  0  0  0  0
   -1.8578    0.4178    0.2820 C   0  0  0  0  0  0  0  0  0  0  0  0
   -1.7458   -0.9249   -0.0500 C   0  0  0  0  0  0  0  0  0  0  0  0
    6.0519   -1.7350    1.0516 H   0  0  0  0  0  0  0  0  0  0  0  0
    8.0957    0.1601    1.1998 H   0  0  0  0  0  0  0  0  0  0  0  0
    7.8389   -1.0748   -0.1372 H   0  0  0  0  0  0  0  0  0  0  0  0
    7.0228    0.5468   -1.5146 H   0  0  0  0  0  0  0  0  0  0  0  0
    7.7339    1.7953   -0.3795 H   0  0  0  0  0  0  0  0  0  0  0  0
    5.6945    2.0052    0.7606 H   0  0  0  0  0  0  0  0  0  0  0  0
    5.0457    1.7573   -0.8836 H   0  0  0  0  0  0  0  0  0  0  0  0
    3.2032    0.5606   -1.7260 H   0  0  0  0  0  0  0  0  0  0  0  0
    2.5622    1.2206   -0.2125 H   0  0  0  0  0  0  0  0  0  0  0  0
    1.2701   -0.6858   -1.8935 H   0  0  0  0  0  0  0  0  0  0  0  0
    0.5541   -3.3686   -0.4962 H   0  0  0  0  0  0  0  0  0  0  0  0
   -1.4658   -4.6342   -0.9690 H   0  0  0  0  0  0  0  0  0  0  0  0
   -5.0302   -1.6077   -0.4721 H   0  0  0  0  0  0  0  0  0  0  0  0
   -6.3421   -0.3451   -1.4067 H   0  0  0  0  0  0  0  0  0  0  0  0
   -8.6430    0.6216   -1.4004 H   0  0  0  0  0  0  0  0  0  0  0  0
   -9.1574    2.4379    0.1558 H   0  0  0  0  0  0  0  0  0  0  0  0
   -7.4615    3.2768    1.6583 H   0  0  0  0  0  0  0  0  0  0  0  0
   -5.1636    2.3331    1.6648 H   0  0  0  0  0  0  0  0  0  0  0  0
   -3.2062    2.0543    0.5933 H   0  0  0  0  0  0  0  0  0  0  0  0
   -0.9551    0.9618    0.4888 H   0  0  0  0  0  0  0  0  0  0  0  0
  1  2  3  0
  2  3  1  0
  3  4  1  0
  4  5  1  0
  5  6  1  0
  6  7  1  0
  7  8  1  0
  8  9  2  0
  8 10  1  0
 10 11  1  0
 11 12  1  0
 12 13  2  0
 12 14  1  0
 14 15  2  0
 15 16  1  0
 16 17  2  0
 17 18  1  0
 18 19  2  0
 19 20  1  0
 20 21  1  0
 21 22  2  0
 22 23  1  0
 23 24  2  0
 24 25  1  0
 25 26  2  0
 20 27  2  0
 27 28  1  0
 28 29  2  0
  7  3  1  0
 29 14  1  0
 29 18  1  0
 26 21  1  0
  3 30  1  1
  4 31  1  0
  4 32  1  0
  5 33  1  0
  5 34  1  0
  6 35  1  0
  6 36  1  0
 10 37  1  0
 10 38  1  0
 11 39  1  0
 15 40  1  0
 16 41  1  0
 19 42  1  0
 22 43  1  0
 23 44  1  0
 24 45  1  0
 25 46  1  0
 26 47  1  0
 27 48  1  0
 28 49  1  0
M  END
$$$$
