
     RDKit          3D

 19 18  0  0  0  0  0  0  0  0999 V2000
    3.6684    0.4355    0.2772 C   0  0  0  0  0  0  0  0  0  0  0  0
    2.3304    0.0190   -0.2716 C   0  0  0  0  0  0  0  0  0  0  0  0
    1.5126   -0.4268    0.7568 O   0  0  0  0  0  0  0  0  0  0  0  0
    0.0046   -0.9002    0.1654 P   0  0  0  0  0  0  0  0  0  0  0  0
    0.0024   -0.7700   -1.3356 O   0  0  0  0  0  0  0  0  0  0  0  0
   -1.2458    0.0457    0.8361 O   0  0  0  0  0  0  0  0  0  0  0  0
   -2.3503   -0.1113    0.0253 C   0  0  0  0  0  0  0  0  0  0  0  0
   -3.5658    0.6457    0.4476 C   0  0  0  0  0  0  0  0  0  0  0  0
    4.1553   -0.4895    0.6566 H   0  0  0  0  0  0  0  0  0  0  0  0
    4.2911    0.8572   -0.5427 H   0  0  0  0  0  0  0  0  0  0  0  0
    3.5048    1.1901    1.0771 H   0  0  0  0  0  0  0  0  0  0  0  0
    1.8521    0.9294   -0.6930 H   0  0  0  0  0  0  0  0  0  0  0  0
    2.4611   -0.7058   -1.0918 H   0  0  0  0  0  0  0  0  0  0  0  0
   -0.2831   -2.2322    0.5293 H   0  0  0  0  0  0  0  0  0  0  0  0
   -2.5247   -1.2060   -0.1325 H   0  0  0  0  0  0  0  0  0  0  0  0
   -2.0363    0.2793   -0.9865 H   0  0  0  0  0  0  0  0  0  0  0  0
   -4.4479   -0.0116    0.2027 H   0  0  0  0  0  0  0  0  0  0  0  0
   -3.6988    1.5862   -0.1214 H   0  0  0  0  0  0  0  0  0  0  0  0
   -3.6301    0.8652    1.5305 H   0  0  0  0  0  0  0  0  0  0  0  0
  1  2  1  0
  2  3  1  0
  3  4  1  0
  4  5  2  0
  4  6  1  0
  6  7  1  0
  7  8  1  0
  1  9  1  0
  1 10  1  0
  1 11  1  0
  2 12  1  0
  2 13  1  0
  4 14  1  0
  7 15  1  0
  7 16  1  0
  8 17  1  0
  8 18  1  0
  8 19  1  0
M  END
$$$$
