@<TRIPOS>MOLECULE
*****
 67 70 0 0 0
SMALL
GASTEIGER

@<TRIPOS>ATOM
      1 C           7.3485   -3.8529    0.4118 C.3     1  UNL1       -0.0652
      2 C           7.4397   -2.4495    0.9291 C.3     1  UNL1       -0.0545
      3 C           7.0330   -1.4103   -0.0742 C.3     1  UNL1       -0.0376
      4 C           5.6076   -1.5770   -0.5405 C.3     1  UNL1        0.0118
      5 N           4.6587   -1.4859    0.5326 N.pl3   1  UNL1       -0.3134
      6 C           3.2764   -1.6200    0.2516 C.ar    1  UNL1        0.2169
      7 N           2.6590   -2.8145    0.2695 N.ar    1  UNL1       -0.2222
      8 C           1.3476   -2.9698    0.0112 C.ar    1  UNL1        0.0436
      9 C           0.5273   -1.8658   -0.2995 C.ar    1  UNL1        0.0584
     10 C          -0.9184   -2.1076   -0.3436 C.ar    1  UNL1        0.0807
     11 C          -1.9035   -1.1943   -0.2540 C.ar    1  UNL1        0.0046
     12 C          -3.2812   -1.5226   -0.2109 C.ar    1  UNL1        0.1267
     13 N          -4.2267   -0.4781   -0.1208 N.pl3   1  UNL1       -0.2965
     14 C          -5.6175   -0.6249   -0.0623 C.ar    1  UNL1        0.0746
     15 C          -6.2240   -1.8557   -0.0881 C.ar    1  UNL1       -0.0369
     16 C          -7.6251   -1.8888   -0.0238 C.ar    1  UNL1       -0.0598
     17 C          -8.3955   -0.7567    0.0623 C.ar    1  UNL1       -0.0582
     18 C          -7.7502    0.4473    0.0851 C.ar    1  UNL1       -0.0181
     19 C          -6.4031    0.5474    0.0263 C.ar    1  UNL1        0.1412
     20 O          -5.7366    1.7865    0.0497 O.3     1  UNL1       -0.4933
     21 C          -6.4098    3.0025    0.1350 C.3     1  UNL1        0.0789
     22 N          -3.5755   -2.8104   -0.2611 N.ar    1  UNL1       -0.2206
     23 C          -2.6176   -3.7301   -0.3470 C.ar    1  UNL1        0.1187
     24 N          -1.3288   -3.4132   -0.3881 N.ar    1  UNL1       -0.2351
     25 C           1.1658   -0.6780   -0.3201 C.ar    1  UNL1        0.1333
     26 N           0.5352    0.4738   -0.8319 N.pl3   1  UNL1       -0.3256
     27 C           1.1064    1.8017   -0.7008 C.3     1  UNL1        0.0221
     28 C           0.2270    2.8536   -1.3278 C.3     1  UNL1       -0.0322
     29 C           0.9817    4.1815   -1.1869 C.3     1  UNL1       -0.0252
     30 C           1.0885    4.5700    0.2517 C.3     1  UNL1        0.0554
     31 O           2.4221    4.8262    0.5707 O.3     1  UNL1       -0.3918
     32 C           0.6156    3.4243    1.1257 C.3     1  UNL1       -0.0252
     33 C           1.4197    2.1911    0.7001 C.3     1  UNL1       -0.0322
     34 N           2.5069   -0.5614   -0.0472 N.ar    1  UNL1       -0.1991
     35 H           7.7899   -4.5178    1.1967 H       1  UNL1        0.0230
     36 H           7.8798   -3.9289   -0.5502 H       1  UNL1        0.0230
     37 H           6.3176   -4.2090    0.2612 H       1  UNL1        0.0230
     38 H           6.8084   -2.3024    1.8294 H       1  UNL1        0.0263
     39 H           8.4914   -2.2511    1.2067 H       1  UNL1        0.0263
     40 H           7.6757   -1.4329   -0.9810 H       1  UNL1        0.0280
     41 H           7.0940   -0.4209    0.4231 H       1  UNL1        0.0280
     42 H           5.4049   -0.6971   -1.2197 H       1  UNL1        0.0462
     43 H           5.4639   -2.4691   -1.1786 H       1  UNL1        0.0462
     44 H           4.9774   -1.3248    1.4964 H       1  UNL1        0.1489
     45 H           0.8725   -3.9428    0.0302 H       1  UNL1        0.0838
     46 H          -1.6748   -0.1572   -0.1445 H       1  UNL1        0.0673
     47 H          -3.8272    0.5122   -0.0969 H       1  UNL1        0.1537
     48 H          -5.7055   -2.8036   -0.1541 H       1  UNL1        0.0637
     49 H          -8.1038   -2.8591   -0.0442 H       1  UNL1        0.0618
     50 H          -9.4889   -0.8492    0.1094 H       1  UNL1        0.0619
     51 H          -8.3821    1.3463    0.1544 H       1  UNL1        0.0655
     52 H          -5.6739    3.7647    0.5089 H       1  UNL1        0.0660
     53 H          -7.3165    2.9729    0.7706 H       1  UNL1        0.0660
     54 H          -6.6878    3.3413   -0.8846 H       1  UNL1        0.0660
     55 H          -2.8579   -4.8114   -0.3893 H       1  UNL1        0.1048
     56 H          -0.3275    0.3863   -1.3925 H       1  UNL1        0.1478
     57 H           2.0537    1.7871   -1.2957 H       1  UNL1        0.0498
     58 H           0.2066    2.6364   -2.4265 H       1  UNL1        0.0284
     59 H          -0.7795    2.9040   -0.8989 H       1  UNL1        0.0284
     60 H           2.0038    3.9891   -1.5986 H       1  UNL1        0.0291
     61 H           0.4738    4.9764   -1.7842 H       1  UNL1        0.0291
     62 H           0.4760    5.4801    0.4167 H       1  UNL1        0.0593
     63 H           2.5528    5.6242    1.1116 H       1  UNL1        0.2098
     64 H           0.9858    3.6610    2.1583 H       1  UNL1        0.0291
     65 H          -0.4602    3.2567    1.0847 H       1  UNL1        0.0291
     66 H           2.4970    2.5212    0.7884 H       1  UNL1        0.0284
     67 H           1.3076    1.3790    1.4437 H       1  UNL1        0.0284
@<TRIPOS>BOND
     1     1     2    1
     2     2     3    1
     3     3     4    1
     4     4     5    1
     5     5     6    1
     6     6     7   ar
     7     7     8   ar
     8     8     9   ar
     9     9    10    1
    10    10    11   ar
    11    11    12   ar
    12    12    13    1
    13    13    14    1
    14    14    15   ar
    15    15    16   ar
    16    16    17   ar
    17    17    18   ar
    18    18    19   ar
    19    19    20    1
    20    20    21    1
    21    12    22   ar
    22    22    23   ar
    23    23    24   ar
    24     9    25   ar
    25    25    26    1
    26    26    27    1
    27    27    28    1
    28    28    29    1
    29    29    30    1
    30    30    31    1
    31    30    32    1
    32    32    33    1
    33    25    34   ar
    34    34     6   ar
    35    24    10   ar
    36    33    27    1
    37    19    14   ar
    38     1    35    1
    39     1    36    1
    40     1    37    1
    41     2    38    1
    42     2    39    1
    43     3    40    1
    44     3    41    1
    45     4    42    1
    46     4    43    1
    47     5    44    1
    48     8    45    1
    49    11    46    1
    50    13    47    1
    51    15    48    1
    52    16    49    1
    53    17    50    1
    54    18    51    1
    55    21    52    1
    56    21    53    1
    57    21    54    1
    58    23    55    1
    59    26    56    1
    60    27    57    1
    61    28    58    1
    62    28    59    1
    63    29    60    1
    64    29    61    1
    65    30    62    1
    66    31    63    1
    67    32    64    1
    68    32    65    1
    69    33    66    1
    70    33    67    1
