
     RDKit          3D

 67 70  0  0  0  0  0  0  0  0999 V2000
   -3.8122   -5.3455    1.2274 C   0  0  0  0  0  0  0  0  0  0  0  0
   -4.7783   -4.3638    1.3382 O   0  0  0  0  0  0  0  0  0  0  0  0
   -4.3455   -3.1425    1.7698 C   0  0  0  0  0  0  0  0  0  0  0  0
   -3.3166   -2.5921    0.8126 C   0  0  0  0  0  0  0  0  0  0  0  0
   -2.8591   -1.2194    1.3064 C   0  0  0  0  0  0  0  0  0  0  0  0
   -1.8723   -0.6523    0.4195 N   0  0  0  0  0  0  0  0  0  0  0  0
   -2.1834    0.1281   -0.6319 C   0  0  0  0  0  0  0  0  0  0  0  0
   -3.5144    0.5124   -1.0284 N   0  0  0  0  0  0  0  0  0  0  0  0
   -4.1434    1.6838   -0.5439 C   0  0  0  0  0  0  0  0  0  0  0  0
   -3.5103    2.4393    0.2810 O   0  0  0  0  0  0  0  0  0  0  0  0
   -5.4835    2.0995   -0.9225 C   0  0  0  0  0  0  0  0  0  0  0  0
   -6.0313    3.2756   -0.4062 C   0  0  0  0  0  0  0  0  0  0  0  0
   -7.2942    3.6540   -0.7702 C   0  0  0  0  0  0  0  0  0  0  0  0
   -8.0344    2.8983   -1.6349 C   0  0  0  0  0  0  0  0  0  0  0  0
   -9.3734    3.2617   -2.0453 C   0  0  0  0  0  0  0  0  0  0  0  0
  -10.4448    3.5336   -2.3809 N   0  0  0  0  0  0  0  0  0  0  0  0
   -7.5251    1.7376   -2.1599 C   0  0  0  0  0  0  0  0  0  0  0  0
   -6.2307    1.3585   -1.7809 C   0  0  0  0  0  0  0  0  0  0  0  0
   -1.0265    0.4607   -1.2120 N   0  0  0  0  0  0  0  0  0  0  0  0
    0.0028   -0.0912   -0.5510 C   0  0  0  0  0  0  0  0  0  0  0  0
    1.3886   -0.0671   -0.7265 C   0  0  0  0  0  0  0  0  0  0  0  0
    2.2414   -0.7415    0.1221 C   0  0  0  0  0  0  0  0  0  0  0  0
    3.7171   -0.7157   -0.0716 C   0  0  0  0  0  0  0  0  0  0  0  0
    4.2779    0.3947    0.6406 N   0  0  0  0  0  0  0  0  0  0  0  0
    4.0504    0.3719    2.0488 C   0  0  0  0  0  0  0  0  0  0  0  0
    5.6752    0.4709    0.2821 C   0  0  0  0  0  0  0  0  0  0  0  0
    5.7487    0.6777   -1.2092 C   0  0  0  0  0  0  0  0  0  0  0  0
    6.8746    1.6097   -1.5963 C   0  0  0  0  0  0  0  0  0  0  0  0
    8.1432    1.2868   -0.8368 C   0  0  0  0  0  0  0  0  0  0  0  0
    7.9244    1.3243    0.6578 C   0  0  0  0  0  0  0  0  0  0  0  0
    6.4523    1.5102    1.0137 C   0  0  0  0  0  0  0  0  0  0  0  0
    1.6529   -1.4493    1.1648 C   0  0  0  0  0  0  0  0  0  0  0  0
    0.2890   -1.4915    1.3631 C   0  0  0  0  0  0  0  0  0  0  0  0
   -0.5438   -0.8080    0.4999 C   0  0  0  0  0  0  0  0  0  0  0  0
   -3.2890   -5.5543    2.1891 H   0  0  0  0  0  0  0  0  0  0  0  0
   -3.0702   -5.1176    0.4485 H   0  0  0  0  0  0  0  0  0  0  0  0
   -4.3714   -6.2919    0.9452 H   0  0  0  0  0  0  0  0  0  0  0  0
   -3.8406   -3.1788    2.7667 H   0  0  0  0  0  0  0  0  0  0  0  0
   -5.2079   -2.4484    1.8545 H   0  0  0  0  0  0  0  0  0  0  0  0
   -3.7176   -2.5116   -0.2063 H   0  0  0  0  0  0  0  0  0  0  0  0
   -2.4261   -3.2873    0.8772 H   0  0  0  0  0  0  0  0  0  0  0  0
   -3.7561   -0.5625    1.3469 H   0  0  0  0  0  0  0  0  0  0  0  0
   -2.4772   -1.3093    2.3409 H   0  0  0  0  0  0  0  0  0  0  0  0
   -4.0171   -0.0991   -1.6917 H   0  0  0  0  0  0  0  0  0  0  0  0
   -5.4238    3.8565    0.2770 H   0  0  0  0  0  0  0  0  0  0  0  0
   -7.7115    4.5713   -0.3627 H   0  0  0  0  0  0  0  0  0  0  0  0
   -8.0930    1.1319   -2.8406 H   0  0  0  0  0  0  0  0  0  0  0  0
   -5.8785    0.4391   -2.2217 H   0  0  0  0  0  0  0  0  0  0  0  0
    1.7986    0.4978   -1.5525 H   0  0  0  0  0  0  0  0  0  0  0  0
    4.1500   -1.6420    0.3627 H   0  0  0  0  0  0  0  0  0  0  0  0
    3.9519   -0.7190   -1.1340 H   0  0  0  0  0  0  0  0  0  0  0  0
    4.4903   -0.4969    2.5724 H   0  0  0  0  0  0  0  0  0  0  0  0
    2.9552    0.3368    2.2229 H   0  0  0  0  0  0  0  0  0  0  0  0
    4.3919    1.3412    2.4670 H   0  0  0  0  0  0  0  0  0  0  0  0
    6.1224   -0.5267    0.5488 H   0  0  0  0  0  0  0  0  0  0  0  0
    5.8718   -0.3220   -1.6853 H   0  0  0  0  0  0  0  0  0  0  0  0
    4.8042    1.1365   -1.5687 H   0  0  0  0  0  0  0  0  0  0  0  0
    6.5942    2.6444   -1.3256 H   0  0  0  0  0  0  0  0  0  0  0  0
    7.0756    1.4765   -2.6651 H   0  0  0  0  0  0  0  0  0  0  0  0
    8.9098    2.0156   -1.1430 H   0  0  0  0  0  0  0  0  0  0  0  0
    8.4971    0.2876   -1.1820 H   0  0  0  0  0  0  0  0  0  0  0  0
    8.5206    2.1383    1.1219 H   0  0  0  0  0  0  0  0  0  0  0  0
    8.2640    0.3590    1.0860 H   0  0  0  0  0  0  0  0  0  0  0  0
    6.3915    1.3463    2.1082 H   0  0  0  0  0  0  0  0  0  0  0  0
    6.1437    2.5192    0.6955 H   0  0  0  0  0  0  0  0  0  0  0  0
    2.3528   -1.9749    1.8225 H   0  0  0  0  0  0  0  0  0  0  0  0
   -0.1210   -2.0654    2.2018 H   0  0  0  0  0  0  0  0  0  0  0  0
  1  2  1  0
  2  3  1  0
  3  4  1  0
  4  5  1  0
  5  6  1  0
  6  7  1  0
  7  8  1  0
  8  9  1  0
  9 10  2  0
  9 11  1  0
 11 12  2  0
 12 13  1  0
 13 14  2  0
 14 15  1  0
 15 16  3  0
 14 17  1  0
 17 18  2  0
  7 19  2  0
 19 20  1  0
 20 21  2  0
 21 22  1  0
 22 23  1  0
 23 24  1  0
 24 25  1  0
 24 26  1  0
 26 27  1  0
 27 28  1  0
 28 29  1  0
 29 30  1  0
 30 31  1  0
 22 32  2  0
 32 33  1  0
 33 34  2  0
 34  6  1  0
 18 11  1  0
 34 20  1  0
 31 26  1  0
  1 35  1  0
  1 36  1  0
  1 37  1  0
  3 38  1  0
  3 39  1  0
  4 40  1  0
  4 41  1  0
  5 42  1  0
  5 43  1  0
  8 44  1  0
 12 45  1  0
 13 46  1  0
 17 47  1  0
 18 48  1  0
 21 49  1  0
 23 50  1  0
 23 51  1  0
 25 52  1  0
 25 53  1  0
 25 54  1  0
 26 55  1  0
 27 56  1  0
 27 57  1  0
 28 58  1  0
 28 59  1  0
 29 60  1  0
 29 61  1  0
 30 62  1  0
 30 63  1  0
 31 64  1  0
 31 65  1  0
 32 66  1  0
 33 67  1  0
M  END
$$$$
