@<TRIPOS>MOLECULE
*****
 67 70 0 0 0
SMALL
GASTEIGER

@<TRIPOS>ATOM
      1 C          -3.8122   -5.3455    1.2274 C.3     1  UNL1        0.0364
      2 O          -4.7783   -4.3638    1.3382 O.3     1  UNL1       -0.3829
      3 C          -4.3455   -3.1425    1.7698 C.3     1  UNL1        0.0489
      4 C          -3.3166   -2.5921    0.8126 C.3     1  UNL1       -0.0113
      5 C          -2.8591   -1.2194    1.3064 C.3     1  UNL1        0.0285
      6 N          -1.8723   -0.6523    0.4195 N.ar    1  UNL1       -0.3114
      7 C          -2.1834    0.1281   -0.6319 C.ar    1  UNL1        0.2032
      8 N          -3.5144    0.5124   -1.0284 N.am    1  UNL1       -0.2518
      9 C          -4.1434    1.6838   -0.5439 C.2     1  UNL1        0.2504
     10 O          -3.5103    2.4393    0.2810 O.2     1  UNL1       -0.2698
     11 C          -5.4835    2.0995   -0.9225 C.ar    1  UNL1        0.0372
     12 C          -6.0313    3.2756   -0.4062 C.ar    1  UNL1       -0.0484
     13 C          -7.2942    3.6540   -0.7702 C.ar    1  UNL1       -0.0436
     14 C          -8.0344    2.8983   -1.6349 C.ar    1  UNL1        0.0518
     15 C          -9.3734    3.2617   -2.0453 C.1     1  UNL1        0.0992
     16 N         -10.4448    3.5336   -2.3809 N.1     1  UNL1       -0.1909
     17 C          -7.5251    1.7376   -2.1599 C.ar    1  UNL1       -0.0436
     18 C          -6.2307    1.3585   -1.7809 C.ar    1  UNL1       -0.0484
     19 N          -1.0265    0.4607   -1.2120 N.ar    1  UNL1       -0.2141
     20 C           0.0028   -0.0912   -0.5510 C.ar    1  UNL1        0.0912
     21 C           1.3886   -0.0671   -0.7265 C.ar    1  UNL1       -0.0298
     22 C           2.2414   -0.7415    0.1221 C.ar    1  UNL1       -0.0312
     23 C           3.7171   -0.7157   -0.0716 C.3     1  UNL1        0.0241
     24 N           4.2779    0.3947    0.6406 N.3     1  UNL1       -0.2982
     25 C           4.0504    0.3719    2.0488 C.3     1  UNL1       -0.0122
     26 C           5.6752    0.4709    0.2821 C.3     1  UNL1        0.0105
     27 C           5.7487    0.6777   -1.2092 C.3     1  UNL1       -0.0373
     28 C           6.8746    1.6097   -1.5963 C.3     1  UNL1       -0.0516
     29 C           8.1432    1.2868   -0.8368 C.3     1  UNL1       -0.0530
     30 C           7.9244    1.3243    0.6578 C.3     1  UNL1       -0.0516
     31 C           6.4523    1.5102    1.0137 C.3     1  UNL1       -0.0373
     32 C           1.6529   -1.4493    1.1648 C.ar    1  UNL1       -0.0553
     33 C           0.2890   -1.4915    1.3631 C.ar    1  UNL1       -0.0357
     34 C          -0.5438   -0.8080    0.4999 C.ar    1  UNL1        0.0701
     35 H          -3.2890   -5.5543    2.1891 H       1  UNL1        0.0523
     36 H          -3.0702   -5.1176    0.4485 H       1  UNL1        0.0523
     37 H          -4.3714   -6.2919    0.9452 H       1  UNL1        0.0523
     38 H          -3.8406   -3.1788    2.7667 H       1  UNL1        0.0560
     39 H          -5.2079   -2.4484    1.8545 H       1  UNL1        0.0560
     40 H          -3.7176   -2.5116   -0.2063 H       1  UNL1        0.0305
     41 H          -2.4261   -3.2873    0.8772 H       1  UNL1        0.0305
     42 H          -3.7561   -0.5625    1.3469 H       1  UNL1        0.0493
     43 H          -2.4772   -1.3093    2.3409 H       1  UNL1        0.0493
     44 H          -4.0171   -0.0991   -1.6917 H       1  UNL1        0.1580
     45 H          -5.4238    3.8565    0.2770 H       1  UNL1        0.0625
     46 H          -7.7115    4.5713   -0.3627 H       1  UNL1        0.0631
     47 H          -8.0930    1.1319   -2.8406 H       1  UNL1        0.0631
     48 H          -5.8785    0.4391   -2.2217 H       1  UNL1        0.0625
     49 H           1.7986    0.4978   -1.5525 H       1  UNL1        0.0643
     50 H           4.1500   -1.6420    0.3627 H       1  UNL1        0.0476
     51 H           3.9519   -0.7190   -1.1340 H       1  UNL1        0.0476
     52 H           4.4903   -0.4969    2.5724 H       1  UNL1        0.0391
     53 H           2.9552    0.3368    2.2229 H       1  UNL1        0.0391
     54 H           4.3919    1.3412    2.4670 H       1  UNL1        0.0391
     55 H           6.1224   -0.5267    0.5488 H       1  UNL1        0.0462
     56 H           5.8718   -0.3220   -1.6853 H       1  UNL1        0.0280
     57 H           4.8042    1.1365   -1.5687 H       1  UNL1        0.0280
     58 H           6.5942    2.6444   -1.3256 H       1  UNL1        0.0266
     59 H           7.0756    1.4765   -2.6651 H       1  UNL1        0.0266
     60 H           8.9098    2.0156   -1.1430 H       1  UNL1        0.0265
     61 H           8.4971    0.2876   -1.1820 H       1  UNL1        0.0265
     62 H           8.5206    2.1383    1.1219 H       1  UNL1        0.0266
     63 H           8.2640    0.3590    1.0860 H       1  UNL1        0.0266
     64 H           6.3915    1.3463    2.1082 H       1  UNL1        0.0280
     65 H           6.1437    2.5192    0.6955 H       1  UNL1        0.0280
     66 H           2.3528   -1.9749    1.8225 H       1  UNL1        0.0621
     67 H          -0.1210   -2.0654    2.2018 H       1  UNL1        0.0639
@<TRIPOS>BOND
     1     1     2    1
     2     2     3    1
     3     3     4    1
     4     4     5    1
     5     5     6    1
     6     6     7   ar
     7     7     8    1
     8     8     9   am
     9     9    10    2
    10     9    11    1
    11    11    12   ar
    12    12    13   ar
    13    13    14   ar
    14    14    15    1
    15    15    16    3
    16    14    17   ar
    17    17    18   ar
    18     7    19   ar
    19    19    20   ar
    20    20    21   ar
    21    21    22   ar
    22    22    23    1
    23    23    24    1
    24    24    25    1
    25    24    26    1
    26    26    27    1
    27    27    28    1
    28    28    29    1
    29    29    30    1
    30    30    31    1
    31    22    32   ar
    32    32    33   ar
    33    33    34   ar
    34    34     6   ar
    35    18    11   ar
    36    34    20   ar
    37    31    26    1
    38     1    35    1
    39     1    36    1
    40     1    37    1
    41     3    38    1
    42     3    39    1
    43     4    40    1
    44     4    41    1
    45     5    42    1
    46     5    43    1
    47     8    44    1
    48    12    45    1
    49    13    46    1
    50    17    47    1
    51    18    48    1
    52    21    49    1
    53    23    50    1
    54    23    51    1
    55    25    52    1
    56    25    53    1
    57    25    54    1
    58    26    55    1
    59    27    56    1
    60    27    57    1
    61    28    58    1
    62    28    59    1
    63    29    60    1
    64    29    61    1
    65    30    62    1
    66    30    63    1
    67    31    64    1
    68    31    65    1
    69    32    66    1
    70    33    67    1
