@<TRIPOS>MOLECULE
*****
 42 44 0 0 0
SMALL
GASTEIGER

@<TRIPOS>ATOM
      1 C          -0.6322    0.2444    1.7496 C.3     1  UNL1       -0.0220
      2 C          -0.4269   -0.8709    0.7921 C.ar    1  UNL1        0.0477
      3 C           0.7757   -1.1572    0.1889 C.ar    1  UNL1        0.1463
      4 C           2.0642   -0.4678    0.3391 C.2     1  UNL1        0.2694
      5 O           2.1375    0.5151    1.1015 O.2     1  UNL1       -0.2681
      6 N           3.1808   -0.9387   -0.3839 N.am    1  UNL1       -0.2636
      7 C           4.4533   -0.2863   -0.2582 C.ar    1  UNL1        0.1471
      8 C           5.5913   -0.6480   -0.9008 C.ar    1  UNL1       -0.0021
      9 C           6.5798    0.2153   -0.5184 C.ar    1  UNL1        0.0270
     10 N           6.0093    1.0678    0.3399 N.ar    1  UNL1       -0.2727
     11 C           6.7366    2.1579    0.9847 C.3     1  UNL1        0.0302
     12 N           4.7377    0.7768    0.5026 N.ar    1  UNL1       -0.1562
     13 N           0.5257   -2.2343   -0.5951 N.ar    1  UNL1       -0.2308
     14 C          -0.7691   -2.5748   -0.4647 C.ar    1  UNL1        0.0973
     15 N          -1.3874   -1.7257    0.4070 N.ar    1  UNL1       -0.3292
     16 C          -2.7906   -1.7722    0.8049 C.3     1  UNL1        0.0494
     17 C          -3.6151   -0.9487   -0.1107 C.ar    1  UNL1       -0.0272
     18 C          -4.1828   -1.4762   -1.2645 C.ar    1  UNL1       -0.0568
     19 C          -4.9458   -0.6877   -2.0980 C.ar    1  UNL1       -0.0609
     20 C          -5.1559    0.6447   -1.7934 C.ar    1  UNL1       -0.0501
     21 C          -4.5911    1.1720   -0.6442 C.ar    1  UNL1        0.0551
     22 C          -4.8214    2.6109   -0.3206 C.3     1  UNL1        0.4174
     23 F          -4.2163    2.9077    0.8867 F       1  UNL1       -0.1659
     24 F          -6.1947    2.8157   -0.2041 F       1  UNL1       -0.1659
     25 F          -4.2607    3.4395   -1.2718 F       1  UNL1       -0.1659
     26 C          -3.8227    0.3796    0.1959 C.ar    1  UNL1       -0.0452
     27 H           0.2153    0.4108    2.4235 H       1  UNL1        0.0293
     28 H          -1.5381    0.0351    2.3892 H       1  UNL1        0.0293
     29 H          -0.8528    1.1967    1.2254 H       1  UNL1        0.0293
     30 H           3.0783   -1.7633   -1.0107 H       1  UNL1        0.1566
     31 H           5.7140   -1.4816   -1.6049 H       1  UNL1        0.0668
     32 H           7.6024    0.1580   -0.8819 H       1  UNL1        0.0827
     33 H           7.4917    2.6034    0.3188 H       1  UNL1        0.0473
     34 H           6.0138    2.9625    1.2455 H       1  UNL1        0.0473
     35 H           7.1911    1.7830    1.9092 H       1  UNL1        0.0473
     36 H          -1.3027   -3.3822   -0.9446 H       1  UNL1        0.1029
     37 H          -2.8782   -1.3964    1.8230 H       1  UNL1        0.0542
     38 H          -3.1647   -2.8071    0.7421 H       1  UNL1        0.0542
     39 H          -4.0045   -2.5196   -1.4813 H       1  UNL1        0.0621
     40 H          -5.4017   -1.0803   -3.0098 H       1  UNL1        0.0618
     41 H          -5.7494    1.2920   -2.4255 H       1  UNL1        0.0623
     42 H          -3.3935    0.8303    1.0939 H       1  UNL1        0.0626
@<TRIPOS>BOND
     1     1     2    1
     2     2     3   ar
     3     3     4    1
     4     4     5    2
     5     4     6   am
     6     6     7    1
     7     7     8   ar
     8     8     9   ar
     9     9    10   ar
    10    10    11    1
    11    10    12   ar
    12     3    13   ar
    13    13    14   ar
    14    14    15   ar
    15    15    16    1
    16    16    17    1
    17    17    18   ar
    18    18    19   ar
    19    19    20   ar
    20    20    21   ar
    21    21    22    1
    22    22    23    1
    23    22    24    1
    24    22    25    1
    25    21    26   ar
    26    15     2   ar
    27    26    17   ar
    28    12     7   ar
    29     1    27    1
    30     1    28    1
    31     1    29    1
    32     6    30    1
    33     8    31    1
    34     9    32    1
    35    11    33    1
    36    11    34    1
    37    11    35    1
    38    14    36    1
    39    16    37    1
    40    16    38    1
    41    18    39    1
    42    19    40    1
    43    20    41    1
    44    26    42    1
