@<TRIPOS>MOLECULE
*****
 49 51 0 0 0
SMALL
GASTEIGER

@<TRIPOS>ATOM
      1 C          -3.2327    1.8759   -0.0116 C.3     1  UNL1       -0.0592
      2 C          -2.9252    0.4016   -0.3010 C.3     1  UNL1       -0.0244
      3 C          -1.5619    0.3669   -0.9516 C.3     1  UNL1       -0.0115
      4 C          -1.1126   -1.0191   -1.3006 C.3     1  UNL1        0.0289
      5 C           0.3666   -0.8107   -1.4404 C.2     1  UNL1        0.2160
      6 O           1.1712   -1.3650   -2.2048 O.2     1  UNL1       -0.2756
      7 N           0.7402    0.1901   -0.4982 N.am    1  UNL1       -0.2979
      8 C           2.0852    0.5083   -0.0461 C.3     1  UNL1        0.0488
      9 C           2.4891   -0.2755    1.1547 C.3     1  UNL1        0.1052
     10 O           3.7748    0.0403    1.5519 O.3     1  UNL1       -0.4903
     11 C           4.9698   -0.1230    0.9456 C.ar    1  UNL1        0.1235
     12 C           6.1170    0.3418    1.6097 C.ar    1  UNL1       -0.0170
     13 C           7.3734    0.2208    1.0799 C.ar    1  UNL1       -0.0201
     14 C           7.5671   -0.3660   -0.1352 C.ar    1  UNL1        0.1586
     15 F           8.8164   -0.4738   -0.6378 F       1  UNL1       -0.2025
     16 C           6.4687   -0.8333   -0.8141 C.ar    1  UNL1        0.1619
     17 F           6.6619   -1.4150   -2.0187 F       1  UNL1       -0.2024
     18 C           5.1909   -0.7066   -0.2672 C.ar    1  UNL1        0.0181
     19 C          -0.4657    0.8549   -0.0491 C.3     1  UNL1        0.0185
     20 C          -2.9609   -0.3160    1.0055 C.3     1  UNL1       -0.0278
     21 C          -4.0959   -1.3179    1.1082 C.3     1  UNL1        0.0663
     22 S          -5.6517   -0.5922    0.6291 S.O2    1  UNL1       -0.0310
     23 O          -6.1640    0.3718    1.6291 O.2     1  UNL1       -0.1744
     24 O          -6.6439   -1.7102    0.5049 O.2     1  UNL1       -0.1744
     25 C          -5.3392    0.1832   -0.9516 C.3     1  UNL1        0.0663
     26 C          -3.9090   -0.1278   -1.3146 C.3     1  UNL1       -0.0278
     27 H          -4.2469    2.0062    0.3983 H       1  UNL1        0.0235
     28 H          -2.5312    2.2106    0.7956 H       1  UNL1        0.0235
     29 H          -3.1626    2.4923   -0.9224 H       1  UNL1        0.0235
     30 H          -1.5284    0.9755   -1.8777 H       1  UNL1        0.0326
     31 H          -1.2292   -1.7382   -0.4633 H       1  UNL1        0.0362
     32 H          -1.5345   -1.3951   -2.2489 H       1  UNL1        0.0362
     33 H           2.0331    1.5907    0.3138 H       1  UNL1        0.0498
     34 H           2.8058    0.5249   -0.8486 H       1  UNL1        0.0498
     35 H           1.7856   -0.0791    2.0083 H       1  UNL1        0.0712
     36 H           2.4287   -1.3759    0.9732 H       1  UNL1        0.0712
     37 H           6.0038    0.8089    2.5674 H       1  UNL1        0.0655
     38 H           8.2275    0.5898    1.6200 H       1  UNL1        0.0648
     39 H           4.3606   -1.1116   -0.8345 H       1  UNL1        0.0684
     40 H          -0.6084    0.5657    1.0102 H       1  UNL1        0.0467
     41 H          -0.3136    1.9334   -0.1855 H       1  UNL1        0.0467
     42 H          -3.0835    0.3768    1.8884 H       1  UNL1        0.0286
     43 H          -2.0340   -0.8917    1.2309 H       1  UNL1        0.0286
     44 H          -4.1325   -1.6674    2.1526 H       1  UNL1        0.0500
     45 H          -3.9225   -2.1939    0.4645 H       1  UNL1        0.0500
     46 H          -5.9837   -0.3202   -1.6864 H       1  UNL1        0.0500
     47 H          -5.5808    1.2451   -0.9557 H       1  UNL1        0.0500
     48 H          -3.6928    0.3385   -2.2905 H       1  UNL1        0.0286
     49 H          -3.7902   -1.2127   -1.3853 H       1  UNL1        0.0286
@<TRIPOS>BOND
     1     1     2    1
     2     2     3    1
     3     3     4    1
     4     4     5    1
     5     5     6    2
     6     5     7   am
     7     7     8    1
     8     8     9    1
     9     9    10    1
    10    10    11    1
    11    11    12   ar
    12    12    13   ar
    13    13    14   ar
    14    14    15    1
    15    14    16   ar
    16    16    17    1
    17    16    18   ar
    18     7    19    1
    19     2    20    1
    20    20    21    1
    21    21    22    1
    22    22    23    2
    23    22    24    2
    24    22    25    1
    25    25    26    1
    26    26     2    1
    27    19     3    1
    28    18    11   ar
    29     1    27    1
    30     1    28    1
    31     1    29    1
    32     3    30    1
    33     4    31    1
    34     4    32    1
    35     8    33    1
    36     8    34    1
    37     9    35    1
    38     9    36    1
    39    12    37    1
    40    13    38    1
    41    18    39    1
    42    19    40    1
    43    19    41    1
    44    20    42    1
    45    20    43    1
    46    21    44    1
    47    21    45    1
    48    25    46    1
    49    25    47    1
    50    26    48    1
    51    26    49    1
