
     RDKit          3D

 51 55  0  0  0  0  0  0  0  0999 V2000
    4.6256    0.5913    0.0152 O   0  0  0  0  0  0  0  0  0  0  0  0
    3.9030    0.8858    0.9954 C   0  0  0  0  0  0  0  0  0  0  0  0
    2.6560    1.4990    0.7616 N   0  0  0  0  0  0  0  0  0  0  0  0
    2.1013    1.8352   -0.5219 C   0  0  0  0  0  0  0  0  0  0  0  0
    1.9325    0.5930   -1.3427 C   0  0  0  0  0  0  0  0  0  0  0  0
    2.8068    0.0468   -2.2536 C   0  0  0  0  0  0  0  0  0  0  0  0
    2.2346   -1.0674   -2.7365 N   0  0  0  0  0  0  0  0  0  0  0  0
    1.0146   -1.2595   -2.1657 C   0  0  0  0  0  0  0  0  0  0  0  0
    0.0475   -2.2307   -2.3141 C   0  0  0  0  0  0  0  0  0  0  0  0
   -1.1053   -2.1470   -1.5807 C   0  0  0  0  0  0  0  0  0  0  0  0
   -1.2649   -1.0881   -0.7111 C   0  0  0  0  0  0  0  0  0  0  0  0
   -2.4668   -0.9454    0.0957 C   0  0  0  0  0  0  0  0  0  0  0  0
   -3.3856    0.0763    0.0241 C   0  0  0  0  0  0  0  0  0  0  0  0
   -3.3670    1.2321   -0.8642 C   0  0  0  0  0  0  0  0  0  0  0  0
   -3.4399    1.0500   -2.2279 C   0  0  0  0  0  0  0  0  0  0  0  0
   -3.4257    2.1150   -3.1124 C   0  0  0  0  0  0  0  0  0  0  0  0
   -3.3366    3.3998   -2.6343 C   0  0  0  0  0  0  0  0  0  0  0  0
   -3.3206    4.4633   -3.4784 F   0  0  0  0  0  0  0  0  0  0  0  0
   -3.2629    3.6110   -1.2845 C   0  0  0  0  0  0  0  0  0  0  0  0
   -3.2786    2.5347   -0.4201 C   0  0  0  0  0  0  0  0  0  0  0  0
   -4.3711   -0.1487    0.9468 N   0  0  0  0  0  0  0  0  0  0  0  0
   -4.0447   -1.3001    1.5690 C   0  0  0  0  0  0  0  0  0  0  0  0
   -2.8773   -1.7892    1.0478 N   0  0  0  0  0  0  0  0  0  0  0  0
   -2.2120   -2.9859    1.4481 C   0  0  0  0  0  0  0  0  0  0  0  0
   -1.2099   -2.7691    2.5651 C   0  0  0  0  0  0  0  0  0  0  0  0
   -1.8196   -2.2623    3.6969 F   0  0  0  0  0  0  0  0  0  0  0  0
   -0.7323   -4.0280    2.9177 F   0  0  0  0  0  0  0  0  0  0  0  0
   -0.2581   -0.1903   -0.6397 N   0  0  0  0  0  0  0  0  0  0  0  0
    0.8501   -0.2336   -1.3174 N   0  0  0  0  0  0  0  0  0  0  0  0
    4.3498    0.5941    2.4042 C   0  0  0  0  0  0  0  0  0  0  0  0
    5.2037   -0.6270    2.5627 C   0  0  0  0  0  0  0  0  0  0  0  0
    5.8163    0.7323    2.6900 C   0  0  0  0  0  0  0  0  0  0  0  0
    2.0987    1.7198    1.6485 H   0  0  0  0  0  0  0  0  0  0  0  0
    1.1327    2.3539   -0.4142 H   0  0  0  0  0  0  0  0  0  0  0  0
    2.8147    2.5393   -1.0267 H   0  0  0  0  0  0  0  0  0  0  0  0
    3.7771    0.4292   -2.5473 H   0  0  0  0  0  0  0  0  0  0  0  0
    0.2035   -3.0438   -3.0013 H   0  0  0  0  0  0  0  0  0  0  0  0
   -1.9025   -2.8887   -1.6619 H   0  0  0  0  0  0  0  0  0  0  0  0
   -3.5096    0.0355   -2.5919 H   0  0  0  0  0  0  0  0  0  0  0  0
   -3.4852    1.9359   -4.1952 H   0  0  0  0  0  0  0  0  0  0  0  0
   -3.1924    4.6254   -0.9013 H   0  0  0  0  0  0  0  0  0  0  0  0
   -3.2208    2.6750    0.6679 H   0  0  0  0  0  0  0  0  0  0  0  0
   -4.6043   -1.7774    2.3576 H   0  0  0  0  0  0  0  0  0  0  0  0
   -2.9906   -3.6797    1.8945 H   0  0  0  0  0  0  0  0  0  0  0  0
   -1.7782   -3.5865    0.6225 H   0  0  0  0  0  0  0  0  0  0  0  0
   -0.4064   -2.0731    2.2878 H   0  0  0  0  0  0  0  0  0  0  0  0
    3.6527    0.8858    3.2098 H   0  0  0  0  0  0  0  0  0  0  0  0
    5.4374   -1.2585    1.6882 H   0  0  0  0  0  0  0  0  0  0  0  0
    5.0517   -1.2367    3.4992 H   0  0  0  0  0  0  0  0  0  0  0  0
    6.4184    1.1196    1.8632 H   0  0  0  0  0  0  0  0  0  0  0  0
    6.1403    1.0376    3.7184 H   0  0  0  0  0  0  0  0  0  0  0  0
  1  2  2  0
  2  3  1  0
  3  4  1  0
  4  5  1  0
  5  6  2  0
  6  7  1  0
  7  8  2  0
  8  9  1  0
  9 10  2  0
 10 11  1  0
 11 12  1  0
 12 13  2  0
 13 14  1  0
 14 15  2  0
 15 16  1  0
 16 17  2  0
 17 18  1  0
 17 19  1  0
 19 20  2  0
 13 21  1  0
 21 22  2  0
 22 23  1  0
 23 24  1  0
 24 25  1  0
 25 26  1  0
 25 27  1  0
 11 28  2  0
 28 29  1  0
  2 30  1  0
 30 31  1  0
 31 32  1  0
 29  5  1  0
 32 30  1  0
 29  8  1  0
 23 12  1  0
 20 14  1  0
  3 33  1  0
  4 34  1  0
  4 35  1  0
  6 36  1  0
  9 37  1  0
 10 38  1  0
 15 39  1  0
 16 40  1  0
 19 41  1  0
 20 42  1  0
 22 43  1  0
 24 44  1  0
 24 45  1  0
 25 46  1  0
 30 47  1  0
 31 48  1  0
 31 49  1  0
 32 50  1  0
 32 51  1  0
M  END
$$$$
