@<TRIPOS>MOLECULE
*****
 51 55 0 0 0
SMALL
GASTEIGER

@<TRIPOS>ATOM
      1 O           4.6256    0.5913    0.0152 O.2     1  UNL1       -0.2755
      2 C           3.9030    0.8858    0.9954 C.2     1  UNL1        0.2164
      3 N           2.6560    1.4990    0.7616 N.am    1  UNL1       -0.3094
      4 C           2.1013    1.8352   -0.5219 C.3     1  UNL1        0.0555
      5 C           1.9325    0.5930   -1.3427 C.ar    1  UNL1        0.0802
      6 C           2.8068    0.0468   -2.2536 C.ar    1  UNL1        0.0529
      7 N           2.2346   -1.0674   -2.7365 N.ar    1  UNL1       -0.2343
      8 C           1.0146   -1.2595   -2.1657 C.ar    1  UNL1        0.1544
      9 C           0.0475   -2.2307   -2.3141 C.ar    1  UNL1       -0.0153
     10 C          -1.1053   -2.1470   -1.5807 C.ar    1  UNL1       -0.0290
     11 C          -1.2649   -1.0881   -0.7111 C.ar    1  UNL1        0.1103
     12 C          -2.4668   -0.9454    0.0957 C.ar    1  UNL1        0.0968
     13 C          -3.3856    0.0763    0.0241 C.ar    1  UNL1        0.0982
     14 C          -3.3670    1.2321   -0.8642 C.ar    1  UNL1        0.0027
     15 C          -3.4399    1.0500   -2.2279 C.ar    1  UNL1       -0.0498
     16 C          -3.4257    2.1150   -3.1124 C.ar    1  UNL1       -0.0258
     17 C          -3.3366    3.3998   -2.6343 C.ar    1  UNL1        0.1234
     18 F          -3.3206    4.4633   -3.4784 F       1  UNL1       -0.2055
     19 C          -3.2629    3.6110   -1.2845 C.ar    1  UNL1       -0.0258
     20 C          -3.2786    2.5347   -0.4201 C.ar    1  UNL1       -0.0498
     21 N          -4.3711   -0.1487    0.9468 N.ar    1  UNL1       -0.2351
     22 C          -4.0447   -1.3001    1.5690 C.ar    1  UNL1        0.0973
     23 N          -2.8773   -1.7892    1.0478 N.ar    1  UNL1       -0.3229
     24 C          -2.2120   -2.9859    1.4481 C.3     1  UNL1        0.0852
     25 C          -1.2099   -2.7691    2.5651 C.3     1  UNL1        0.2569
     26 F          -1.8196   -2.2623    3.6969 F       1  UNL1       -0.2073
     27 F          -0.7323   -4.0280    2.9177 F       1  UNL1       -0.2073
     28 N          -0.2581   -0.1903   -0.6397 N.ar    1  UNL1       -0.1632
     29 N           0.8501   -0.2336   -1.3174 N.ar    1  UNL1       -0.2151
     30 C           4.3498    0.5941    2.4042 C.3     1  UNL1        0.0356
     31 C           5.2037   -0.6270    2.5627 C.3     1  UNL1       -0.0412
     32 C           5.8163    0.7323    2.6900 C.3     1  UNL1       -0.0412
     33 H           2.0987    1.7198    1.6485 H       1  UNL1        0.1491
     34 H           1.1327    2.3539   -0.4142 H       1  UNL1        0.0527
     35 H           2.8147    2.5393   -1.0267 H       1  UNL1        0.0527
     36 H           3.7771    0.4292   -2.5473 H       1  UNL1        0.0849
     37 H           0.2035   -3.0438   -3.0013 H       1  UNL1        0.0655
     38 H          -1.9025   -2.8887   -1.6619 H       1  UNL1        0.0641
     39 H          -3.5096    0.0355   -2.5919 H       1  UNL1        0.0625
     40 H          -3.4852    1.9359   -4.1952 H       1  UNL1        0.0646
     41 H          -3.1924    4.6254   -0.9013 H       1  UNL1        0.0646
     42 H          -3.2208    2.6750    0.6679 H       1  UNL1        0.0625
     43 H          -4.6043   -1.7774    2.3576 H       1  UNL1        0.1029
     44 H          -2.9906   -3.6797    1.8945 H       1  UNL1        0.0548
     45 H          -1.7782   -3.5865    0.6225 H       1  UNL1        0.0548
     46 H          -0.4064   -2.0731    2.2878 H       1  UNL1        0.1037
     47 H           3.6527    0.8858    3.2098 H       1  UNL1        0.0394
     48 H           5.4374   -1.2585    1.6882 H       1  UNL1        0.0273
     49 H           5.0517   -1.2367    3.4992 H       1  UNL1        0.0273
     50 H           6.4184    1.1196    1.8632 H       1  UNL1        0.0273
     51 H           6.1403    1.0376    3.7184 H       1  UNL1        0.0273
@<TRIPOS>BOND
     1     1     2    2
     2     2     3   am
     3     3     4    1
     4     4     5    1
     5     5     6   ar
     6     6     7   ar
     7     7     8   ar
     8     8     9   ar
     9     9    10   ar
    10    10    11   ar
    11    11    12    1
    12    12    13   ar
    13    13    14    1
    14    14    15   ar
    15    15    16   ar
    16    16    17   ar
    17    17    18    1
    18    17    19   ar
    19    19    20   ar
    20    13    21   ar
    21    21    22   ar
    22    22    23   ar
    23    23    24    1
    24    24    25    1
    25    25    26    1
    26    25    27    1
    27    11    28   ar
    28    28    29   ar
    29     2    30    1
    30    30    31    1
    31    31    32    1
    32    29     5   ar
    33    32    30    1
    34    29     8   ar
    35    23    12   ar
    36    20    14   ar
    37     3    33    1
    38     4    34    1
    39     4    35    1
    40     6    36    1
    41     9    37    1
    42    10    38    1
    43    15    39    1
    44    16    40    1
    45    19    41    1
    46    20    42    1
    47    22    43    1
    48    24    44    1
    49    24    45    1
    50    25    46    1
    51    30    47    1
    52    31    48    1
    53    31    49    1
    54    32    50    1
    55    32    51    1
