@<TRIPOS>MOLECULE
*****
 96 102 0 0 0
SMALL
GASTEIGER

@<TRIPOS>ATOM
      1 C          -4.0298   -1.7002    0.8265 C.3     1  UNL1        0.0107
      2 C          -3.2568   -2.4001   -0.2571 C.3     1  UNL1        0.0200
      3 C          -1.8458   -1.9593   -0.3679 C.ar    1  UNL1       -0.0415
      4 C          -0.8850   -2.3314    0.5475 C.ar    1  UNL1       -0.0549
      5 C           0.4013   -1.8766    0.3784 C.ar    1  UNL1       -0.0191
      6 C           0.8104   -1.0656   -0.6509 C.ar    1  UNL1        0.1286
      7 O           1.9928   -0.5231   -0.9829 O.3     1  UNL1       -0.4517
      8 C           3.2853   -0.9373   -0.8811 C.ar    1  UNL1        0.1822
      9 C           4.2035   -0.0712   -0.2728 C.ar    1  UNL1        0.0499
     10 C           5.5363   -0.4956   -0.1702 C.ar    1  UNL1       -0.0266
     11 C           6.7111    0.2308    0.4208 C.3     1  UNL1        0.0135
     12 C           6.2439    1.6277    0.6610 C.3     1  UNL1       -0.0259
     13 N           4.9248    1.6218    1.2643 N.4     1  UNL1        0.2450
     14 C           4.7089    2.9206    1.8281 C.3     1  UNL1       -0.0409
     15 C           4.9217    0.6759    2.3785 C.3     1  UNL1       -0.0409
     16 C           3.9019    1.2743    0.2706 C.3     1  UNL1        0.0143
     17 C           2.5958    1.4338    0.9485 C.3     1  UNL1        0.0202
     18 C           1.5289    2.1076    0.1768 C.ar    1  UNL1       -0.0380
     19 C           0.3054    2.1517    0.8399 C.ar    1  UNL1       -0.0123
     20 C          -0.7992    2.7402    0.2619 C.ar    1  UNL1        0.1702
     21 O          -2.0279    2.8225    0.8465 O.3     1  UNL1       -0.4487
     22 C          -3.0927    1.9664    0.6734 C.ar    1  UNL1        0.1704
     23 C          -4.3152    2.5415    0.3129 C.ar    1  UNL1        0.1624
     24 O          -4.3969    3.9281    0.1484 O.3     1  UNL1       -0.4914
     25 C          -5.6497    4.4763   -0.2164 C.3     1  UNL1        0.0790
     26 C          -5.4038    1.7120    0.1313 C.ar    1  UNL1       -0.0125
     27 C          -5.2891    0.3273    0.3035 C.ar    1  UNL1       -0.0302
     28 C          -6.5768   -0.3724    0.0648 C.3     1  UNL1        0.0133
     29 C          -6.2693   -1.8479   -0.0734 C.3     1  UNL1       -0.0259
     30 N          -5.3595   -2.2377    0.9889 N.4     1  UNL1        0.2449
     31 C          -5.9447   -1.7934    2.2399 C.3     1  UNL1       -0.0409
     32 C          -5.3613   -3.6889    1.0000 C.3     1  UNL1       -0.0409
     33 C          -4.0790   -0.2339    0.6594 C.ar    1  UNL1        0.0076
     34 C          -3.0012    0.6013    0.8377 C.ar    1  UNL1       -0.0069
     35 C          -0.6948    3.2964   -0.9958 C.ar    1  UNL1        0.1621
     36 O          -1.7890    3.8986   -1.6114 O.3     1  UNL1       -0.4914
     37 C          -1.7349    4.4735   -2.8845 C.3     1  UNL1        0.0790
     38 C           0.4943    3.2778   -1.6917 C.ar    1  UNL1       -0.0160
     39 C           1.5543    2.6803   -1.0667 C.ar    1  UNL1       -0.0547
     40 C           5.9629   -1.7345   -0.6488 C.ar    1  UNL1       -0.0122
     41 C           5.0424   -2.5965   -1.2555 C.ar    1  UNL1        0.1655
     42 O           5.4558   -3.8393   -1.7391 O.3     1  UNL1       -0.4913
     43 C           6.7951   -4.2477   -1.6282 C.3     1  UNL1        0.0790
     44 C           3.7393   -2.1530   -1.3426 C.ar    1  UNL1        0.2046
     45 O           2.8977   -3.0704   -1.9572 O.3     1  UNL1       -0.4885
     46 C           2.2325   -4.1260   -1.2959 C.3     1  UNL1        0.0791
     47 C          -0.1638   -0.6825   -1.5883 C.ar    1  UNL1       -0.0191
     48 C          -1.4648   -1.1354   -1.4277 C.ar    1  UNL1       -0.0549
     49 H          -3.4995   -1.9008    1.7871 H       1  UNL1        0.0908
     50 H          -3.7977   -2.1598   -1.2207 H       1  UNL1        0.0372
     51 H          -3.2875   -3.4857   -0.1876 H       1  UNL1        0.0372
     52 H          -1.0920   -2.9559    1.3812 H       1  UNL1        0.0621
     53 H           1.2054   -2.1279    1.0563 H       1  UNL1        0.0654
     54 H           7.5439    0.2957   -0.3088 H       1  UNL1        0.0365
     55 H           7.0626   -0.3243    1.2873 H       1  UNL1        0.0365
     56 H           6.2077    2.1677   -0.2971 H       1  UNL1        0.0818
     57 H           6.9108    2.1345    1.4179 H       1  UNL1        0.0818
     58 H           4.1128    3.5515    1.1332 H       1  UNL1        0.0778
     59 H           4.2702    2.8961    2.8470 H       1  UNL1        0.0778
     60 H           5.6889    3.4207    1.9509 H       1  UNL1        0.0778
     61 H           5.9523    0.5254    2.7849 H       1  UNL1        0.0778
     62 H           4.4275   -0.2733    2.0824 H       1  UNL1        0.0778
     63 H           4.3554    1.1090    3.2473 H       1  UNL1        0.0778
     64 H           4.0907    1.9881   -0.5669 H       1  UNL1        0.0909
     65 H           2.1758    0.4733    1.3435 H       1  UNL1        0.0372
     66 H           2.6841    2.0476    1.9019 H       1  UNL1        0.0372
     67 H           0.1153    1.7378    1.8446 H       1  UNL1        0.0658
     68 H          -5.5744    5.5646   -0.4084 H       1  UNL1        0.0660
     69 H          -6.0028    4.0201   -1.1838 H       1  UNL1        0.0660
     70 H          -6.4416    4.2267    0.5196 H       1  UNL1        0.0660
     71 H          -6.3162    2.2285   -0.1472 H       1  UNL1        0.0658
     72 H          -7.3154   -0.1572    0.8649 H       1  UNL1        0.0365
     73 H          -7.0230    0.0124   -0.8739 H       1  UNL1        0.0365
     74 H          -7.1875   -2.4691    0.0251 H       1  UNL1        0.0818
     75 H          -5.8139   -1.9671   -1.0749 H       1  UNL1        0.0818
     76 H          -5.6404   -2.4917    3.0563 H       1  UNL1        0.0778
     77 H          -7.0612   -1.8603    2.2048 H       1  UNL1        0.0778
     78 H          -5.5914   -0.7992    2.5052 H       1  UNL1        0.0778
     79 H          -5.6191   -4.0890   -0.0137 H       1  UNL1        0.0778
     80 H          -6.2039   -4.0100    1.6439 H       1  UNL1        0.0778
     81 H          -4.4427   -4.1219    1.4102 H       1  UNL1        0.0778
     82 H          -2.0272    0.2306    1.1184 H       1  UNL1        0.0660
     83 H          -1.1813    5.4195   -2.9398 H       1  UNL1        0.0660
     84 H          -1.3083    3.7821   -3.6456 H       1  UNL1        0.0660
     85 H          -2.7873    4.6751   -3.1887 H       1  UNL1        0.0660
     86 H           0.6294    3.6949   -2.6696 H       1  UNL1        0.0655
     87 H           2.4958    2.6415   -1.5697 H       1  UNL1        0.0621
     88 H           6.9925   -2.1228   -0.5961 H       1  UNL1        0.0658
     89 H           7.5154   -3.4952   -2.0013 H       1  UNL1        0.0660
     90 H           6.9942   -4.3893   -0.5334 H       1  UNL1        0.0660
     91 H           6.9866   -5.1616   -2.2193 H       1  UNL1        0.0660
     92 H           2.7567   -5.1014   -1.4482 H       1  UNL1        0.0660
     93 H           1.1639   -4.2046   -1.5160 H       1  UNL1        0.0660
     94 H           2.3374   -3.9440   -0.1918 H       1  UNL1        0.0660
     95 H          -0.0237   -0.0440   -2.4690 H       1  UNL1        0.0654
     96 H          -2.2524   -0.8538   -2.1459 H       1  UNL1        0.0621
@<TRIPOS>UNITY_ATOM_ATTR
13 1
charge 1
30 1
charge 1
@<TRIPOS>BOND
     1     1     2    1
     2     2     3    1
     3     3     4   ar
     4     4     5   ar
     5     5     6   ar
     6     6     7    1
     7     7     8    1
     8     8     9   ar
     9     9    10   ar
    10    10    11    1
    11    11    12    1
    12    12    13    1
    13    13    14    1
    14    13    15    1
    15    13    16    1
    16    16    17    1
    17    17    18    1
    18    18    19   ar
    19    19    20   ar
    20    20    21    1
    21    21    22    1
    22    22    23   ar
    23    23    24    1
    24    24    25    1
    25    23    26   ar
    26    26    27   ar
    27    27    28    1
    28    28    29    1
    29    29    30    1
    30    30    31    1
    31    30    32    1
    32    27    33   ar
    33    33    34   ar
    34    20    35   ar
    35    35    36    1
    36    36    37    1
    37    35    38   ar
    38    38    39   ar
    39    10    40   ar
    40    40    41   ar
    41    41    42    1
    42    42    43    1
    43    41    44   ar
    44    44    45    1
    45    45    46    1
    46     6    47   ar
    47    47    48   ar
    48    30     1    1
    49    33     1    1
    50    48     3   ar
    51    44     8   ar
    52    16     9    1
    53    39    18   ar
    54    34    22   ar
    55     1    49    1
    56     2    50    1
    57     2    51    1
    58     4    52    1
    59     5    53    1
    60    11    54    1
    61    11    55    1
    62    12    56    1
    63    12    57    1
    64    14    58    1
    65    14    59    1
    66    14    60    1
    67    15    61    1
    68    15    62    1
    69    15    63    1
    70    16    64    1
    71    17    65    1
    72    17    66    1
    73    19    67    1
    74    25    68    1
    75    25    69    1
    76    25    70    1
    77    26    71    1
    78    28    72    1
    79    28    73    1
    80    29    74    1
    81    29    75    1
    82    31    76    1
    83    31    77    1
    84    31    78    1
    85    32    79    1
    86    32    80    1
    87    32    81    1
    88    34    82    1
    89    37    83    1
    90    37    84    1
    91    37    85    1
    92    38    86    1
    93    39    87    1
    94    40    88    1
    95    43    89    1
    96    43    90    1
    97    43    91    1
    98    46    92    1
    99    46    93    1
   100    46    94    1
   101    47    95    1
   102    48    96    1
