@<TRIPOS>MOLECULE
*****
 52 57 0 0 0
SMALL
GASTEIGER

@<TRIPOS>ATOM
      1 C           1.6809   -1.2525   -0.2180 C.3     1  UNL1       -0.0192
      2 C           1.9673   -2.4971    0.5911 C.3     1  UNL1       -0.0356
      3 C           2.9658   -2.1693    1.6770 C.3     1  UNL1       -0.0007
      4 N           3.5229   -0.8673    1.4114 N.3     1  UNL1       -0.3005
      5 C           4.1179   -0.9237    0.0965 C.3     1  UNL1       -0.0007
      6 C           2.9960   -0.8644   -0.9064 C.3     1  UNL1       -0.0356
      7 C           2.5651    0.2102    1.5128 C.3     1  UNL1        0.0175
      8 C           1.2846   -0.1636    0.7888 C.3     1  UNL1        0.0363
      9 N           0.4816    0.8356    0.2455 N.pl3   1  UNL1       -0.3383
     10 C          -0.4918    1.6616   -0.3087 C.ar    1  UNL1        0.0527
     11 C          -1.7472    1.1658   -0.5938 C.ar    1  UNL1        0.1028
     12 C          -2.1859   -0.2009   -0.3382 C.ar    1  UNL1        0.1463
     13 N          -1.5487   -1.2440    0.1941 N.ar    1  UNL1       -0.2275
     14 C          -2.2773   -2.3550    0.2728 C.ar    1  UNL1        0.0895
     15 C          -2.0257   -3.6341    0.7422 C.ar    1  UNL1       -0.0342
     16 C          -2.9999   -4.6028    0.6934 C.ar    1  UNL1       -0.0596
     17 C          -4.2204   -4.2837    0.1746 C.ar    1  UNL1       -0.0597
     18 C          -4.4326   -3.0014   -0.2819 C.ar    1  UNL1       -0.0362
     19 C          -3.4865   -1.9869   -0.2566 C.ar    1  UNL1        0.0665
     20 N          -3.3787   -0.7047   -0.6018 N.ar    1  UNL1       -0.3377
     21 C          -2.6666    2.0296   -1.1524 C.ar    1  UNL1        0.2617
     22 O          -3.8545    1.7914   -1.4885 O.2     1  UNL1       -0.2671
     23 N          -2.3424    3.2825   -1.3989 N.ar    1  UNL1       -0.3214
     24 C          -1.1618    3.8619   -1.1623 C.ar    1  UNL1        0.0511
     25 C          -0.2405    3.0088   -0.6064 C.ar    1  UNL1        0.0214
     26 C           0.9898    3.5833   -0.3489 C.ar    1  UNL1       -0.0325
     27 C           1.3122    4.8884   -0.6085 C.ar    1  UNL1        0.0417
     28 CL          2.8598    5.5940   -0.2799 Cl      1  UNL1       -0.0835
     29 C           0.3573    5.7172   -1.1693 C.ar    1  UNL1       -0.0414
     30 C          -0.8764    5.1834   -1.4392 C.ar    1  UNL1       -0.0363
     31 H           0.9304   -1.4158   -0.9927 H       1  UNL1        0.0320
     32 H           2.3481   -3.3060   -0.0702 H       1  UNL1        0.0281
     33 H           1.0305   -2.7936    1.0735 H       1  UNL1        0.0281
     34 H           3.8146   -2.8837    1.6040 H       1  UNL1        0.0427
     35 H           2.5020   -2.1952    2.6743 H       1  UNL1        0.0427
     36 H           4.8517   -0.1052   -0.0376 H       1  UNL1        0.0427
     37 H           4.6658   -1.8855   -0.0039 H       1  UNL1        0.0427
     38 H           3.1588   -1.6465   -1.6812 H       1  UNL1        0.0281
     39 H           2.9521    0.1253   -1.3721 H       1  UNL1        0.0281
     40 H           3.0528    1.0975    1.0649 H       1  UNL1        0.0445
     41 H           2.3770    0.3883    2.5931 H       1  UNL1        0.0445
     42 H           0.6757   -0.7260    1.5588 H       1  UNL1        0.0513
     43 H           1.3506    1.3563    0.3321 H       1  UNL1        0.1464
     44 H          -1.0732   -3.9206    1.1587 H       1  UNL1        0.0639
     45 H          -2.7910   -5.5992    1.0635 H       1  UNL1        0.0618
     46 H          -4.9789   -5.0377    0.1366 H       1  UNL1        0.0618
     47 H          -5.4155   -2.7440   -0.6998 H       1  UNL1        0.0639
     48 H          -4.2385   -0.3085   -1.0186 H       1  UNL1        0.1674
     49 H          -3.0256    3.9601   -1.8244 H       1  UNL1        0.1689
     50 H           1.8096    3.0500    0.0845 H       1  UNL1        0.0639
     51 H           0.4915    6.7525   -1.4168 H       1  UNL1        0.0633
     52 H          -1.6531    5.7749   -1.8719 H       1  UNL1        0.0639
@<TRIPOS>BOND
     1     1     2    1
     2     2     3    1
     3     4     3    1
     4     4     5    1
     5     5     6    1
     6     4     7    1
     7     7     8    1
     8     8     9    1
     9     9    10    1
    10    10    11   ar
    11    11    12    1
    12    12    13   ar
    13    13    14   ar
    14    14    15   ar
    15    15    16   ar
    16    16    17   ar
    17    17    18   ar
    18    18    19   ar
    19    19    20   ar
    20    11    21   ar
    21    21    22    2
    22    21    23   ar
    23    23    24   ar
    24    24    25   ar
    25    25    26   ar
    26    26    27   ar
    27    27    28    1
    28    27    29   ar
    29    29    30   ar
    30     6     1    1
    31    25    10   ar
    32     8     1    1
    33    20    12   ar
    34    30    24   ar
    35    19    14   ar
    36     1    31    1
    37     2    32    1
    38     2    33    1
    39     3    34    1
    40     3    35    1
    41     5    36    1
    42     5    37    1
    43     6    38    1
    44     6    39    1
    45     7    40    1
    46     7    41    1
    47     8    42    1
    48     9    43    1
    49    15    44    1
    50    16    45    1
    51    17    46    1
    52    18    47    1
    53    20    48    1
    54    23    49    1
    55    26    50    1
    56    29    51    1
    57    30    52    1
