
     RDKit          3D

 52 57  0  0  0  0  0  0  0  0999 V2000
    1.6809   -1.2525   -0.2180 C   0  0  2  0  0  0  0  0  0  0  0  0
    1.9673   -2.4971    0.5911 C   0  0  0  0  0  0  0  0  0  0  0  0
    2.9658   -2.1693    1.6770 C   0  0  0  0  0  0  0  0  0  0  0  0
    3.5229   -0.8673    1.4114 N   0  0  0  0  0  0  0  0  0  0  0  0
    4.1179   -0.9237    0.0965 C   0  0  0  0  0  0  0  0  0  0  0  0
    2.9960   -0.8644   -0.9064 C   0  0  0  0  0  0  0  0  0  0  0  0
    2.5651    0.2102    1.5128 C   0  0  0  0  0  0  0  0  0  0  0  0
    1.2846   -0.1636    0.7888 C   0  0  1  0  0  0  0  0  0  0  0  0
    0.4816    0.8356    0.2455 N   0  0  0  0  0  0  0  0  0  0  0  0
   -0.4918    1.6616   -0.3087 C   0  0  0  0  0  0  0  0  0  0  0  0
   -1.7472    1.1658   -0.5938 C   0  0  0  0  0  0  0  0  0  0  0  0
   -2.1859   -0.2009   -0.3382 C   0  0  0  0  0  0  0  0  0  0  0  0
   -1.5487   -1.2440    0.1941 N   0  0  0  0  0  0  0  0  0  0  0  0
   -2.2773   -2.3550    0.2728 C   0  0  0  0  0  0  0  0  0  0  0  0
   -2.0257   -3.6341    0.7422 C   0  0  0  0  0  0  0  0  0  0  0  0
   -2.9999   -4.6028    0.6934 C   0  0  0  0  0  0  0  0  0  0  0  0
   -4.2204   -4.2837    0.1746 C   0  0  0  0  0  0  0  0  0  0  0  0
   -4.4326   -3.0014   -0.2819 C   0  0  0  0  0  0  0  0  0  0  0  0
   -3.4865   -1.9869   -0.2566 C   0  0  0  0  0  0  0  0  0  0  0  0
   -3.3787   -0.7047   -0.6018 N   0  0  0  0  0  0  0  0  0  0  0  0
   -2.6666    2.0296   -1.1524 C   0  0  0  0  0  0  0  0  0  0  0  0
   -3.8545    1.7914   -1.4885 O   0  0  0  0  0  0  0  0  0  0  0  0
   -2.3424    3.2825   -1.3989 N   0  0  0  0  0  0  0  0  0  0  0  0
   -1.1618    3.8619   -1.1623 C   0  0  0  0  0  0  0  0  0  0  0  0
   -0.2405    3.0088   -0.6064 C   0  0  0  0  0  0  0  0  0  0  0  0
    0.9898    3.5833   -0.3489 C   0  0  0  0  0  0  0  0  0  0  0  0
    1.3122    4.8884   -0.6085 C   0  0  0  0  0  0  0  0  0  0  0  0
    2.8598    5.5940   -0.2799 Cl  0  0  0  0  0  0  0  0  0  0  0  0
    0.3573    5.7172   -1.1693 C   0  0  0  0  0  0  0  0  0  0  0  0
   -0.8764    5.1834   -1.4392 C   0  0  0  0  0  0  0  0  0  0  0  0
    0.9304   -1.4158   -0.9927 H   0  0  0  0  0  0  0  0  0  0  0  0
    2.3481   -3.3060   -0.0702 H   0  0  0  0  0  0  0  0  0  0  0  0
    1.0305   -2.7936    1.0735 H   0  0  0  0  0  0  0  0  0  0  0  0
    3.8146   -2.8837    1.6040 H   0  0  0  0  0  0  0  0  0  0  0  0
    2.5020   -2.1952    2.6743 H   0  0  0  0  0  0  0  0  0  0  0  0
    4.8517   -0.1052   -0.0376 H   0  0  0  0  0  0  0  0  0  0  0  0
    4.6658   -1.8855   -0.0039 H   0  0  0  0  0  0  0  0  0  0  0  0
    3.1588   -1.6465   -1.6812 H   0  0  0  0  0  0  0  0  0  0  0  0
    2.9521    0.1253   -1.3721 H   0  0  0  0  0  0  0  0  0  0  0  0
    3.0528    1.0975    1.0649 H   0  0  0  0  0  0  0  0  0  0  0  0
    2.3770    0.3883    2.5931 H   0  0  0  0  0  0  0  0  0  0  0  0
    0.6757   -0.7260    1.5588 H   0  0  0  0  0  0  0  0  0  0  0  0
    1.3506    1.3563    0.3321 H   0  0  0  0  0  0  0  0  0  0  0  0
   -1.0732   -3.9206    1.1587 H   0  0  0  0  0  0  0  0  0  0  0  0
   -2.7910   -5.5992    1.0635 H   0  0  0  0  0  0  0  0  0  0  0  0
   -4.9789   -5.0377    0.1366 H   0  0  0  0  0  0  0  0  0  0  0  0
   -5.4155   -2.7440   -0.6998 H   0  0  0  0  0  0  0  0  0  0  0  0
   -4.2385   -0.3085   -1.0186 H   0  0  0  0  0  0  0  0  0  0  0  0
   -3.0256    3.9601   -1.8244 H   0  0  0  0  0  0  0  0  0  0  0  0
    1.8096    3.0500    0.0845 H   0  0  0  0  0  0  0  0  0  0  0  0
    0.4915    6.7525   -1.4168 H   0  0  0  0  0  0  0  0  0  0  0  0
   -1.6531    5.7749   -1.8719 H   0  0  0  0  0  0  0  0  0  0  0  0
  1  2  1  0
  2  3  1  0
  4  3  1  6
  4  5  1  0
  5  6  1  0
  4  7  1  0
  7  8  1  0
  8  9  1  0
  9 10  1  0
 10 11  2  0
 11 12  1  0
 12 13  2  0
 13 14  1  0
 14 15  2  0
 15 16  1  0
 16 17  2  0
 17 18  1  0
 18 19  2  0
 19 20  1  0
 11 21  1  0
 21 22  2  0
 21 23  1  0
 23 24  1  0
 24 25  2  0
 25 26  1  0
 26 27  2  0
 27 28  1  0
 27 29  1  0
 29 30  2  0
  6  1  1  0
 25 10  1  0
  8  1  1  0
 20 12  1  0
 30 24  1  0
 19 14  1  0
  1 31  1  6
  2 32  1  0
  2 33  1  0
  3 34  1  0
  3 35  1  0
  5 36  1  0
  5 37  1  0
  6 38  1  0
  6 39  1  0
  7 40  1  0
  7 41  1  0
  8 42  1  1
  9 43  1  0
 15 44  1  0
 16 45  1  0
 17 46  1  0
 18 47  1  0
 20 48  1  0
 23 49  1  0
 26 50  1  0
 29 51  1  0
 30 52  1  0
M  END
$$$$
