@<TRIPOS>MOLECULE
*****
 76 80 0 0 0
SMALL
GASTEIGER

@<TRIPOS>ATOM
      1 C          -7.9517    0.3139    0.7224 C.3     1  UNL1       -0.0649
      2 C          -7.1335   -0.6217   -0.1455 C.3     1  UNL1       -0.0504
      3 C          -6.7495    0.1108   -1.4230 C.3     1  UNL1       -0.0068
      4 C          -5.9546    1.2983   -1.0235 C.ar    1  UNL1        0.0891
      5 N          -6.3398    2.5807   -0.9764 N.ar    1  UNL1       -0.1736
      6 N          -5.3478    3.3291   -0.5696 N.ar    1  UNL1       -0.2598
      7 C          -5.4158    4.7595   -0.4040 C.3     1  UNL1        0.0311
      8 C          -4.2599    2.5634   -0.3302 C.ar    1  UNL1        0.1513
      9 C          -2.9826    2.8172    0.1015 C.ar    1  UNL1        0.2775
     10 O          -2.6445    3.9879    0.3598 O.2     1  UNL1       -0.2655
     11 N          -2.1004    1.7832    0.2419 N.ar    1  UNL1       -0.3051
     12 C          -2.4475    0.5143   -0.0319 C.ar    1  UNL1        0.1452
     13 C          -1.5194   -0.5944    0.1148 C.ar    1  UNL1        0.0607
     14 C          -0.2183   -0.4083    0.5589 C.ar    1  UNL1       -0.0265
     15 C           0.6893   -1.4491    0.7066 C.ar    1  UNL1        0.0306
     16 N           2.0234   -1.2405    1.1519 N.pl3   1  UNL1       -0.3293
     17 C           2.8382   -2.3220    1.6714 C.3     1  UNL1        0.0122
     18 C           3.9863   -2.4643    0.6609 C.3     1  UNL1       -0.0367
     19 C           4.8340   -1.2294    0.8707 C.3     1  UNL1       -0.0445
     20 C           4.1000    0.0522    0.7210 C.3     1  UNL1       -0.0135
     21 C           4.3001    0.5245   -0.7120 C.3     1  UNL1       -0.0452
     22 C           5.1860    1.7228   -0.8180 C.3     1  UNL1       -0.0413
     23 C           6.4628    1.6324   -0.0496 C.3     1  UNL1        0.0376
     24 C           7.5284    0.9122   -0.7852 C.2     1  UNL1        0.2385
     25 O           7.3449    0.4402   -1.9336 O.2     1  UNL1       -0.2734
     26 N           8.8068    0.7382   -0.1914 N.am    1  UNL1       -0.1973
     27 O           9.7887    0.0797   -0.8578 O.3     1  UNL1       -0.2952
     28 C           6.2765    1.0705    1.3518 C.3     1  UNL1       -0.0413
     29 C           4.8052    1.0694    1.6347 C.3     1  UNL1       -0.0452
     30 C           2.6645    0.0584    1.1101 C.3     1  UNL1        0.0178
     31 C           0.2163   -2.6986    0.3816 C.ar    1  UNL1       -0.0372
     32 C          -1.0733   -2.9143   -0.0627 C.ar    1  UNL1       -0.0175
     33 C          -1.9480   -1.8666   -0.1989 C.ar    1  UNL1        0.1312
     34 O          -3.2671   -2.0678   -0.6508 O.3     1  UNL1       -0.4915
     35 C          -3.6785   -3.3888   -0.9656 C.3     1  UNL1        0.0868
     36 C          -5.0991   -3.4461   -1.4321 C.3     1  UNL1       -0.0307
     37 N          -3.7038    0.3062   -0.4511 N.ar    1  UNL1       -0.2254
     38 C          -4.6286    1.2660   -0.6144 C.ar    1  UNL1        0.1192
     39 H          -7.3358    1.0773    1.2081 H       1  UNL1        0.0230
     40 H          -8.7151    0.7833    0.0896 H       1  UNL1        0.0230
     41 H          -8.5007   -0.2927    1.4931 H       1  UNL1        0.0230
     42 H          -7.6878   -1.5403   -0.3685 H       1  UNL1        0.0266
     43 H          -6.1966   -0.9126    0.3598 H       1  UNL1        0.0266
     44 H          -7.6431    0.3895   -2.0105 H       1  UNL1        0.0329
     45 H          -6.0860   -0.5615   -2.0027 H       1  UNL1        0.0329
     46 H          -4.4442    5.2568   -0.4237 H       1  UNL1        0.0473
     47 H          -6.0148    4.9884    0.5194 H       1  UNL1        0.0473
     48 H          -6.0572    5.1476   -1.2474 H       1  UNL1        0.0473
     49 H          -1.1696    2.0509    0.5675 H       1  UNL1        0.1704
     50 H           0.1370    0.5635    0.8133 H       1  UNL1        0.0644
     51 H           2.3437   -3.2773    1.7800 H       1  UNL1        0.0464
     52 H           3.3190   -1.9825    2.6359 H       1  UNL1        0.0464
     53 H           3.5483   -2.4358   -0.3348 H       1  UNL1        0.0281
     54 H           4.6054   -3.3304    0.8891 H       1  UNL1        0.0281
     55 H           5.3130   -1.2978    1.8842 H       1  UNL1        0.0272
     56 H           5.6668   -1.2836    0.1344 H       1  UNL1        0.0272
     57 H           3.2979    0.7958   -1.1015 H       1  UNL1        0.0271
     58 H           4.6698   -0.2920   -1.3681 H       1  UNL1        0.0271
     59 H           5.4704    1.8125   -1.9063 H       1  UNL1        0.0273
     60 H           4.5950    2.6367   -0.6028 H       1  UNL1        0.0273
     61 H           6.8286    2.6904    0.0939 H       1  UNL1        0.0395
     62 H           8.9690    1.1341    0.7779 H       1  UNL1        0.1822
     63 H          10.0486    0.5922   -1.6691 H       1  UNL1        0.2414
     64 H           6.7344    0.0762    1.3859 H       1  UNL1        0.0273
     65 H           6.7884    1.6906    2.1127 H       1  UNL1        0.0273
     66 H           4.4117    2.0862    1.4108 H       1  UNL1        0.0271
     67 H           4.6054    0.7827    2.6886 H       1  UNL1        0.0271
     68 H           2.0817    0.7043    0.4131 H       1  UNL1        0.0469
     69 H           2.5151    0.5028    2.1168 H       1  UNL1        0.0469
     70 H           0.8927   -3.5633    0.4731 H       1  UNL1        0.0637
     71 H          -1.3973   -3.9070   -0.3039 H       1  UNL1        0.0655
     72 H          -3.5486   -4.0916   -0.1208 H       1  UNL1        0.0694
     73 H          -3.0414   -3.7774   -1.8006 H       1  UNL1        0.0694
     74 H          -5.2947   -2.8008   -2.2985 H       1  UNL1        0.0262
     75 H          -5.3572   -4.5181   -1.6370 H       1  UNL1        0.0262
     76 H          -5.7391   -3.1160   -0.5896 H       1  UNL1        0.0262
@<TRIPOS>BOND
     1     1     2    1
     2     2     3    1
     3     3     4    1
     4     4     5   ar
     5     5     6   ar
     6     6     7    1
     7     6     8   ar
     8     8     9   ar
     9     9    10    2
    10     9    11   ar
    11    11    12   ar
    12    12    13    1
    13    13    14   ar
    14    14    15   ar
    15    15    16    1
    16    16    17    1
    17    17    18    1
    18    18    19    1
    19    19    20    1
    20    20    21    1
    21    21    22    1
    22    22    23    1
    23    23    24    1
    24    24    25    2
    25    24    26   am
    26    26    27    1
    27    23    28    1
    28    28    29    1
    29    20    30    1
    30    15    31   ar
    31    31    32   ar
    32    32    33   ar
    33    33    34    1
    34    34    35    1
    35    35    36    1
    36    12    37   ar
    37    37    38   ar
    38    38     4   ar
    39    38     8   ar
    40    33    13   ar
    41    30    16    1
    42    29    20    1
    43     1    39    1
    44     1    40    1
    45     1    41    1
    46     2    42    1
    47     2    43    1
    48     3    44    1
    49     3    45    1
    50     7    46    1
    51     7    47    1
    52     7    48    1
    53    11    49    1
    54    14    50    1
    55    17    51    1
    56    17    52    1
    57    18    53    1
    58    18    54    1
    59    19    55    1
    60    19    56    1
    61    21    57    1
    62    21    58    1
    63    22    59    1
    64    22    60    1
    65    23    61    1
    66    26    62    1
    67    27    63    1
    68    28    64    1
    69    28    65    1
    70    29    66    1
    71    29    67    1
    72    30    68    1
    73    30    69    1
    74    31    70    1
    75    32    71    1
    76    35    72    1
    77    35    73    1
    78    36    74    1
    79    36    75    1
    80    36    76    1
