
     RDKit          3D

 76 80  0  0  0  0  0  0  0  0999 V2000
   -7.9517    0.3139    0.7224 C   0  0  0  0  0  0  0  0  0  0  0  0
   -7.1335   -0.6217   -0.1455 C   0  0  0  0  0  0  0  0  0  0  0  0
   -6.7495    0.1108   -1.4230 C   0  0  0  0  0  0  0  0  0  0  0  0
   -5.9546    1.2983   -1.0235 C   0  0  0  0  0  0  0  0  0  0  0  0
   -6.3398    2.5807   -0.9764 N   0  0  0  0  0  0  0  0  0  0  0  0
   -5.3478    3.3291   -0.5696 N   0  0  0  0  0  0  0  0  0  0  0  0
   -5.4158    4.7595   -0.4040 C   0  0  0  0  0  0  0  0  0  0  0  0
   -4.2599    2.5634   -0.3302 C   0  0  0  0  0  0  0  0  0  0  0  0
   -2.9826    2.8172    0.1015 C   0  0  0  0  0  0  0  0  0  0  0  0
   -2.6445    3.9879    0.3598 O   0  0  0  0  0  0  0  0  0  0  0  0
   -2.1004    1.7832    0.2419 N   0  0  0  0  0  0  0  0  0  0  0  0
   -2.4475    0.5143   -0.0319 C   0  0  0  0  0  0  0  0  0  0  0  0
   -1.5194   -0.5944    0.1148 C   0  0  0  0  0  0  0  0  0  0  0  0
   -0.2183   -0.4083    0.5589 C   0  0  0  0  0  0  0  0  0  0  0  0
    0.6893   -1.4491    0.7066 C   0  0  0  0  0  0  0  0  0  0  0  0
    2.0234   -1.2405    1.1519 N   0  0  0  0  0  0  0  0  0  0  0  0
    2.8382   -2.3220    1.6714 C   0  0  0  0  0  0  0  0  0  0  0  0
    3.9863   -2.4643    0.6609 C   0  0  0  0  0  0  0  0  0  0  0  0
    4.8340   -1.2294    0.8707 C   0  0  0  0  0  0  0  0  0  0  0  0
    4.1000    0.0522    0.7210 C   0  0  0  0  0  0  0  0  0  0  0  0
    4.3001    0.5245   -0.7120 C   0  0  0  0  0  0  0  0  0  0  0  0
    5.1860    1.7228   -0.8180 C   0  0  0  0  0  0  0  0  0  0  0  0
    6.4628    1.6324   -0.0496 C   0  0  0  0  0  0  0  0  0  0  0  0
    7.5284    0.9122   -0.7852 C   0  0  0  0  0  0  0  0  0  0  0  0
    7.3449    0.4402   -1.9336 O   0  0  0  0  0  0  0  0  0  0  0  0
    8.8068    0.7382   -0.1914 N   0  0  0  0  0  0  0  0  0  0  0  0
    9.7887    0.0797   -0.8578 O   0  0  0  0  0  0  0  0  0  0  0  0
    6.2765    1.0705    1.3518 C   0  0  0  0  0  0  0  0  0  0  0  0
    4.8052    1.0694    1.6347 C   0  0  0  0  0  0  0  0  0  0  0  0
    2.6645    0.0584    1.1101 C   0  0  0  0  0  0  0  0  0  0  0  0
    0.2163   -2.6986    0.3816 C   0  0  0  0  0  0  0  0  0  0  0  0
   -1.0733   -2.9143   -0.0627 C   0  0  0  0  0  0  0  0  0  0  0  0
   -1.9480   -1.8666   -0.1989 C   0  0  0  0  0  0  0  0  0  0  0  0
   -3.2671   -2.0678   -0.6508 O   0  0  0  0  0  0  0  0  0  0  0  0
   -3.6785   -3.3888   -0.9656 C   0  0  0  0  0  0  0  0  0  0  0  0
   -5.0991   -3.4461   -1.4321 C   0  0  0  0  0  0  0  0  0  0  0  0
   -3.7038    0.3062   -0.4511 N   0  0  0  0  0  0  0  0  0  0  0  0
   -4.6286    1.2660   -0.6144 C   0  0  0  0  0  0  0  0  0  0  0  0
   -7.3358    1.0773    1.2081 H   0  0  0  0  0  0  0  0  0  0  0  0
   -8.7151    0.7833    0.0896 H   0  0  0  0  0  0  0  0  0  0  0  0
   -8.5007   -0.2927    1.4931 H   0  0  0  0  0  0  0  0  0  0  0  0
   -7.6878   -1.5403   -0.3685 H   0  0  0  0  0  0  0  0  0  0  0  0
   -6.1966   -0.9126    0.3598 H   0  0  0  0  0  0  0  0  0  0  0  0
   -7.6431    0.3895   -2.0105 H   0  0  0  0  0  0  0  0  0  0  0  0
   -6.0860   -0.5615   -2.0027 H   0  0  0  0  0  0  0  0  0  0  0  0
   -4.4442    5.2568   -0.4237 H   0  0  0  0  0  0  0  0  0  0  0  0
   -6.0148    4.9884    0.5194 H   0  0  0  0  0  0  0  0  0  0  0  0
   -6.0572    5.1476   -1.2474 H   0  0  0  0  0  0  0  0  0  0  0  0
   -1.1696    2.0509    0.5675 H   0  0  0  0  0  0  0  0  0  0  0  0
    0.1370    0.5635    0.8133 H   0  0  0  0  0  0  0  0  0  0  0  0
    2.3437   -3.2773    1.7800 H   0  0  0  0  0  0  0  0  0  0  0  0
    3.3190   -1.9825    2.6359 H   0  0  0  0  0  0  0  0  0  0  0  0
    3.5483   -2.4358   -0.3348 H   0  0  0  0  0  0  0  0  0  0  0  0
    4.6054   -3.3304    0.8891 H   0  0  0  0  0  0  0  0  0  0  0  0
    5.3130   -1.2978    1.8842 H   0  0  0  0  0  0  0  0  0  0  0  0
    5.6668   -1.2836    0.1344 H   0  0  0  0  0  0  0  0  0  0  0  0
    3.2979    0.7958   -1.1015 H   0  0  0  0  0  0  0  0  0  0  0  0
    4.6698   -0.2920   -1.3681 H   0  0  0  0  0  0  0  0  0  0  0  0
    5.4704    1.8125   -1.9063 H   0  0  0  0  0  0  0  0  0  0  0  0
    4.5950    2.6367   -0.6028 H   0  0  0  0  0  0  0  0  0  0  0  0
    6.8286    2.6904    0.0939 H   0  0  0  0  0  0  0  0  0  0  0  0
    8.9690    1.1341    0.7779 H   0  0  0  0  0  0  0  0  0  0  0  0
   10.0486    0.5922   -1.6691 H   0  0  0  0  0  0  0  0  0  0  0  0
    6.7344    0.0762    1.3859 H   0  0  0  0  0  0  0  0  0  0  0  0
    6.7884    1.6906    2.1127 H   0  0  0  0  0  0  0  0  0  0  0  0
    4.4117    2.0862    1.4108 H   0  0  0  0  0  0  0  0  0  0  0  0
    4.6054    0.7827    2.6886 H   0  0  0  0  0  0  0  0  0  0  0  0
    2.0817    0.7043    0.4131 H   0  0  0  0  0  0  0  0  0  0  0  0
    2.5151    0.5028    2.1168 H   0  0  0  0  0  0  0  0  0  0  0  0
    0.8927   -3.5633    0.4731 H   0  0  0  0  0  0  0  0  0  0  0  0
   -1.3973   -3.9070   -0.3039 H   0  0  0  0  0  0  0  0  0  0  0  0
   -3.5486   -4.0916   -0.1208 H   0  0  0  0  0  0  0  0  0  0  0  0
   -3.0414   -3.7774   -1.8006 H   0  0  0  0  0  0  0  0  0  0  0  0
   -5.2947   -2.8008   -2.2985 H   0  0  0  0  0  0  0  0  0  0  0  0
   -5.3572   -4.5181   -1.6370 H   0  0  0  0  0  0  0  0  0  0  0  0
   -5.7391   -3.1160   -0.5896 H   0  0  0  0  0  0  0  0  0  0  0  0
  1  2  1  0
  2  3  1  0
  3  4  1  0
  4  5  2  0
  5  6  1  0
  6  7  1  0
  6  8  1  0
  8  9  1  0
  9 10  2  0
  9 11  1  0
 11 12  1  0
 12 13  1  0
 13 14  2  0
 14 15  1  0
 15 16  1  0
 16 17  1  0
 17 18  1  0
 18 19  1  0
 19 20  1  0
 20 21  1  0
 21 22  1  0
 22 23  1  0
 23 24  1  0
 24 25  2  0
 24 26  1  0
 26 27  1  0
 23 28  1  0
 28 29  1  0
 20 30  1  0
 15 31  2  0
 31 32  1  0
 32 33  2  0
 33 34  1  0
 34 35  1  0
 35 36  1  0
 12 37  2  0
 37 38  1  0
 38  4  1  0
 38  8  2  0
 33 13  1  0
 30 16  1  0
 29 20  1  0
  1 39  1  0
  1 40  1  0
  1 41  1  0
  2 42  1  0
  2 43  1  0
  3 44  1  0
  3 45  1  0
  7 46  1  0
  7 47  1  0
  7 48  1  0
 11 49  1  0
 14 50  1  0
 17 51  1  0
 17 52  1  0
 18 53  1  0
 18 54  1  0
 19 55  1  0
 19 56  1  0
 21 57  1  0
 21 58  1  0
 22 59  1  0
 22 60  1  0
 23 61  1  0
 26 62  1  0
 27 63  1  0
 28 64  1  0
 28 65  1  0
 29 66  1  0
 29 67  1  0
 30 68  1  0
 30 69  1  0
 31 70  1  0
 32 71  1  0
 35 72  1  0
 35 73  1  0
 36 74  1  0
 36 75  1  0
 36 76  1  0
M  END
$$$$
