@<TRIPOS>MOLECULE
*****
 29 29 0 0 0
SMALL
GASTEIGER

@<TRIPOS>ATOM
      1 CA         -3.0352   -0.5266    0.1743 C.3     1  UNL1        0.1072
      2 N          -2.9418   -0.5537   -1.2721 N.3     1  UNL1       -0.3181
      3 C          -1.8574   -1.2636    0.7767 C.3     1  UNL1       -0.0020
      4 C          -0.5664   -0.6747    0.4038 C.ar    1  UNL1       -0.0453
      5 C           0.0539   -1.1440   -0.7489 C.ar    1  UNL1       -0.0582
      6 C           1.2699   -0.6550   -1.1852 C.ar    1  UNL1       -0.0580
      7 C           1.8441    0.3318   -0.4128 C.ar    1  UNL1       -0.0389
      8 C           3.1557    0.8853   -0.8496 C.3     1  UNL1        0.0680
      9 C           4.2509    0.0579   -0.2131 C.3     1  UNL1        0.3940
     10 F           4.1356    0.1298    1.1578 F       1  UNL1       -0.1704
     11 F           4.1703   -1.2656   -0.5874 F       1  UNL1       -0.1704
     12 F           5.4805    0.5213   -0.6102 F       1  UNL1       -0.1704
     13 C           1.2635    0.8280    0.7398 C.ar    1  UNL1       -0.0580
     14 C           0.0588    0.3136    1.1332 C.ar    1  UNL1       -0.0582
     15 C          -3.1116    0.8514    0.6880 C.2     1  UNL1        0.3220
     16 O          -3.1128    2.1037    0.0852 O.3     1  UNL1       -0.4795
     17 OXT        -3.1992    1.1642    1.9044 O.2     1  UNL1       -0.2492
     18 HA         -3.9452   -1.1044    0.4757 H       1  UNL1        0.0577
     19 H1         -3.5047    0.2346   -1.7026 H       1  UNL1        0.1190
     20 H2         -3.2715   -1.4797   -1.6278 H       1  UNL1        0.1190
     21 H          -1.9870   -1.2909    1.8792 H       1  UNL1        0.0334
     22 H          -1.9081   -2.3116    0.4042 H       1  UNL1        0.0334
     23 H          -0.3873   -1.9201   -1.3654 H       1  UNL1        0.0620
     24 H           1.7646   -1.0160   -2.0874 H       1  UNL1        0.0620
     25 H           3.2229    0.7880   -1.9643 H       1  UNL1        0.0400
     26 H           3.2157    1.9312   -0.5364 H       1  UNL1        0.0400
     27 H           1.7330    1.6121    1.3418 H       1  UNL1        0.0620
     28 H          -0.4312    0.6649    2.0187 H       1  UNL1        0.0620
     29 H          -2.3598    2.7881    0.2387 H       1  UNL1        0.2951
@<TRIPOS>BOND
     1     1     2    1
     2     1     3    1
     3     3     4    1
     4     4     5   ar
     5     5     6   ar
     6     6     7   ar
     7     7     8    1
     8     8     9    1
     9     9    10    1
    10     9    11    1
    11     9    12    1
    12     7    13   ar
    13    13    14   ar
    14     1    15    1
    15    15    16    1
    16    15    17    2
    17    14     4   ar
    18     1    18    1
    19     2    19    1
    20     2    20    1
    21     3    21    1
    22     3    22    1
    23     5    23    1
    24     6    24    1
    25     8    25    1
    26     8    26    1
    27    13    27    1
    28    14    28    1
    29    16    29    1
