@<TRIPOS>MOLECULE
*****
 52 56 0 0 0
SMALL
GASTEIGER

@<TRIPOS>ATOM
      1 C          -5.8459   -1.6127   -1.5083 C.3     1  UNL1        0.0788
      2 O          -4.9198   -1.3133   -2.4999 O.3     1  UNL1       -0.4951
      3 C          -3.6146   -0.9381   -2.2880 C.ar    1  UNL1        0.1201
      4 C          -3.1519   -0.8348   -0.9919 C.ar    1  UNL1       -0.0196
      5 C          -1.8554   -0.4634   -0.7068 C.ar    1  UNL1       -0.0505
      6 C          -0.9553   -0.1757   -1.7294 C.ar    1  UNL1        0.0123
      7 C           0.4121    0.2224   -1.3063 C.3     1  UNL1        0.2765
      8 C           0.9006   -0.8735   -0.4230 C.ar    1  UNL1        0.0126
      9 C           1.2672   -2.0577   -1.0265 C.ar    1  UNL1       -0.0539
     10 C           1.7326   -3.1422   -0.3261 C.ar    1  UNL1       -0.0608
     11 C           1.8311   -3.0235    1.0439 C.ar    1  UNL1       -0.0539
     12 C           1.4729   -1.8525    1.6860 C.ar    1  UNL1       -0.0146
     13 C           1.5910   -1.7714    3.1339 C.ar    1  UNL1        0.0183
     14 C           2.5718   -2.4578    3.8123 C.ar    1  UNL1        0.0385
     15 N           2.6621   -2.3698    5.1619 N.ar    1  UNL1       -0.2431
     16 C           1.8107   -1.6196    5.8883 C.ar    1  UNL1        0.1159
     17 N           0.8541   -0.9485    5.2430 N.ar    1  UNL1       -0.2431
     18 C           0.7177   -1.0004    3.8929 C.ar    1  UNL1        0.0385
     19 C           1.0095   -0.7894    0.9276 C.ar    1  UNL1       -0.0462
     20 N           1.3235    0.3454   -2.3889 N.2     1  UNL1       -0.0797
     21 C           1.8989    1.4861   -2.3818 C.cat   1  UNL1        0.4035
     22 N           2.8741    1.9884   -3.2936 N.pl3   1  UNL1       -0.2440
     23 N           1.4112    2.3086   -1.2990 N.pl3   1  UNL1       -0.1308
     24 C           1.7770    3.6387   -0.9031 C.3     1  UNL1        0.0948
     25 C           0.6457    4.2879   -0.1870 C.3     1  UNL1        0.0258
     26 C           0.0279    3.3869    0.8606 C.3     1  UNL1        0.1354
     27 N          -0.1833    2.0540    0.3707 N.2     1  UNL1       -0.0826
     28 C           0.4466    1.5318   -0.6278 C.2     1  UNL1        0.3456
     29 C          -1.3957   -0.2729   -3.0123 C.ar    1  UNL1       -0.0505
     30 C          -2.7145   -0.6510   -3.2896 C.ar    1  UNL1       -0.0196
     31 H          -6.6944   -2.1732   -2.0001 H       1  UNL1        0.0660
     32 H          -6.2379   -0.6737   -1.0542 H       1  UNL1        0.0660
     33 H          -5.4479   -2.2505   -0.6833 H       1  UNL1        0.0660
     34 H          -3.8408   -1.0562   -0.1736 H       1  UNL1        0.0654
     35 H          -1.5379   -0.3963    0.3286 H       1  UNL1        0.0623
     36 H           1.2033   -2.1908   -2.1170 H       1  UNL1        0.0622
     37 H           2.0198   -4.0697   -0.8025 H       1  UNL1        0.0618
     38 H           2.1921   -3.8443    1.6582 H       1  UNL1        0.0624
     39 H           3.2889   -3.0768    3.2935 H       1  UNL1        0.0837
     40 H           1.8966   -1.5582    6.9817 H       1  UNL1        0.1047
     41 H          -0.0491   -0.4599    3.3927 H       1  UNL1        0.0837
     42 H           0.7300    0.1215    1.4196 H       1  UNL1        0.0628
     43 H           3.7307    1.4490   -3.4554 H       1  UNL1        0.2420
     44 H           2.6996    2.8802   -3.7693 H       1  UNL1        0.2420
     45 H           2.0285    4.2590   -1.7985 H       1  UNL1        0.0733
     46 H           2.6635    3.6169   -0.2285 H       1  UNL1        0.0733
     47 H          -0.0809    4.6466   -0.9417 H       1  UNL1        0.0341
     48 H           1.0390    5.2129    0.3079 H       1  UNL1        0.0341
     49 H          -1.0002    3.8169    1.0492 H       1  UNL1        0.0792
     50 H           0.5483    3.4401    1.8220 H       1  UNL1        0.0792
     51 H          -0.7013   -0.0506   -3.8054 H       1  UNL1        0.0623
     52 H          -3.0520   -0.7248   -4.3066 H       1  UNL1        0.0654
@<TRIPOS>BOND
     1     1     2    1
     2     2     3    1
     3     3     4   ar
     4     4     5   ar
     5     5     6   ar
     6     6     7    1
     7     7     8    1
     8     8     9   ar
     9     9    10   ar
    10    10    11   ar
    11    11    12   ar
    12    12    13    1
    13    13    14   ar
    14    14    15   ar
    15    15    16   ar
    16    16    17   ar
    17    17    18   ar
    18    12    19   ar
    19     7    20    1
    20    20    21    2
    21    21    22    1
    22    21    23    1
    23    23    24    1
    24    24    25    1
    25    25    26    1
    26    26    27    1
    27    27    28    2
    28     6    29   ar
    29    29    30   ar
    30    30     3   ar
    31    28     7    1
    32    19     8   ar
    33    28    23    1
    34    18    13   ar
    35     1    31    1
    36     1    32    1
    37     1    33    1
    38     4    34    1
    39     5    35    1
    40     9    36    1
    41    10    37    1
    42    11    38    1
    43    14    39    1
    44    16    40    1
    45    18    41    1
    46    19    42    1
    47    22    43    1
    48    22    44    1
    49    24    45    1
    50    24    46    1
    51    25    47    1
    52    25    48    1
    53    26    49    1
    54    26    50    1
    55    29    51    1
    56    30    52    1
