
     RDKit          3D

 52 56  0  0  0  0  0  0  0  0999 V2000
   -5.8459   -1.6127   -1.5083 C   0  0  0  0  0  0  0  0  0  0  0  0
   -4.9198   -1.3133   -2.4999 O   0  0  0  0  0  0  0  0  0  0  0  0
   -3.6146   -0.9381   -2.2880 C   0  0  0  0  0  0  0  0  0  0  0  0
   -3.1519   -0.8348   -0.9919 C   0  0  0  0  0  0  0  0  0  0  0  0
   -1.8554   -0.4634   -0.7068 C   0  0  0  0  0  0  0  0  0  0  0  0
   -0.9553   -0.1757   -1.7294 C   0  0  0  0  0  0  0  0  0  0  0  0
    0.4121    0.2224   -1.3063 C   0  0  0  0  0  0  0  0  0  0  0  0
    0.9006   -0.8735   -0.4230 C   0  0  0  0  0  0  0  0  0  0  0  0
    1.2672   -2.0577   -1.0265 C   0  0  0  0  0  0  0  0  0  0  0  0
    1.7326   -3.1422   -0.3261 C   0  0  0  0  0  0  0  0  0  0  0  0
    1.8311   -3.0235    1.0439 C   0  0  0  0  0  0  0  0  0  0  0  0
    1.4729   -1.8525    1.6860 C   0  0  0  0  0  0  0  0  0  0  0  0
    1.5910   -1.7714    3.1339 C   0  0  0  0  0  0  0  0  0  0  0  0
    2.5718   -2.4578    3.8123 C   0  0  0  0  0  0  0  0  0  0  0  0
    2.6621   -2.3698    5.1619 N   0  0  0  0  0  0  0  0  0  0  0  0
    1.8107   -1.6196    5.8883 C   0  0  0  0  0  0  0  0  0  0  0  0
    0.8541   -0.9485    5.2430 N   0  0  0  0  0  0  0  0  0  0  0  0
    0.7177   -1.0004    3.8929 C   0  0  0  0  0  0  0  0  0  0  0  0
    1.0095   -0.7894    0.9276 C   0  0  0  0  0  0  0  0  0  0  0  0
    1.3235    0.3454   -2.3889 N   0  0  0  0  0  0  0  0  0  0  0  0
    1.8989    1.4861   -2.3818 C   0  0  0  0  0  0  0  0  0  0  0  0
    2.8741    1.9884   -3.2936 N   0  0  0  0  0  0  0  0  0  0  0  0
    1.4112    2.3086   -1.2990 N   0  0  0  0  0  0  0  0  0  0  0  0
    1.7770    3.6387   -0.9031 C   0  0  0  0  0  0  0  0  0  0  0  0
    0.6457    4.2879   -0.1870 C   0  0  0  0  0  0  0  0  0  0  0  0
    0.0279    3.3869    0.8606 C   0  0  0  0  0  0  0  0  0  0  0  0
   -0.1833    2.0540    0.3707 N   0  0  0  0  0  0  0  0  0  0  0  0
    0.4466    1.5318   -0.6278 C   0  0  0  0  0  0  0  0  0  0  0  0
   -1.3957   -0.2729   -3.0123 C   0  0  0  0  0  0  0  0  0  0  0  0
   -2.7145   -0.6510   -3.2896 C   0  0  0  0  0  0  0  0  0  0  0  0
   -6.6944   -2.1732   -2.0001 H   0  0  0  0  0  0  0  0  0  0  0  0
   -6.2379   -0.6737   -1.0542 H   0  0  0  0  0  0  0  0  0  0  0  0
   -5.4479   -2.2505   -0.6833 H   0  0  0  0  0  0  0  0  0  0  0  0
   -3.8408   -1.0562   -0.1736 H   0  0  0  0  0  0  0  0  0  0  0  0
   -1.5379   -0.3963    0.3286 H   0  0  0  0  0  0  0  0  0  0  0  0
    1.2033   -2.1908   -2.1170 H   0  0  0  0  0  0  0  0  0  0  0  0
    2.0198   -4.0697   -0.8025 H   0  0  0  0  0  0  0  0  0  0  0  0
    2.1921   -3.8443    1.6582 H   0  0  0  0  0  0  0  0  0  0  0  0
    3.2889   -3.0768    3.2935 H   0  0  0  0  0  0  0  0  0  0  0  0
    1.8966   -1.5582    6.9817 H   0  0  0  0  0  0  0  0  0  0  0  0
   -0.0491   -0.4599    3.3927 H   0  0  0  0  0  0  0  0  0  0  0  0
    0.7300    0.1215    1.4196 H   0  0  0  0  0  0  0  0  0  0  0  0
    3.7307    1.4490   -3.4554 H   0  0  0  0  0  0  0  0  0  0  0  0
    2.6996    2.8802   -3.7693 H   0  0  0  0  0  0  0  0  0  0  0  0
    2.0285    4.2590   -1.7985 H   0  0  0  0  0  0  0  0  0  0  0  0
    2.6635    3.6169   -0.2285 H   0  0  0  0  0  0  0  0  0  0  0  0
   -0.0809    4.6466   -0.9417 H   0  0  0  0  0  0  0  0  0  0  0  0
    1.0390    5.2129    0.3079 H   0  0  0  0  0  0  0  0  0  0  0  0
   -1.0002    3.8169    1.0492 H   0  0  0  0  0  0  0  0  0  0  0  0
    0.5483    3.4401    1.8220 H   0  0  0  0  0  0  0  0  0  0  0  0
   -0.7013   -0.0506   -3.8054 H   0  0  0  0  0  0  0  0  0  0  0  0
   -3.0520   -0.7248   -4.3066 H   0  0  0  0  0  0  0  0  0  0  0  0
  1  2  1  0
  2  3  1  0
  3  4  2  0
  4  5  1  0
  5  6  2  0
  6  7  1  0
  7  8  1  0
  8  9  2  0
  9 10  1  0
 10 11  2  0
 11 12  1  0
 12 13  1  0
 13 14  2  0
 14 15  1  0
 15 16  2  0
 16 17  1  0
 17 18  2  0
 12 19  2  0
  7 20  1  0
 20 21  2  0
 21 22  1  0
 21 23  1  0
 23 24  1  0
 24 25  1  0
 25 26  1  0
 26 27  1  0
 27 28  2  0
  6 29  1  0
 29 30  2  0
 30  3  1  0
 28  7  1  0
 19  8  1  0
 28 23  1  0
 18 13  1  0
  1 31  1  0
  1 32  1  0
  1 33  1  0
  4 34  1  0
  5 35  1  0
  9 36  1  0
 10 37  1  0
 11 38  1  0
 14 39  1  0
 16 40  1  0
 18 41  1  0
 19 42  1  0
 22 43  1  0
 22 44  1  0
 24 45  1  0
 24 46  1  0
 25 47  1  0
 25 48  1  0
 26 49  1  0
 26 50  1  0
 29 51  1  0
 30 52  1  0
M  END
$$$$
