@<TRIPOS>MOLECULE
*****
 74 76 0 0 0
SMALL
GASTEIGER

@<TRIPOS>ATOM
      1 C          -3.8158    0.6295    2.1068 C.2     1  UNL1       -0.0928
      2 C          -4.9381    0.3329    1.4761 C.2     1  UNL1       -0.0229
      3 C          -5.0754    0.7625    0.1030 C.2     1  UNL1       -0.0399
      4 C          -4.1101    0.4824   -0.7623 C.2     1  UNL1       -0.0582
      5 C          -2.9502   -0.2480   -0.3598 C.2     1  UNL1       -0.0620
      6 C          -1.9628   -0.4790   -1.2163 C.2     1  UNL1       -0.0659
      7 C          -2.0587    0.0182   -2.5771 C.3     1  UNL1       -0.0312
      8 C          -0.7521    0.1168   -3.3043 C.3     1  UNL1       -0.0488
      9 C           0.4308   -0.4920   -2.6680 C.3     1  UNL1       -0.0465
     10 C           0.4377   -0.4120   -1.1399 C.3     1  UNL1       -0.0225
     11 C           0.1887    0.9770   -0.7253 C.3     1  UNL1       -0.0588
     12 C          -0.8099   -1.2417   -0.7836 C.3     1  UNL1       -0.0139
     13 C          -0.6232   -1.4682    0.6665 C.3     1  UNL1       -0.0457
     14 C           0.8337   -1.9586    0.6672 C.3     1  UNL1       -0.0489
     15 C           1.4776   -1.2042   -0.5110 C.3     1  UNL1       -0.0325
     16 C           2.7232   -0.6060    0.0018 C.3     1  UNL1       -0.0405
     17 C           2.5786    0.4207    1.0792 C.3     1  UNL1       -0.0621
     18 C           3.6643   -0.1567   -1.1037 C.3     1  UNL1       -0.0501
     19 C           4.9285    0.4425   -0.5621 C.3     1  UNL1       -0.0502
     20 C           5.7134   -0.5200    0.2966 C.3     1  UNL1       -0.0245
     21 C           6.9528    0.2108    0.7707 C.3     1  UNL1        0.0605
     22 C           6.6124    1.4371    1.5794 C.3     1  UNL1       -0.0363
     23 C           7.8819   -0.6704    1.5392 C.3     1  UNL1       -0.0363
     24 O           7.6045    0.6668   -0.3924 O.3     1  UNL1       -0.3891
     25 C          -6.3309    1.4806   -0.2975 C.3     1  UNL1       -0.0011
     26 C          -7.4538    0.9567    0.5232 C.3     1  UNL1        0.0619
     27 O          -8.6044    0.9219   -0.2652 O.3     1  UNL1       -0.3914
     28 C          -7.1954   -0.3986    1.1235 C.3     1  UNL1        0.0037
     29 C          -6.0787   -0.3889    2.1307 C.3     1  UNL1        0.0822
     30 O          -6.4303    0.1879    3.3318 O.3     1  UNL1       -0.3871
     31 H          -3.6532    0.3294    3.1390 H       1  UNL1        0.0538
     32 H          -3.0428    1.1977    1.6532 H       1  UNL1        0.0538
     33 H          -4.2443    0.8283   -1.7895 H       1  UNL1        0.0620
     34 H          -2.8566   -0.6897    0.6128 H       1  UNL1        0.0617
     35 H          -2.4589    1.0734   -2.5405 H       1  UNL1        0.0310
     36 H          -2.8222   -0.5475   -3.1543 H       1  UNL1        0.0310
     37 H          -0.4920    1.1753   -3.6017 H       1  UNL1        0.0268
     38 H          -0.8991   -0.3918   -4.3041 H       1  UNL1        0.0268
     39 H           1.3366   -0.0949   -3.1205 H       1  UNL1        0.0271
     40 H           0.4320   -1.6008   -2.8870 H       1  UNL1        0.0271
     41 H          -0.5023    1.1165    0.1444 H       1  UNL1        0.0235
     42 H          -0.3490    1.5067   -1.5719 H       1  UNL1        0.0235
     43 H           1.0710    1.6231   -0.5576 H       1  UNL1        0.0235
     44 H          -0.7423   -2.2428   -1.2869 H       1  UNL1        0.0351
     45 H          -1.2973   -2.2915    1.0173 H       1  UNL1        0.0271
     46 H          -0.7852   -0.6182    1.3218 H       1  UNL1        0.0271
     47 H           0.7843   -3.0372    0.5041 H       1  UNL1        0.0268
     48 H           1.3366   -1.7660    1.6100 H       1  UNL1        0.0268
     49 H           1.7825   -2.0215   -1.2321 H       1  UNL1        0.0309
     50 H           3.2875   -1.4733    0.4760 H       1  UNL1        0.0301
     51 H           3.1607    0.1421    2.0130 H       1  UNL1        0.0233
     52 H           2.9822    1.4226    0.8293 H       1  UNL1        0.0233
     53 H           1.5279    0.4961    1.4872 H       1  UNL1        0.0233
     54 H           3.9391   -1.0567   -1.6824 H       1  UNL1        0.0268
     55 H           3.2120    0.5647   -1.7878 H       1  UNL1        0.0268
     56 H           5.5807    0.6549   -1.4527 H       1  UNL1        0.0266
     57 H           4.8226    1.3814   -0.0271 H       1  UNL1        0.0266
     58 H           6.0674   -1.3502   -0.3542 H       1  UNL1        0.0293
     59 H           5.1439   -0.9167    1.1362 H       1  UNL1        0.0293
     60 H           6.5235    2.3559    0.9672 H       1  UNL1        0.0257
     61 H           5.6325    1.2954    2.1024 H       1  UNL1        0.0257
     62 H           7.4102    1.6473    2.3378 H       1  UNL1        0.0257
     63 H           7.8530   -0.4596    2.6402 H       1  UNL1        0.0257
     64 H           8.9241   -0.4377    1.2250 H       1  UNL1        0.0257
     65 H           7.7191   -1.7479    1.3309 H       1  UNL1        0.0257
     66 H           7.2623    1.5703   -0.6518 H       1  UNL1        0.2101
     67 H          -6.2167    2.5725   -0.1475 H       1  UNL1        0.0338
     68 H          -6.5228    1.2550   -1.3675 H       1  UNL1        0.0338
     69 H          -7.6807    1.6923    1.3483 H       1  UNL1        0.0597
     70 H          -8.3551    0.8101   -1.2369 H       1  UNL1        0.2098
     71 H          -6.8722   -1.0778    0.2883 H       1  UNL1        0.0318
     72 H          -8.1266   -0.8104    1.5328 H       1  UNL1        0.0318
     73 H          -5.7531   -1.4310    2.2962 H       1  UNL1        0.0644
     74 H          -6.9578   -0.4480    3.8483 H       1  UNL1        0.2102
@<TRIPOS>BOND
     1     1     2    2
     2     2     3    1
     3     3     4    2
     4     4     5    1
     5     5     6    2
     6     6     7    1
     7     7     8    1
     8     8     9    1
     9     9    10    1
    10    10    11    1
    11    10    12    1
    12    12    13    1
    13    13    14    1
    14    14    15    1
    15    15    16    1
    16    16    17    1
    17    16    18    1
    18    18    19    1
    19    19    20    1
    20    20    21    1
    21    21    22    1
    22    21    23    1
    23    21    24    1
    24     3    25    1
    25    25    26    1
    26    26    27    1
    27    26    28    1
    28    28    29    1
    29    29    30    1
    30    29     2    1
    31    12     6    1
    32    15    10    1
    33     1    31    1
    34     1    32    1
    35     4    33    1
    36     5    34    1
    37     7    35    1
    38     7    36    1
    39     8    37    1
    40     8    38    1
    41     9    39    1
    42     9    40    1
    43    11    41    1
    44    11    42    1
    45    11    43    1
    46    12    44    1
    47    13    45    1
    48    13    46    1
    49    14    47    1
    50    14    48    1
    51    15    49    1
    52    16    50    1
    53    17    51    1
    54    17    52    1
    55    17    53    1
    56    18    54    1
    57    18    55    1
    58    19    56    1
    59    19    57    1
    60    20    58    1
    61    20    59    1
    62    22    60    1
    63    22    61    1
    64    22    62    1
    65    23    63    1
    66    23    64    1
    67    23    65    1
    68    24    66    1
    69    25    67    1
    70    25    68    1
    71    26    69    1
    72    27    70    1
    73    28    71    1
    74    28    72    1
    75    29    73    1
    76    30    74    1
