
     RDKit          3D

 74 76  0  0  0  0  0  0  0  0999 V2000
   -3.8158    0.6295    2.1068 C   0  0  0  0  0  0  0  0  0  0  0  0
   -4.9381    0.3329    1.4761 C   0  0  0  0  0  0  0  0  0  0  0  0
   -5.0754    0.7625    0.1030 C   0  0  0  0  0  0  0  0  0  0  0  0
   -4.1101    0.4824   -0.7623 C   0  0  0  0  0  0  0  0  0  0  0  0
   -2.9502   -0.2480   -0.3598 C   0  0  0  0  0  0  0  0  0  0  0  0
   -1.9628   -0.4790   -1.2163 C   0  0  0  0  0  0  0  0  0  0  0  0
   -2.0587    0.0182   -2.5771 C   0  0  0  0  0  0  0  0  0  0  0  0
   -0.7521    0.1168   -3.3043 C   0  0  0  0  0  0  0  0  0  0  0  0
    0.4308   -0.4920   -2.6680 C   0  0  0  0  0  0  0  0  0  0  0  0
    0.4377   -0.4120   -1.1399 C   0  0  1  0  0  0  0  0  0  0  0  0
    0.1887    0.9770   -0.7253 C   0  0  0  0  0  0  0  0  0  0  0  0
   -0.8099   -1.2417   -0.7836 C   0  0  1  0  0  0  0  0  0  0  0  0
   -0.6232   -1.4682    0.6665 C   0  0  0  0  0  0  0  0  0  0  0  0
    0.8337   -1.9586    0.6672 C   0  0  0  0  0  0  0  0  0  0  0  0
    1.4776   -1.2042   -0.5110 C   0  0  2  0  0  0  0  0  0  0  0  0
    2.7232   -0.6060    0.0018 C   0  0  2  0  0  0  0  0  0  0  0  0
    2.5786    0.4207    1.0792 C   0  0  0  0  0  0  0  0  0  0  0  0
    3.6643   -0.1567   -1.1037 C   0  0  0  0  0  0  0  0  0  0  0  0
    4.9285    0.4425   -0.5621 C   0  0  0  0  0  0  0  0  0  0  0  0
    5.7134   -0.5200    0.2966 C   0  0  0  0  0  0  0  0  0  0  0  0
    6.9528    0.2108    0.7707 C   0  0  0  0  0  0  0  0  0  0  0  0
    6.6124    1.4371    1.5794 C   0  0  0  0  0  0  0  0  0  0  0  0
    7.8819   -0.6704    1.5392 C   0  0  0  0  0  0  0  0  0  0  0  0
    7.6045    0.6668   -0.3924 O   0  0  0  0  0  0  0  0  0  0  0  0
   -6.3309    1.4806   -0.2975 C   0  0  0  0  0  0  0  0  0  0  0  0
   -7.4538    0.9567    0.5232 C   0  0  1  0  0  0  0  0  0  0  0  0
   -8.6044    0.9219   -0.2652 O   0  0  0  0  0  0  0  0  0  0  0  0
   -7.1954   -0.3986    1.1235 C   0  0  0  0  0  0  0  0  0  0  0  0
   -6.0787   -0.3889    2.1307 C   0  0  2  0  0  0  0  0  0  0  0  0
   -6.4303    0.1879    3.3318 O   0  0  0  0  0  0  0  0  0  0  0  0
   -3.6532    0.3294    3.1390 H   0  0  0  0  0  0  0  0  0  0  0  0
   -3.0428    1.1977    1.6532 H   0  0  0  0  0  0  0  0  0  0  0  0
   -4.2443    0.8283   -1.7895 H   0  0  0  0  0  0  0  0  0  0  0  0
   -2.8566   -0.6897    0.6128 H   0  0  0  0  0  0  0  0  0  0  0  0
   -2.4589    1.0734   -2.5405 H   0  0  0  0  0  0  0  0  0  0  0  0
   -2.8222   -0.5475   -3.1543 H   0  0  0  0  0  0  0  0  0  0  0  0
   -0.4920    1.1753   -3.6017 H   0  0  0  0  0  0  0  0  0  0  0  0
   -0.8991   -0.3918   -4.3041 H   0  0  0  0  0  0  0  0  0  0  0  0
    1.3366   -0.0949   -3.1205 H   0  0  0  0  0  0  0  0  0  0  0  0
    0.4320   -1.6008   -2.8870 H   0  0  0  0  0  0  0  0  0  0  0  0
   -0.5023    1.1165    0.1444 H   0  0  0  0  0  0  0  0  0  0  0  0
   -0.3490    1.5067   -1.5719 H   0  0  0  0  0  0  0  0  0  0  0  0
    1.0710    1.6231   -0.5576 H   0  0  0  0  0  0  0  0  0  0  0  0
   -0.7423   -2.2428   -1.2869 H   0  0  0  0  0  0  0  0  0  0  0  0
   -1.2973   -2.2915    1.0173 H   0  0  0  0  0  0  0  0  0  0  0  0
   -0.7852   -0.6182    1.3218 H   0  0  0  0  0  0  0  0  0  0  0  0
    0.7843   -3.0372    0.5041 H   0  0  0  0  0  0  0  0  0  0  0  0
    1.3366   -1.7660    1.6100 H   0  0  0  0  0  0  0  0  0  0  0  0
    1.7825   -2.0215   -1.2321 H   0  0  0  0  0  0  0  0  0  0  0  0
    3.2875   -1.4733    0.4760 H   0  0  0  0  0  0  0  0  0  0  0  0
    3.1607    0.1421    2.0130 H   0  0  0  0  0  0  0  0  0  0  0  0
    2.9822    1.4226    0.8293 H   0  0  0  0  0  0  0  0  0  0  0  0
    1.5279    0.4961    1.4872 H   0  0  0  0  0  0  0  0  0  0  0  0
    3.9391   -1.0567   -1.6824 H   0  0  0  0  0  0  0  0  0  0  0  0
    3.2120    0.5647   -1.7878 H   0  0  0  0  0  0  0  0  0  0  0  0
    5.5807    0.6549   -1.4527 H   0  0  0  0  0  0  0  0  0  0  0  0
    4.8226    1.3814   -0.0271 H   0  0  0  0  0  0  0  0  0  0  0  0
    6.0674   -1.3502   -0.3542 H   0  0  0  0  0  0  0  0  0  0  0  0
    5.1439   -0.9167    1.1362 H   0  0  0  0  0  0  0  0  0  0  0  0
    6.5235    2.3559    0.9672 H   0  0  0  0  0  0  0  0  0  0  0  0
    5.6325    1.2954    2.1024 H   0  0  0  0  0  0  0  0  0  0  0  0
    7.4102    1.6473    2.3378 H   0  0  0  0  0  0  0  0  0  0  0  0
    7.8530   -0.4596    2.6402 H   0  0  0  0  0  0  0  0  0  0  0  0
    8.9241   -0.4377    1.2250 H   0  0  0  0  0  0  0  0  0  0  0  0
    7.7191   -1.7479    1.3309 H   0  0  0  0  0  0  0  0  0  0  0  0
    7.2623    1.5703   -0.6518 H   0  0  0  0  0  0  0  0  0  0  0  0
   -6.2167    2.5725   -0.1475 H   0  0  0  0  0  0  0  0  0  0  0  0
   -6.5228    1.2550   -1.3675 H   0  0  0  0  0  0  0  0  0  0  0  0
   -7.6807    1.6923    1.3483 H   0  0  0  0  0  0  0  0  0  0  0  0
   -8.3551    0.8101   -1.2369 H   0  0  0  0  0  0  0  0  0  0  0  0
   -6.8722   -1.0778    0.2883 H   0  0  0  0  0  0  0  0  0  0  0  0
   -8.1266   -0.8104    1.5328 H   0  0  0  0  0  0  0  0  0  0  0  0
   -5.7531   -1.4310    2.2962 H   0  0  0  0  0  0  0  0  0  0  0  0
   -6.9578   -0.4480    3.8483 H   0  0  0  0  0  0  0  0  0  0  0  0
  1  2  2  0
  2  3  1  0
  3  4  2  0
  4  5  1  0
  5  6  2  0
  6  7  1  0
  7  8  1  0
  8  9  1  0
  9 10  1  0
 10 11  1  6
 10 12  1  0
 12 13  1  0
 13 14  1  0
 14 15  1  0
 15 16  1  0
 16 17  1  0
 16 18  1  0
 18 19  1  0
 19 20  1  0
 20 21  1  0
 21 22  1  0
 21 23  1  0
 21 24  1  0
  3 25  1  0
 25 26  1  0
 26 27  1  0
 26 28  1  0
 28 29  1  0
 29 30  1  0
 29  2  1  0
 12  6  1  0
 15 10  1  0
  1 31  1  0
  1 32  1  0
  4 33  1  0
  5 34  1  0
  7 35  1  0
  7 36  1  0
  8 37  1  0
  8 38  1  0
  9 39  1  0
  9 40  1  0
 11 41  1  0
 11 42  1  0
 11 43  1  0
 12 44  1  6
 13 45  1  0
 13 46  1  0
 14 47  1  0
 14 48  1  0
 15 49  1  6
 16 50  1  1
 17 51  1  0
 17 52  1  0
 17 53  1  0
 18 54  1  0
 18 55  1  0
 19 56  1  0
 19 57  1  0
 20 58  1  0
 20 59  1  0
 22 60  1  0
 22 61  1  0
 22 62  1  0
 23 63  1  0
 23 64  1  0
 23 65  1  0
 24 66  1  0
 25 67  1  0
 25 68  1  0
 26 69  1  1
 27 70  1  0
 28 71  1  0
 28 72  1  0
 29 73  1  1
 30 74  1  0
M  END
$$$$
