@<TRIPOS>MOLECULE
*****
 46 47 0 0 0
SMALL
GASTEIGER

@<TRIPOS>ATOM
      1 N           2.6084    4.7349    3.5940 N.1     1  UNL1       -0.1949
      2 C           1.5022    4.5930    3.2069 C.1     1  UNL1        0.0815
      3 C           0.1754    4.4182    2.7166 C.3     1  UNL1        0.0990
      4 N           0.0712    3.5333    1.5939 N.am    1  UNL1       -0.3009
      5 C           0.4954    2.1869    1.6195 C.2     1  UNL1        0.2341
      6 O           1.0110    1.6868    2.6081 O.2     1  UNL1       -0.2738
      7 C           0.2778    1.3826    0.3526 C.3     1  UNL1        0.0999
      8 C          -1.1955    1.2637    0.1701 C.3     1  UNL1       -0.0231
      9 C          -1.7305    0.5356   -0.9951 C.3     1  UNL1       -0.0389
     10 C          -1.3388   -0.8893   -1.0581 C.3     1  UNL1       -0.0501
     11 C          -2.1558   -1.7674   -1.9674 C.3     1  UNL1       -0.0528
     12 C          -3.5714   -1.3960   -2.1575 C.3     1  UNL1       -0.0530
     13 C          -3.8173    0.0981   -2.1514 C.3     1  UNL1       -0.0528
     14 C          -3.2701    0.5847   -0.8291 C.3     1  UNL1       -0.0501
     15 N           0.8728    0.1005    0.6090 N.am    1  UNL1       -0.3000
     16 C           2.0311   -0.2460   -0.1420 C.2     1  UNL1        0.2447
     17 O           2.4798    0.5833   -0.9989 O.2     1  UNL1       -0.2702
     18 C           2.7373   -1.5049    0.0127 C.ar    1  UNL1        0.0367
     19 C           2.4188   -2.4410    0.9933 C.ar    1  UNL1       -0.0496
     20 C           3.1155   -3.6326    1.0842 C.ar    1  UNL1       -0.0610
     21 C           4.1343   -3.9276    0.2169 C.ar    1  UNL1       -0.0617
     22 C           4.4808   -3.0168   -0.7767 C.ar    1  UNL1       -0.0610
     23 C           3.7707   -1.8530   -0.8344 C.ar    1  UNL1       -0.0496
     24 H          -0.2776    5.4114    2.4179 H       1  UNL1        0.0620
     25 H          -0.4805    4.0510    3.5679 H       1  UNL1        0.0620
     26 H          -0.3562    3.9355    0.6981 H       1  UNL1        0.1497
     27 H           0.7886    1.9409   -0.4320 H       1  UNL1        0.0595
     28 H          -1.5821    2.3355    0.0790 H       1  UNL1        0.0290
     29 H          -1.7082    0.8756    1.0858 H       1  UNL1        0.0290
     30 H          -1.5159    1.0396   -1.9691 H       1  UNL1        0.0301
     31 H          -1.2781   -1.3494   -0.0570 H       1  UNL1        0.0268
     32 H          -0.3037   -0.9192   -1.4930 H       1  UNL1        0.0268
     33 H          -1.6803   -1.8739   -2.9810 H       1  UNL1        0.0265
     34 H          -2.1155   -2.7996   -1.5433 H       1  UNL1        0.0265
     35 H          -3.9436   -1.7839   -3.1308 H       1  UNL1        0.0265
     36 H          -4.2597   -1.8324   -1.3752 H       1  UNL1        0.0265
     37 H          -4.9189    0.2391   -2.1964 H       1  UNL1        0.0265
     38 H          -3.2666    0.5958   -2.9530 H       1  UNL1        0.0265
     39 H          -3.6026    1.6063   -0.5795 H       1  UNL1        0.0268
     40 H          -3.5036   -0.1653   -0.0649 H       1  UNL1        0.0268
     41 H           0.4805   -0.5477    1.3159 H       1  UNL1        0.1498
     42 H           1.6196   -2.1922    1.6651 H       1  UNL1        0.0625
     43 H           2.8296   -4.3416    1.8748 H       1  UNL1        0.0618
     44 H           4.6505   -4.8667    0.3174 H       1  UNL1        0.0618
     45 H           5.2902   -3.2666   -1.4573 H       1  UNL1        0.0618
     46 H           4.0308   -1.1191   -1.6159 H       1  UNL1        0.0625
@<TRIPOS>BOND
     1     1     2    3
     2     2     3    1
     3     3     4    1
     4     4     5   am
     5     5     6    2
     6     5     7    1
     7     7     8    1
     8     8     9    1
     9     9    10    1
    10    10    11    1
    11    11    12    1
    12    12    13    1
    13    13    14    1
    14     7    15    1
    15    15    16   am
    16    16    17    2
    17    16    18    1
    18    18    19   ar
    19    19    20   ar
    20    20    21   ar
    21    21    22   ar
    22    22    23   ar
    23    14     9    1
    24    23    18   ar
    25     3    24    1
    26     3    25    1
    27     4    26    1
    28     7    27    1
    29     8    28    1
    30     8    29    1
    31     9    30    1
    32    10    31    1
    33    10    32    1
    34    11    33    1
    35    11    34    1
    36    12    35    1
    37    12    36    1
    38    13    37    1
    39    13    38    1
    40    14    39    1
    41    14    40    1
    42    15    41    1
    43    19    42    1
    44    20    43    1
    45    21    44    1
    46    22    45    1
    47    23    46    1
