
     RDKit          3D

 46 47  0  0  0  0  0  0  0  0999 V2000
    2.6084    4.7349    3.5940 N   0  0  0  0  0  0  0  0  0  0  0  0
    1.5022    4.5930    3.2069 C   0  0  0  0  0  0  0  0  0  0  0  0
    0.1754    4.4182    2.7166 C   0  0  0  0  0  0  0  0  0  0  0  0
    0.0712    3.5333    1.5939 N   0  0  0  0  0  0  0  0  0  0  0  0
    0.4954    2.1869    1.6195 C   0  0  0  0  0  0  0  0  0  0  0  0
    1.0110    1.6868    2.6081 O   0  0  0  0  0  0  0  0  0  0  0  0
    0.2778    1.3826    0.3526 C   0  0  2  0  0  0  0  0  0  0  0  0
   -1.1955    1.2637    0.1701 C   0  0  0  0  0  0  0  0  0  0  0  0
   -1.7305    0.5356   -0.9951 C   0  0  0  0  0  0  0  0  0  0  0  0
   -1.3388   -0.8893   -1.0581 C   0  0  0  0  0  0  0  0  0  0  0  0
   -2.1558   -1.7674   -1.9674 C   0  0  0  0  0  0  0  0  0  0  0  0
   -3.5714   -1.3960   -2.1575 C   0  0  0  0  0  0  0  0  0  0  0  0
   -3.8173    0.0981   -2.1514 C   0  0  0  0  0  0  0  0  0  0  0  0
   -3.2701    0.5847   -0.8291 C   0  0  0  0  0  0  0  0  0  0  0  0
    0.8728    0.1005    0.6090 N   0  0  0  0  0  0  0  0  0  0  0  0
    2.0311   -0.2460   -0.1420 C   0  0  0  0  0  0  0  0  0  0  0  0
    2.4798    0.5833   -0.9989 O   0  0  0  0  0  0  0  0  0  0  0  0
    2.7373   -1.5049    0.0127 C   0  0  0  0  0  0  0  0  0  0  0  0
    2.4188   -2.4410    0.9933 C   0  0  0  0  0  0  0  0  0  0  0  0
    3.1155   -3.6326    1.0842 C   0  0  0  0  0  0  0  0  0  0  0  0
    4.1343   -3.9276    0.2169 C   0  0  0  0  0  0  0  0  0  0  0  0
    4.4808   -3.0168   -0.7767 C   0  0  0  0  0  0  0  0  0  0  0  0
    3.7707   -1.8530   -0.8344 C   0  0  0  0  0  0  0  0  0  0  0  0
   -0.2776    5.4114    2.4179 H   0  0  0  0  0  0  0  0  0  0  0  0
   -0.4805    4.0510    3.5679 H   0  0  0  0  0  0  0  0  0  0  0  0
   -0.3562    3.9355    0.6981 H   0  0  0  0  0  0  0  0  0  0  0  0
    0.7886    1.9409   -0.4320 H   0  0  0  0  0  0  0  0  0  0  0  0
   -1.5821    2.3355    0.0790 H   0  0  0  0  0  0  0  0  0  0  0  0
   -1.7082    0.8756    1.0858 H   0  0  0  0  0  0  0  0  0  0  0  0
   -1.5159    1.0396   -1.9691 H   0  0  0  0  0  0  0  0  0  0  0  0
   -1.2781   -1.3494   -0.0570 H   0  0  0  0  0  0  0  0  0  0  0  0
   -0.3037   -0.9192   -1.4930 H   0  0  0  0  0  0  0  0  0  0  0  0
   -1.6803   -1.8739   -2.9810 H   0  0  0  0  0  0  0  0  0  0  0  0
   -2.1155   -2.7996   -1.5433 H   0  0  0  0  0  0  0  0  0  0  0  0
   -3.9436   -1.7839   -3.1308 H   0  0  0  0  0  0  0  0  0  0  0  0
   -4.2597   -1.8324   -1.3752 H   0  0  0  0  0  0  0  0  0  0  0  0
   -4.9189    0.2391   -2.1964 H   0  0  0  0  0  0  0  0  0  0  0  0
   -3.2666    0.5958   -2.9530 H   0  0  0  0  0  0  0  0  0  0  0  0
   -3.6026    1.6063   -0.5795 H   0  0  0  0  0  0  0  0  0  0  0  0
   -3.5036   -0.1653   -0.0649 H   0  0  0  0  0  0  0  0  0  0  0  0
    0.4805   -0.5477    1.3159 H   0  0  0  0  0  0  0  0  0  0  0  0
    1.6196   -2.1922    1.6651 H   0  0  0  0  0  0  0  0  0  0  0  0
    2.8296   -4.3416    1.8748 H   0  0  0  0  0  0  0  0  0  0  0  0
    4.6505   -4.8667    0.3174 H   0  0  0  0  0  0  0  0  0  0  0  0
    5.2902   -3.2666   -1.4573 H   0  0  0  0  0  0  0  0  0  0  0  0
    4.0308   -1.1191   -1.6159 H   0  0  0  0  0  0  0  0  0  0  0  0
  1  2  3  0
  2  3  1  0
  3  4  1  0
  4  5  1  0
  5  6  2  0
  5  7  1  0
  7  8  1  0
  8  9  1  0
  9 10  1  0
 10 11  1  0
 11 12  1  0
 12 13  1  0
 13 14  1  0
  7 15  1  0
 15 16  1  0
 16 17  2  0
 16 18  1  0
 18 19  2  0
 19 20  1  0
 20 21  2  0
 21 22  1  0
 22 23  2  0
 14  9  1  0
 23 18  1  0
  3 24  1  0
  3 25  1  0
  4 26  1  0
  7 27  1  6
  8 28  1  0
  8 29  1  0
  9 30  1  0
 10 31  1  0
 10 32  1  0
 11 33  1  0
 11 34  1  0
 12 35  1  0
 12 36  1  0
 13 37  1  0
 13 38  1  0
 14 39  1  0
 14 40  1  0
 15 41  1  0
 19 42  1  0
 20 43  1  0
 21 44  1  0
 22 45  1  0
 23 46  1  0
M  END
$$$$
