
     RDKit          3D

 26 26  0  0  0  0  0  0  0  0999 V2000
   -1.5621   -0.6090   -1.2709 C   0  0  0  0  0  0  0  0  0  0  0  0
   -1.5138   -0.1201    0.1468 C   0  0  0  0  0  0  0  0  0  0  0  0
   -2.6533   -0.8459    0.8778 C   0  0  0  0  0  0  0  0  0  0  0  0
   -1.8772    1.2750    0.1932 N   0  0  0  0  0  0  0  0  0  0  0  0
   -0.2839   -0.4854    0.8911 C   0  0  0  0  0  0  0  0  0  0  0  0
    0.9923   -0.0070    0.3586 C   0  0  0  0  0  0  0  0  0  0  0  0
    1.5665    1.2052    0.7098 C   0  0  0  0  0  0  0  0  0  0  0  0
    2.7765    1.5479    0.1392 C   0  0  0  0  0  0  0  0  0  0  0  0
    3.4689    0.7761   -0.7611 C   0  0  0  0  0  0  0  0  0  0  0  0
    2.8963   -0.4272   -1.1081 C   0  0  0  0  0  0  0  0  0  0  0  0
    1.6846   -0.8091   -0.5595 C   0  0  0  0  0  0  0  0  0  0  0  0
   -1.2657   -1.6767   -1.3398 H   0  0  0  0  0  0  0  0  0  0  0  0
   -1.0086    0.0221   -1.9858 H   0  0  0  0  0  0  0  0  0  0  0  0
   -2.6390   -0.5863   -1.6120 H   0  0  0  0  0  0  0  0  0  0  0  0
   -2.6506   -0.4899    1.9365 H   0  0  0  0  0  0  0  0  0  0  0  0
   -2.3930   -1.9229    0.9472 H   0  0  0  0  0  0  0  0  0  0  0  0
   -3.6246   -0.6925    0.4069 H   0  0  0  0  0  0  0  0  0  0  0  0
   -1.5973    1.6822    1.1103 H   0  0  0  0  0  0  0  0  0  0  0  0
   -2.8980    1.3474    0.0073 H   0  0  0  0  0  0  0  0  0  0  0  0
   -0.2462   -1.5966    0.9116 H   0  0  0  0  0  0  0  0  0  0  0  0
   -0.4542   -0.2019    1.9591 H   0  0  0  0  0  0  0  0  0  0  0  0
    1.0587    1.8401    1.4109 H   0  0  0  0  0  0  0  0  0  0  0  0
    3.1732    2.5132    0.4576 H   0  0  0  0  0  0  0  0  0  0  0  0
    4.4139    1.1150   -1.1645 H   0  0  0  0  0  0  0  0  0  0  0  0
    3.3998   -1.0788   -1.8163 H   0  0  0  0  0  0  0  0  0  0  0  0
    1.2371   -1.7749   -0.8458 H   0  0  0  0  0  0  0  0  0  0  0  0
  1  2  1  0
  2  3  1  0
  2  4  1  0
  2  5  1  0
  5  6  1  0
  6  7  2  0
  7  8  1  0
  8  9  2  0
  9 10  1  0
 10 11  2  0
 11  6  1  0
  1 12  1  0
  1 13  1  0
  1 14  1  0
  3 15  1  0
  3 16  1  0
  3 17  1  0
  4 18  1  0
  4 19  1  0
  5 20  1  0
  5 21  1  0
  7 22  1  0
  8 23  1  0
  9 24  1  0
 10 25  1  0
 11 26  1  0
M  END
$$$$
