@<TRIPOS>MOLECULE
*****
 52 55 0 0 0
SMALL
GASTEIGER

@<TRIPOS>ATOM
      1 C          -6.0307   -0.0271    0.8566 C.3     1  UNL1        0.0029
      2 N          -5.6561    1.3578    0.6346 N.am    1  UNL1       -0.3064
      3 C          -6.5374    2.3733    1.1381 C.3     1  UNL1        0.0029
      4 C          -4.4774    1.7295   -0.0487 C.2     1  UNL1        0.2319
      5 O          -4.2008    2.9376   -0.2089 O.2     1  UNL1       -0.2741
      6 C          -3.5849    0.6737   -0.5668 C.3     1  UNL1        0.1054
      7 C          -3.0082   -0.2933    0.4036 C.3     1  UNL1       -0.0220
      8 C          -2.1665    0.7507   -0.2673 C.3     1  UNL1        0.0135
      9 C          -1.1694    0.5486   -1.2723 C.3     1  UNL1        0.0950
     10 C          -0.3026    1.8716   -1.2858 C.3     1  UNL1       -0.0351
     11 C          -0.2138   -0.5397   -0.9460 C.ar    1  UNL1        0.0349
     12 C           1.0125   -0.2512   -0.3289 C.ar    1  UNL1       -0.0433
     13 C           1.8653   -1.2696    0.0247 C.ar    1  UNL1       -0.0036
     14 C           3.1373   -0.9067    0.6851 C.2     1  UNL1       -0.0157
     15 C           4.2543   -1.5261    0.3983 C.2     1  UNL1        0.1492
     16 F           4.1776   -2.5225   -0.5445 F       1  UNL1       -0.2032
     17 C           5.5652   -1.2304    1.0208 C.ar    1  UNL1        0.0990
     18 C           5.6282   -0.2475    1.9757 C.ar    1  UNL1       -0.0322
     19 C           6.8482    0.0509    2.5816 C.ar    1  UNL1       -0.0408
     20 C           7.9430   -0.6693    2.1819 C.ar    1  UNL1        0.0699
     21 C           9.2070   -0.4011    2.7785 C.1     1  UNL1        0.1007
     22 N          10.2384   -0.1920    3.2687 N.1     1  UNL1       -0.1908
     23 C           7.8306   -1.6540    1.2119 C.ar    1  UNL1        0.0457
     24 N           6.6510   -1.9209    0.6468 N.ar    1  UNL1       -0.2514
     25 C           1.4979   -2.5602   -0.2348 C.ar    1  UNL1        0.0379
     26 N           0.3314   -2.8620   -0.8245 N.ar    1  UNL1       -0.2267
     27 C          -0.5187   -1.8683   -1.1792 C.ar    1  UNL1        0.2187
     28 F          -1.6679   -2.1790   -1.8191 F       1  UNL1       -0.1835
     29 N          -1.4830    0.4204   -2.6616 N.2     1  UNL1       -0.2520
     30 C          -2.5799    0.2275   -3.2222 C.2     1  UNL1        0.1485
     31 N          -2.6829    0.1297   -4.6126 N.pl3   1  UNL1       -0.3380
     32 S          -4.0231    0.0775   -2.2048 S.3     1  UNL1       -0.0746
     33 H          -5.5959   -0.6964    0.0847 H       1  UNL1        0.0428
     34 H          -5.6868   -0.3920    1.8519 H       1  UNL1        0.0428
     35 H          -7.1367   -0.1125    0.8224 H       1  UNL1        0.0428
     36 H          -7.3090    1.9661    1.8163 H       1  UNL1        0.0428
     37 H          -5.9482    3.1136    1.7409 H       1  UNL1        0.0428
     38 H          -7.0902    2.9139    0.3341 H       1  UNL1        0.0428
     39 H          -3.0372   -1.3393    0.1352 H       1  UNL1        0.0287
     40 H          -3.3363   -0.1333    1.4658 H       1  UNL1        0.0287
     41 H          -1.9075    1.5810    0.4902 H       1  UNL1        0.0346
     42 H          -0.1376    2.2372   -0.2857 H       1  UNL1        0.0256
     43 H           0.6228    1.7151   -1.8228 H       1  UNL1        0.0256
     44 H          -0.9028    2.6373   -1.8583 H       1  UNL1        0.0256
     45 H           1.2275    0.7874   -0.1555 H       1  UNL1        0.0629
     46 H           3.1415   -0.1046    1.4271 H       1  UNL1        0.0653
     47 H           4.8052    0.3476    2.3271 H       1  UNL1        0.0640
     48 H           6.9572    0.8071    3.3334 H       1  UNL1        0.0631
     49 H           8.7352   -2.1861    0.9398 H       1  UNL1        0.0843
     50 H           2.1533   -3.3616    0.0404 H       1  UNL1        0.0836
     51 H          -3.1917   -0.6536   -5.0503 H       1  UNL1        0.1442
     52 H          -2.2472    0.8451   -5.2156 H       1  UNL1        0.1442
@<TRIPOS>BOND
     1     1     2    1
     2     2     3    1
     3     2     4   am
     4     4     5    2
     5     6     4    1
     6     6     7    1
     7     7     8    1
     8     8     9    1
     9     9    10    1
    10     9    11    1
    11    11    12   ar
    12    12    13   ar
    13    13    14    1
    14    14    15    2
    15    15    16    1
    16    15    17    1
    17    17    18   ar
    18    18    19   ar
    19    19    20   ar
    20    20    21    1
    21    21    22    3
    22    20    23   ar
    23    23    24   ar
    24    13    25   ar
    25    25    26   ar
    26    26    27   ar
    27    27    28    1
    28     9    29    1
    29    29    30    2
    30    30    31    1
    31    30    32    1
    32     8     6    1
    33    27    11   ar
    34    32     6    1
    35    24    17   ar
    36     1    33    1
    37     1    34    1
    38     1    35    1
    39     3    36    1
    40     3    37    1
    41     3    38    1
    42     7    39    1
    43     7    40    1
    44     8    41    1
    45    10    42    1
    46    10    43    1
    47    10    44    1
    48    12    45    1
    49    14    46    1
    50    18    47    1
    51    19    48    1
    52    23    49    1
    53    25    50    1
    54    31    51    1
    55    31    52    1
