
     RDKit          3D

 52 55  0  0  0  0  0  0  0  0999 V2000
   -6.0307   -0.0271    0.8566 C   0  0  0  0  0  0  0  0  0  0  0  0
   -5.6561    1.3578    0.6346 N   0  0  0  0  0  0  0  0  0  0  0  0
   -6.5374    2.3733    1.1381 C   0  0  0  0  0  0  0  0  0  0  0  0
   -4.4774    1.7295   -0.0487 C   0  0  0  0  0  0  0  0  0  0  0  0
   -4.2008    2.9376   -0.2089 O   0  0  0  0  0  0  0  0  0  0  0  0
   -3.5849    0.6737   -0.5668 C   0  0  2  0  0  0  0  0  0  0  0  0
   -3.0082   -0.2933    0.4036 C   0  0  0  0  0  0  0  0  0  0  0  0
   -2.1665    0.7507   -0.2673 C   0  0  1  0  0  0  0  0  0  0  0  0
   -1.1694    0.5486   -1.2723 C   0  0  1  0  0  0  0  0  0  0  0  0
   -0.3026    1.8716   -1.2858 C   0  0  0  0  0  0  0  0  0  0  0  0
   -0.2138   -0.5397   -0.9460 C   0  0  0  0  0  0  0  0  0  0  0  0
    1.0125   -0.2512   -0.3289 C   0  0  0  0  0  0  0  0  0  0  0  0
    1.8653   -1.2696    0.0247 C   0  0  0  0  0  0  0  0  0  0  0  0
    3.1373   -0.9067    0.6851 C   0  0  0  0  0  0  0  0  0  0  0  0
    4.2543   -1.5261    0.3983 C   0  0  0  0  0  0  0  0  0  0  0  0
    4.1776   -2.5225   -0.5445 F   0  0  0  0  0  0  0  0  0  0  0  0
    5.5652   -1.2304    1.0208 C   0  0  0  0  0  0  0  0  0  0  0  0
    5.6282   -0.2475    1.9757 C   0  0  0  0  0  0  0  0  0  0  0  0
    6.8482    0.0509    2.5816 C   0  0  0  0  0  0  0  0  0  0  0  0
    7.9430   -0.6693    2.1819 C   0  0  0  0  0  0  0  0  0  0  0  0
    9.2070   -0.4011    2.7785 C   0  0  0  0  0  0  0  0  0  0  0  0
   10.2384   -0.1920    3.2687 N   0  0  0  0  0  0  0  0  0  0  0  0
    7.8306   -1.6540    1.2119 C   0  0  0  0  0  0  0  0  0  0  0  0
    6.6510   -1.9209    0.6468 N   0  0  0  0  0  0  0  0  0  0  0  0
    1.4979   -2.5602   -0.2348 C   0  0  0  0  0  0  0  0  0  0  0  0
    0.3314   -2.8620   -0.8245 N   0  0  0  0  0  0  0  0  0  0  0  0
   -0.5187   -1.8683   -1.1792 C   0  0  0  0  0  0  0  0  0  0  0  0
   -1.6679   -2.1790   -1.8191 F   0  0  0  0  0  0  0  0  0  0  0  0
   -1.4830    0.4204   -2.6616 N   0  0  0  0  0  0  0  0  0  0  0  0
   -2.5799    0.2275   -3.2222 C   0  0  0  0  0  0  0  0  0  0  0  0
   -2.6829    0.1297   -4.6126 N   0  0  0  0  0  0  0  0  0  0  0  0
   -4.0231    0.0775   -2.2048 S   0  0  0  0  0  0  0  0  0  0  0  0
   -5.5959   -0.6964    0.0847 H   0  0  0  0  0  0  0  0  0  0  0  0
   -5.6868   -0.3920    1.8519 H   0  0  0  0  0  0  0  0  0  0  0  0
   -7.1367   -0.1125    0.8224 H   0  0  0  0  0  0  0  0  0  0  0  0
   -7.3090    1.9661    1.8163 H   0  0  0  0  0  0  0  0  0  0  0  0
   -5.9482    3.1136    1.7409 H   0  0  0  0  0  0  0  0  0  0  0  0
   -7.0902    2.9139    0.3341 H   0  0  0  0  0  0  0  0  0  0  0  0
   -3.0372   -1.3393    0.1352 H   0  0  0  0  0  0  0  0  0  0  0  0
   -3.3363   -0.1333    1.4658 H   0  0  0  0  0  0  0  0  0  0  0  0
   -1.9075    1.5810    0.4902 H   0  0  0  0  0  0  0  0  0  0  0  0
   -0.1376    2.2372   -0.2857 H   0  0  0  0  0  0  0  0  0  0  0  0
    0.6228    1.7151   -1.8228 H   0  0  0  0  0  0  0  0  0  0  0  0
   -0.9028    2.6373   -1.8583 H   0  0  0  0  0  0  0  0  0  0  0  0
    1.2275    0.7874   -0.1555 H   0  0  0  0  0  0  0  0  0  0  0  0
    3.1415   -0.1046    1.4271 H   0  0  0  0  0  0  0  0  0  0  0  0
    4.8052    0.3476    2.3271 H   0  0  0  0  0  0  0  0  0  0  0  0
    6.9572    0.8071    3.3334 H   0  0  0  0  0  0  0  0  0  0  0  0
    8.7352   -2.1861    0.9398 H   0  0  0  0  0  0  0  0  0  0  0  0
    2.1533   -3.3616    0.0404 H   0  0  0  0  0  0  0  0  0  0  0  0
   -3.1917   -0.6536   -5.0503 H   0  0  0  0  0  0  0  0  0  0  0  0
   -2.2472    0.8451   -5.2156 H   0  0  0  0  0  0  0  0  0  0  0  0
  1  2  1  0
  2  3  1  0
  2  4  1  0
  4  5  2  0
  6  4  1  1
  6  7  1  0
  7  8  1  0
  8  9  1  0
  9 10  1  6
  9 11  1  0
 11 12  2  0
 12 13  1  0
 13 14  1  0
 14 15  2  0
 15 16  1  0
 15 17  1  0
 17 18  2  0
 18 19  1  0
 19 20  2  0
 20 21  1  0
 21 22  3  0
 20 23  1  0
 23 24  2  0
 13 25  2  0
 25 26  1  0
 26 27  2  0
 27 28  1  0
  9 29  1  0
 29 30  2  0
 30 31  1  0
 30 32  1  0
  8  6  1  0
 27 11  1  0
 32  6  1  0
 24 17  1  0
  1 33  1  0
  1 34  1  0
  1 35  1  0
  3 36  1  0
  3 37  1  0
  3 38  1  0
  7 39  1  0
  7 40  1  0
  8 41  1  1
 10 42  1  0
 10 43  1  0
 10 44  1  0
 12 45  1  0
 14 46  1  0
 18 47  1  0
 19 48  1  0
 23 49  1  0
 25 50  1  0
 31 51  1  0
 31 52  1  0
M  END
$$$$
