@<TRIPOS>MOLECULE
*****
 36 37 0 0 0
SMALL
GASTEIGER

@<TRIPOS>ATOM
      1 N           3.8416    0.8564    1.3885 N.3     1  UNL1       -0.3299
      2 C           2.5485    0.3208    0.9453 C.3     1  UNL1       -0.0050
      3 C           2.8250   -0.6093   -0.1927 C.3     1  UNL1       -0.0168
      4 C           1.5729   -1.2609   -0.7742 C.3     1  UNL1        0.0836
      5 N           2.0291   -2.1437   -1.8850 N.3     1  UNL1       -0.3199
      6 C           0.6606   -0.2749   -1.3896 C.2     1  UNL1        0.2327
      7 O           0.9035   -0.0078   -2.6407 O.2     1  UNL1       -0.2739
      8 N          -0.4062    0.3658   -0.7379 N.am    1  UNL1       -0.2969
      9 C          -1.1904    1.4054   -1.4472 C.3     1  UNL1        0.0153
     10 C          -1.7069    2.2516   -0.2706 C.3     1  UNL1       -0.0326
     11 C          -2.1641    1.1033    0.6178 C.3     1  UNL1       -0.0209
     12 C          -3.2262    0.2867   -0.0325 C.3     1  UNL1       -0.0484
     13 C          -2.7022   -1.1056   -0.2098 C.3     1  UNL1       -0.0511
     14 C          -1.5914   -1.1272    0.8538 C.3     1  UNL1       -0.0340
     15 C          -0.9313    0.1852    0.5663 C.3     1  UNL1        0.0289
     16 H           4.6389    0.3022    0.9978 H       1  UNL1        0.1182
     17 H           3.9757    1.8369    1.0864 H       1  UNL1        0.1182
     18 H           2.0451   -0.2383    1.7517 H       1  UNL1        0.0422
     19 H           1.9164    1.1771    0.5676 H       1  UNL1        0.0422
     20 H           3.4540   -1.4540    0.1729 H       1  UNL1        0.0297
     21 H           3.3728   -0.0548   -0.9946 H       1  UNL1        0.0297
     22 H           1.1123   -1.8215    0.0086 H       1  UNL1        0.0555
     23 H           1.2731   -2.8539   -2.0181 H       1  UNL1        0.1189
     24 H           2.8402   -2.6669   -1.4857 H       1  UNL1        0.1189
     25 H          -0.5540    2.0562   -2.0408 H       1  UNL1        0.0465
     26 H          -1.9952    1.0046   -2.0419 H       1  UNL1        0.0465
     27 H          -2.5186    2.9126   -0.5720 H       1  UNL1        0.0284
     28 H          -0.8901    2.7764    0.2239 H       1  UNL1        0.0284
     29 H          -2.3827    1.4268    1.6431 H       1  UNL1        0.0319
     30 H          -4.0935    0.2769    0.6982 H       1  UNL1        0.0269
     31 H          -3.6645    0.7182   -0.9504 H       1  UNL1        0.0269
     32 H          -3.4459   -1.8964   -0.0283 H       1  UNL1        0.0266
     33 H          -2.1847   -1.2035   -1.1822 H       1  UNL1        0.0266
     34 H          -1.0001   -2.0216    0.8024 H       1  UNL1        0.0283
     35 H          -2.1373   -1.0072    1.8245 H       1  UNL1        0.0283
     36 H          -0.2246    0.4846    1.3813 H       1  UNL1        0.0503
@<TRIPOS>BOND
     1     1     2    1
     2     2     3    1
     3     3     4    1
     4     4     5    1
     5     4     6    1
     6     6     7    2
     7     6     8   am
     8     8     9    1
     9     9    10    1
    10    10    11    1
    11    11    12    1
    12    12    13    1
    13    13    14    1
    14    14    15    1
    15    15     8    1
    16    15    11    1
    17     1    16    1
    18     1    17    1
    19     2    18    1
    20     2    19    1
    21     3    20    1
    22     3    21    1
    23     4    22    1
    24     5    23    1
    25     5    24    1
    26     9    25    1
    27     9    26    1
    28    10    27    1
    29    10    28    1
    30    11    29    1
    31    12    30    1
    32    12    31    1
    33    13    32    1
    34    13    33    1
    35    14    34    1
    36    14    35    1
    37    15    36    1
