@<TRIPOS>MOLECULE
*****
 54 57 0 0 0
SMALL
GASTEIGER

@<TRIPOS>ATOM
      1 C          -5.7423    0.7980   -1.0379 C.3     1  UNL1       -0.0125
      2 N          -5.1284    1.4682    0.0846 N.3     1  UNL1       -0.3023
      3 C          -6.1422    1.5704    1.1233 C.3     1  UNL1       -0.0011
      4 C          -6.1615    0.1929    1.7651 C.3     1  UNL1       -0.0388
      5 C          -4.8598   -0.4505    1.3192 C.3     1  UNL1       -0.0361
      6 C          -4.1062    0.6956    0.7264 C.3     1  UNL1        0.0116
      7 C          -3.0439    0.2772   -0.2564 C.3     1  UNL1       -0.0215
      8 C          -1.9648   -0.5419    0.4427 C.3     1  UNL1        0.0136
      9 N          -0.9347   -0.9530   -0.4625 N.pl3   1  UNL1       -0.3296
     10 C          -1.2890   -1.9411   -1.4844 C.3     1  UNL1        0.0125
     11 C          -0.2927   -1.9564   -2.6103 C.3     1  UNL1       -0.0332
     12 C           1.1209   -2.1166   -2.1477 C.3     1  UNL1       -0.0244
     13 C           1.4177   -0.9828   -1.2230 C.ar    1  UNL1       -0.0222
     14 C           2.7050   -0.4453   -1.1448 C.ar    1  UNL1       -0.0059
     15 C           3.0154    0.6024   -0.3032 C.ar    1  UNL1        0.1768
     16 N           4.3390    1.1095   -0.2680 N.2     1  UNL1       -0.0412
     17 C           5.2890    0.5020    0.3316 C.2     1  UNL1        0.3236
     18 N           5.0312   -0.7179    0.9881 N.pl3   1  UNL1       -0.2457
     19 C           6.6548    1.0318    0.3629 C.ar    1  UNL1        0.1025
     20 C           7.8347    0.4272    0.3798 C.ar    1  UNL1       -0.0397
     21 C           8.9738    1.1452    0.4092 C.ar    1  UNL1       -0.0539
     22 C           8.8663    2.5050    0.4218 C.ar    1  UNL1       -0.0235
     23 S           7.0704    2.7639    0.3894 S.2     1  UNL1       -0.0894
     24 C           1.9933    1.1037    0.4658 C.ar    1  UNL1       -0.0091
     25 C           0.7124    0.5754    0.3940 C.ar    1  UNL1       -0.0363
     26 C           0.4113   -0.4709   -0.4490 C.ar    1  UNL1        0.0332
     27 H          -5.4125    1.2530   -2.0023 H       1  UNL1        0.0391
     28 H          -5.5984   -0.2841   -1.0553 H       1  UNL1        0.0391
     29 H          -6.8595    0.9593   -1.0131 H       1  UNL1        0.0391
     30 H          -7.1481    1.7135    0.6585 H       1  UNL1        0.0426
     31 H          -5.8978    2.3318    1.8637 H       1  UNL1        0.0426
     32 H          -7.0533   -0.3904    1.4733 H       1  UNL1        0.0278
     33 H          -6.1282    0.3240    2.8615 H       1  UNL1        0.0278
     34 H          -5.0013   -1.2781    0.6235 H       1  UNL1        0.0281
     35 H          -4.2872   -0.8029    2.2116 H       1  UNL1        0.0281
     36 H          -3.6172    1.3349    1.4817 H       1  UNL1        0.0463
     37 H          -2.6330    1.1806   -0.7482 H       1  UNL1        0.0295
     38 H          -3.5523   -0.3127   -1.0442 H       1  UNL1        0.0295
     39 H          -1.6579   -0.1185    1.3903 H       1  UNL1        0.0464
     40 H          -2.5057   -1.5011    0.7266 H       1  UNL1        0.0464
     41 H          -1.3652   -2.9053   -0.9806 H       1  UNL1        0.0464
     42 H          -2.2657   -1.6296   -1.9073 H       1  UNL1        0.0464
     43 H          -0.3593   -1.0434   -3.2148 H       1  UNL1        0.0283
     44 H          -0.5422   -2.8231   -3.2574 H       1  UNL1        0.0283
     45 H           1.7673   -2.0645   -3.0567 H       1  UNL1        0.0314
     46 H           1.3023   -3.0478   -1.5997 H       1  UNL1        0.0314
     47 H           3.4416   -0.9150   -1.7969 H       1  UNL1        0.0664
     48 H           5.2575   -1.6188    0.5025 H       1  UNL1        0.2885
     49 H           4.6222   -0.7929    1.9454 H       1  UNL1        0.2885
     50 H           7.8927   -0.6962    0.3688 H       1  UNL1        0.0631
     51 H          10.0127    0.6815    0.4230 H       1  UNL1        0.0623
     52 H           9.6202    3.3073    0.4457 H       1  UNL1        0.0693
     53 H           2.2248    1.9360    1.1392 H       1  UNL1        0.0661
     54 H          -0.0262    1.0106    1.0123 H       1  UNL1        0.0637
@<TRIPOS>BOND
     1     1     2    1
     2     2     3    1
     3     3     4    1
     4     4     5    1
     5     5     6    1
     6     6     7    1
     7     7     8    1
     8     8     9    1
     9     9    10    1
    10    10    11    1
    11    11    12    1
    12    12    13    1
    13    13    14   ar
    14    14    15   ar
    15    15    16    1
    16    16    17    2
    17    17    18    1
    18    17    19    1
    19    19    20   ar
    20    20    21   ar
    21    21    22   ar
    22    22    23   ar
    23    15    24   ar
    24    24    25   ar
    25    25    26   ar
    26     6     2    1
    27    26     9    1
    28    26    13   ar
    29    23    19   ar
    30     1    27    1
    31     1    28    1
    32     1    29    1
    33     3    30    1
    34     3    31    1
    35     4    32    1
    36     4    33    1
    37     5    34    1
    38     5    35    1
    39     6    36    1
    40     7    37    1
    41     7    38    1
    42     8    39    1
    43     8    40    1
    44    10    41    1
    45    10    42    1
    46    11    43    1
    47    11    44    1
    48    12    45    1
    49    12    46    1
    50    14    47    1
    51    18    48    1
    52    18    49    1
    53    20    50    1
    54    21    51    1
    55    22    52    1
    56    24    53    1
    57    25    54    1
