
     RDKit          3D

 54 57  0  0  0  0  0  0  0  0999 V2000
   -5.7423    0.7980   -1.0379 C   0  0  0  0  0  0  0  0  0  0  0  0
   -5.1284    1.4682    0.0846 N   0  0  0  0  0  0  0  0  0  0  0  0
   -6.1422    1.5704    1.1233 C   0  0  0  0  0  0  0  0  0  0  0  0
   -6.1615    0.1929    1.7651 C   0  0  0  0  0  0  0  0  0  0  0  0
   -4.8598   -0.4505    1.3192 C   0  0  0  0  0  0  0  0  0  0  0  0
   -4.1062    0.6956    0.7264 C   0  0  1  0  0  0  0  0  0  0  0  0
   -3.0439    0.2772   -0.2564 C   0  0  0  0  0  0  0  0  0  0  0  0
   -1.9648   -0.5419    0.4427 C   0  0  0  0  0  0  0  0  0  0  0  0
   -0.9347   -0.9530   -0.4625 N   0  0  0  0  0  0  0  0  0  0  0  0
   -1.2890   -1.9411   -1.4844 C   0  0  0  0  0  0  0  0  0  0  0  0
   -0.2927   -1.9564   -2.6103 C   0  0  0  0  0  0  0  0  0  0  0  0
    1.1209   -2.1166   -2.1477 C   0  0  0  0  0  0  0  0  0  0  0  0
    1.4177   -0.9828   -1.2230 C   0  0  0  0  0  0  0  0  0  0  0  0
    2.7050   -0.4453   -1.1448 C   0  0  0  0  0  0  0  0  0  0  0  0
    3.0154    0.6024   -0.3032 C   0  0  0  0  0  0  0  0  0  0  0  0
    4.3390    1.1095   -0.2680 N   0  0  0  0  0  0  0  0  0  0  0  0
    5.2890    0.5020    0.3316 C   0  0  0  0  0  0  0  0  0  0  0  0
    5.0312   -0.7179    0.9881 N   0  0  0  0  0  0  0  0  0  0  0  0
    6.6548    1.0318    0.3629 C   0  0  0  0  0  0  0  0  0  0  0  0
    7.8347    0.4272    0.3798 C   0  0  0  0  0  0  0  0  0  0  0  0
    8.9738    1.1452    0.4092 C   0  0  0  0  0  0  0  0  0  0  0  0
    8.8663    2.5050    0.4218 C   0  0  0  0  0  0  0  0  0  0  0  0
    7.0704    2.7639    0.3894 S   0  0  0  0  0  0  0  0  0  0  0  0
    1.9933    1.1037    0.4658 C   0  0  0  0  0  0  0  0  0  0  0  0
    0.7124    0.5754    0.3940 C   0  0  0  0  0  0  0  0  0  0  0  0
    0.4113   -0.4709   -0.4490 C   0  0  0  0  0  0  0  0  0  0  0  0
   -5.4125    1.2530   -2.0023 H   0  0  0  0  0  0  0  0  0  0  0  0
   -5.5984   -0.2841   -1.0553 H   0  0  0  0  0  0  0  0  0  0  0  0
   -6.8595    0.9593   -1.0131 H   0  0  0  0  0  0  0  0  0  0  0  0
   -7.1481    1.7135    0.6585 H   0  0  0  0  0  0  0  0  0  0  0  0
   -5.8978    2.3318    1.8637 H   0  0  0  0  0  0  0  0  0  0  0  0
   -7.0533   -0.3904    1.4733 H   0  0  0  0  0  0  0  0  0  0  0  0
   -6.1282    0.3240    2.8615 H   0  0  0  0  0  0  0  0  0  0  0  0
   -5.0013   -1.2781    0.6235 H   0  0  0  0  0  0  0  0  0  0  0  0
   -4.2872   -0.8029    2.2116 H   0  0  0  0  0  0  0  0  0  0  0  0
   -3.6172    1.3349    1.4817 H   0  0  0  0  0  0  0  0  0  0  0  0
   -2.6330    1.1806   -0.7482 H   0  0  0  0  0  0  0  0  0  0  0  0
   -3.5523   -0.3127   -1.0442 H   0  0  0  0  0  0  0  0  0  0  0  0
   -1.6579   -0.1185    1.3903 H   0  0  0  0  0  0  0  0  0  0  0  0
   -2.5057   -1.5011    0.7266 H   0  0  0  0  0  0  0  0  0  0  0  0
   -1.3652   -2.9053   -0.9806 H   0  0  0  0  0  0  0  0  0  0  0  0
   -2.2657   -1.6296   -1.9073 H   0  0  0  0  0  0  0  0  0  0  0  0
   -0.3593   -1.0434   -3.2148 H   0  0  0  0  0  0  0  0  0  0  0  0
   -0.5422   -2.8231   -3.2574 H   0  0  0  0  0  0  0  0  0  0  0  0
    1.7673   -2.0645   -3.0567 H   0  0  0  0  0  0  0  0  0  0  0  0
    1.3023   -3.0478   -1.5997 H   0  0  0  0  0  0  0  0  0  0  0  0
    3.4416   -0.9150   -1.7969 H   0  0  0  0  0  0  0  0  0  0  0  0
    5.2575   -1.6188    0.5025 H   0  0  0  0  0  0  0  0  0  0  0  0
    4.6222   -0.7929    1.9454 H   0  0  0  0  0  0  0  0  0  0  0  0
    7.8927   -0.6962    0.3688 H   0  0  0  0  0  0  0  0  0  0  0  0
   10.0127    0.6815    0.4230 H   0  0  0  0  0  0  0  0  0  0  0  0
    9.6202    3.3073    0.4457 H   0  0  0  0  0  0  0  0  0  0  0  0
    2.2248    1.9360    1.1392 H   0  0  0  0  0  0  0  0  0  0  0  0
   -0.0262    1.0106    1.0123 H   0  0  0  0  0  0  0  0  0  0  0  0
  1  2  1  0
  2  3  1  0
  3  4  1  0
  4  5  1  0
  5  6  1  0
  6  7  1  0
  7  8  1  0
  8  9  1  0
  9 10  1  0
 10 11  1  0
 11 12  1  0
 12 13  1  0
 13 14  2  0
 14 15  1  0
 15 16  1  0
 16 17  2  3
 17 18  1  0
 17 19  1  0
 19 20  2  0
 20 21  1  0
 21 22  2  0
 22 23  1  0
 15 24  2  0
 24 25  1  0
 25 26  2  0
  6  2  1  0
 26  9  1  0
 26 13  1  0
 23 19  1  0
  1 27  1  0
  1 28  1  0
  1 29  1  0
  3 30  1  0
  3 31  1  0
  4 32  1  0
  4 33  1  0
  5 34  1  0
  5 35  1  0
  6 36  1  1
  7 37  1  0
  7 38  1  0
  8 39  1  0
  8 40  1  0
 10 41  1  0
 10 42  1  0
 11 43  1  0
 11 44  1  0
 12 45  1  0
 12 46  1  0
 14 47  1  0
 18 48  1  0
 18 49  1  0
 20 50  1  0
 21 51  1  0
 22 52  1  0
 24 53  1  0
 25 54  1  0
M  END
$$$$
