@<TRIPOS>MOLECULE
*****
 38 39 0 0 0
SMALL
GASTEIGER

@<TRIPOS>ATOM
      1 C           4.6511    1.7247   -1.0758 C.3     1  UNL1        0.0788
      2 O           4.2519    0.7282   -0.1666 O.3     1  UNL1       -0.4945
      3 C           2.9285    0.2992   -0.0913 C.ar    1  UNL1        0.1324
      4 C           1.9364    0.8002   -0.8756 C.ar    1  UNL1       -0.0188
      5 C           0.6383    0.3557   -0.7777 C.ar    1  UNL1       -0.0499
      6 C           0.3394   -0.6199    0.1373 C.ar    1  UNL1       -0.0077
      7 C          -0.9770   -1.0499    0.2128 C.ar    1  UNL1        0.0110
      8 C          -1.9713   -0.4608   -0.6620 C.2     1  UNL1        0.0828
      9 S          -2.3492   -1.2830   -2.0206 S.2     1  UNL1       -0.0348
     10 N          -2.6058    0.7753   -0.3786 N.am    1  UNL1       -0.3162
     11 C          -2.3164    1.5534    0.8014 C.3     1  UNL1        0.0017
     12 C          -3.5962    1.3018   -1.2969 C.3     1  UNL1        0.1095
     13 C          -4.7919    0.4269   -1.2567 C.2     1  UNL1        0.3222
     14 O          -4.8250   -0.5724   -0.5095 O.2     1  UNL1       -0.2492
     15 O          -5.9182    0.6764   -2.0399 O.3     1  UNL1       -0.4795
     16 C          -1.2934   -2.0316    1.1262 C.ar    1  UNL1       -0.0517
     17 C          -0.3277   -2.5732    1.9442 C.ar    1  UNL1       -0.0605
     18 C           0.9900   -2.1272    1.8529 C.ar    1  UNL1       -0.0533
     19 C           1.3557   -1.1425    0.9503 C.ar    1  UNL1       -0.0021
     20 C           2.6537   -0.6990    0.8536 C.ar    1  UNL1        0.1040
     21 C           3.7611   -1.2012    1.6692 C.3     1  UNL1        0.4213
     22 F           4.7303   -1.7692    0.7993 F       1  UNL1       -0.1657
     23 F           4.3731   -0.0466    2.2412 F       1  UNL1       -0.1657
     24 F           3.5620   -2.1028    2.6300 F       1  UNL1       -0.1657
     25 H           4.2331    2.6951   -0.7298 H       1  UNL1        0.0660
     26 H           5.7542    1.8383   -1.0782 H       1  UNL1        0.0660
     27 H           4.3435    1.5357   -2.1211 H       1  UNL1        0.0660
     28 H           2.1682    1.5728   -1.6008 H       1  UNL1        0.0654
     29 H          -0.1609    0.7460   -1.3963 H       1  UNL1        0.0625
     30 H          -2.1635    2.6101    0.4683 H       1  UNL1        0.0428
     31 H          -3.2249    1.5436    1.4479 H       1  UNL1        0.0428
     32 H          -1.4012    1.2515    1.3209 H       1  UNL1        0.0428
     33 H          -3.1852    1.2504   -2.3251 H       1  UNL1        0.0579
     34 H          -3.8456    2.3563   -1.0798 H       1  UNL1        0.0579
     35 H          -6.5085   -0.1101   -2.2695 H       1  UNL1        0.2951
     36 H          -2.3328   -2.3393    1.1526 H       1  UNL1        0.0624
     37 H          -0.5824   -3.3430    2.6586 H       1  UNL1        0.0618
     38 H           1.7067   -2.5696    2.4978 H       1  UNL1        0.0624
@<TRIPOS>BOND
     1     1     2    1
     2     2     3    1
     3     3     4   ar
     4     4     5   ar
     5     5     6   ar
     6     6     7   ar
     7     7     8    1
     8     8     9    2
     9     8    10    1
    10    10    11    1
    11    10    12    1
    12    12    13    1
    13    13    14    2
    14    13    15    1
    15     7    16   ar
    16    16    17   ar
    17    17    18   ar
    18    18    19   ar
    19    19    20   ar
    20    20    21    1
    21    21    22    1
    22    21    23    1
    23    21    24    1
    24    20     3   ar
    25    19     6   ar
    26     1    25    1
    27     1    26    1
    28     1    27    1
    29     4    28    1
    30     5    29    1
    31    11    30    1
    32    11    31    1
    33    11    32    1
    34    12    33    1
    35    12    34    1
    36    15    35    1
    37    16    36    1
    38    17    37    1
    39    18    38    1
