@<TRIPOS>MOLECULE
*****
 52 54 0 0 0
SMALL
GASTEIGER

@<TRIPOS>ATOM
      1 C          -1.9591   -4.4146   -0.0763 C.3     1  UNL1       -0.0612
      2 C          -1.0794   -3.3929    0.6604 C.3     1  UNL1       -0.0273
      3 C          -1.6277   -2.0464    0.4641 C.ar    1  UNL1       -0.0084
      4 C          -2.7451   -1.8627   -0.3160 C.ar    1  UNL1        0.0332
      5 N          -3.2555   -0.6363   -0.5062 N.ar    1  UNL1       -0.2545
      6 C          -2.6942    0.4743    0.0607 C.ar    1  UNL1        0.0755
      7 C          -3.2990    1.7773   -0.1861 C.ar    1  UNL1        0.0369
      8 C          -2.8054    2.9390    0.3382 C.ar    1  UNL1       -0.0314
      9 C          -3.4401    4.1566    0.0580 C.ar    1  UNL1        0.0418
     10 CL         -2.8199    5.6601    0.7236 Cl      1  UNL1       -0.0835
     11 C          -4.5594    4.1983   -0.7421 C.ar    1  UNL1       -0.0406
     12 C          -5.0622    3.0297   -1.2740 C.ar    1  UNL1       -0.0244
     13 C          -4.4212    1.8626   -0.9819 C.ar    1  UNL1        0.1326
     14 F          -4.9314    0.7130   -1.5162 F       1  UNL1       -0.2048
     15 C          -1.5805    0.2539    0.8329 C.ar    1  UNL1       -0.0142
     16 C          -0.9926   -0.9648    1.0800 C.ar    1  UNL1        0.0380
     17 N           0.1468   -1.1337    1.8725 N.pl3   1  UNL1       -0.3135
     18 C           1.3657   -1.7534    1.6305 C.ar    1  UNL1        0.0465
     19 C           1.6456   -2.8883    2.4438 C.ar    1  UNL1       -0.0217
     20 C           2.7910   -3.6114    2.2997 C.ar    1  UNL1        0.0293
     21 N           3.6572   -3.2197    1.3599 N.ar    1  UNL1       -0.2624
     22 C           3.4191   -2.1374    0.5669 C.ar    1  UNL1        0.0415
     23 C           2.2562   -1.3690    0.6846 C.ar    1  UNL1        0.0758
     24 C           2.1301   -0.1695   -0.1415 C.2     1  UNL1        0.2474
     25 O           1.2866    0.6921    0.1672 O.2     1  UNL1       -0.2701
     26 N           2.9091    0.0977   -1.2982 N.am    1  UNL1       -0.3088
     27 C           2.8353    1.2575   -2.1333 C.3     1  UNL1        0.0377
     28 C           3.1671    2.5672   -1.5282 C.3     1  UNL1        0.0679
     29 C           4.5821    2.6210   -0.9751 C.3     1  UNL1       -0.0375
     30 O           2.3167    2.8692   -0.4880 O.3     1  UNL1       -0.3905
     31 H          -2.9646   -4.4729    0.3919 H       1  UNL1        0.0233
     32 H          -1.9691   -4.2464   -1.1524 H       1  UNL1        0.0233
     33 H          -1.4688   -5.4049    0.1252 H       1  UNL1        0.0233
     34 H          -1.1507   -3.6520    1.7213 H       1  UNL1        0.0312
     35 H          -0.0746   -3.5290    0.2127 H       1  UNL1        0.0312
     36 H          -3.2532   -2.6890   -0.8030 H       1  UNL1        0.0833
     37 H          -1.9384    2.9562    0.9652 H       1  UNL1        0.0639
     38 H          -5.0754    5.1323   -0.9777 H       1  UNL1        0.0633
     39 H          -5.9477    3.0473   -1.9093 H       1  UNL1        0.0647
     40 H          -1.1488    1.1605    1.2843 H       1  UNL1        0.0658
     41 H           0.0879   -0.7082    2.8665 H       1  UNL1        0.1522
     42 H           0.9346   -3.1964    3.2036 H       1  UNL1        0.0651
     43 H           2.9505   -4.4654    2.9466 H       1  UNL1        0.0830
     44 H           4.1518   -1.8568   -0.1704 H       1  UNL1        0.0838
     45 H           3.6032   -0.6872   -1.5336 H       1  UNL1        0.1491
     46 H           1.8501    1.3380   -2.6617 H       1  UNL1        0.0487
     47 H           3.5635    1.0964   -2.9734 H       1  UNL1        0.0487
     48 H           3.0659    3.3789   -2.2869 H       1  UNL1        0.0606
     49 H           5.1331    1.7352   -1.4057 H       1  UNL1        0.0255
     50 H           5.0888    3.5672   -1.1696 H       1  UNL1        0.0255
     51 H           4.5461    2.4368    0.1175 H       1  UNL1        0.0255
     52 H           2.7801    3.4899    0.1287 H       1  UNL1        0.2098
@<TRIPOS>BOND
     1     1     2    1
     2     2     3    1
     3     3     4   ar
     4     4     5   ar
     5     5     6   ar
     6     6     7    1
     7     7     8   ar
     8     8     9   ar
     9     9    10    1
    10     9    11   ar
    11    11    12   ar
    12    12    13   ar
    13    13    14    1
    14     6    15   ar
    15    15    16   ar
    16    16    17    1
    17    17    18    1
    18    18    19   ar
    19    19    20   ar
    20    20    21   ar
    21    21    22   ar
    22    22    23   ar
    23    23    24    1
    24    24    25    2
    25    24    26   am
    26    26    27    1
    27    27    28    1
    28    28    29    1
    29    28    30    1
    30    16     3   ar
    31    23    18   ar
    32    13     7   ar
    33     1    31    1
    34     1    32    1
    35     1    33    1
    36     2    34    1
    37     2    35    1
    38     4    36    1
    39     8    37    1
    40    11    38    1
    41    12    39    1
    42    15    40    1
    43    17    41    1
    44    19    42    1
    45    20    43    1
    46    22    44    1
    47    26    45    1
    48    27    46    1
    49    27    47    1
    50    28    48    1
    51    29    49    1
    52    29    50    1
    53    29    51    1
    54    30    52    1
