
     RDKit          3D

 52 54  0  0  0  0  0  0  0  0999 V2000
   -1.9591   -4.4146   -0.0763 C   0  0  0  0  0  0  0  0  0  0  0  0
   -1.0794   -3.3929    0.6604 C   0  0  0  0  0  0  0  0  0  0  0  0
   -1.6277   -2.0464    0.4641 C   0  0  0  0  0  0  0  0  0  0  0  0
   -2.7451   -1.8627   -0.3160 C   0  0  0  0  0  0  0  0  0  0  0  0
   -3.2555   -0.6363   -0.5062 N   0  0  0  0  0  0  0  0  0  0  0  0
   -2.6942    0.4743    0.0607 C   0  0  0  0  0  0  0  0  0  0  0  0
   -3.2990    1.7773   -0.1861 C   0  0  0  0  0  0  0  0  0  0  0  0
   -2.8054    2.9390    0.3382 C   0  0  0  0  0  0  0  0  0  0  0  0
   -3.4401    4.1566    0.0580 C   0  0  0  0  0  0  0  0  0  0  0  0
   -2.8199    5.6601    0.7236 Cl  0  0  0  0  0  0  0  0  0  0  0  0
   -4.5594    4.1983   -0.7421 C   0  0  0  0  0  0  0  0  0  0  0  0
   -5.0622    3.0297   -1.2740 C   0  0  0  0  0  0  0  0  0  0  0  0
   -4.4212    1.8626   -0.9819 C   0  0  0  0  0  0  0  0  0  0  0  0
   -4.9314    0.7130   -1.5162 F   0  0  0  0  0  0  0  0  0  0  0  0
   -1.5805    0.2539    0.8329 C   0  0  0  0  0  0  0  0  0  0  0  0
   -0.9926   -0.9648    1.0800 C   0  0  0  0  0  0  0  0  0  0  0  0
    0.1468   -1.1337    1.8725 N   0  0  0  0  0  0  0  0  0  0  0  0
    1.3657   -1.7534    1.6305 C   0  0  0  0  0  0  0  0  0  0  0  0
    1.6456   -2.8883    2.4438 C   0  0  0  0  0  0  0  0  0  0  0  0
    2.7910   -3.6114    2.2997 C   0  0  0  0  0  0  0  0  0  0  0  0
    3.6572   -3.2197    1.3599 N   0  0  0  0  0  0  0  0  0  0  0  0
    3.4191   -2.1374    0.5669 C   0  0  0  0  0  0  0  0  0  0  0  0
    2.2562   -1.3690    0.6846 C   0  0  0  0  0  0  0  0  0  0  0  0
    2.1301   -0.1695   -0.1415 C   0  0  0  0  0  0  0  0  0  0  0  0
    1.2866    0.6921    0.1672 O   0  0  0  0  0  0  0  0  0  0  0  0
    2.9091    0.0977   -1.2982 N   0  0  0  0  0  0  0  0  0  0  0  0
    2.8353    1.2575   -2.1333 C   0  0  0  0  0  0  0  0  0  0  0  0
    3.1671    2.5672   -1.5282 C   0  0  2  0  0  0  0  0  0  0  0  0
    4.5821    2.6210   -0.9751 C   0  0  0  0  0  0  0  0  0  0  0  0
    2.3167    2.8692   -0.4880 O   0  0  0  0  0  0  0  0  0  0  0  0
   -2.9646   -4.4729    0.3919 H   0  0  0  0  0  0  0  0  0  0  0  0
   -1.9691   -4.2464   -1.1524 H   0  0  0  0  0  0  0  0  0  0  0  0
   -1.4688   -5.4049    0.1252 H   0  0  0  0  0  0  0  0  0  0  0  0
   -1.1507   -3.6520    1.7213 H   0  0  0  0  0  0  0  0  0  0  0  0
   -0.0746   -3.5290    0.2127 H   0  0  0  0  0  0  0  0  0  0  0  0
   -3.2532   -2.6890   -0.8030 H   0  0  0  0  0  0  0  0  0  0  0  0
   -1.9384    2.9562    0.9652 H   0  0  0  0  0  0  0  0  0  0  0  0
   -5.0754    5.1323   -0.9777 H   0  0  0  0  0  0  0  0  0  0  0  0
   -5.9477    3.0473   -1.9093 H   0  0  0  0  0  0  0  0  0  0  0  0
   -1.1488    1.1605    1.2843 H   0  0  0  0  0  0  0  0  0  0  0  0
    0.0879   -0.7082    2.8665 H   0  0  0  0  0  0  0  0  0  0  0  0
    0.9346   -3.1964    3.2036 H   0  0  0  0  0  0  0  0  0  0  0  0
    2.9505   -4.4654    2.9466 H   0  0  0  0  0  0  0  0  0  0  0  0
    4.1518   -1.8568   -0.1704 H   0  0  0  0  0  0  0  0  0  0  0  0
    3.6032   -0.6872   -1.5336 H   0  0  0  0  0  0  0  0  0  0  0  0
    1.8501    1.3380   -2.6617 H   0  0  0  0  0  0  0  0  0  0  0  0
    3.5635    1.0964   -2.9734 H   0  0  0  0  0  0  0  0  0  0  0  0
    3.0659    3.3789   -2.2869 H   0  0  0  0  0  0  0  0  0  0  0  0
    5.1331    1.7352   -1.4057 H   0  0  0  0  0  0  0  0  0  0  0  0
    5.0888    3.5672   -1.1696 H   0  0  0  0  0  0  0  0  0  0  0  0
    4.5461    2.4368    0.1175 H   0  0  0  0  0  0  0  0  0  0  0  0
    2.7801    3.4899    0.1287 H   0  0  0  0  0  0  0  0  0  0  0  0
  1  2  1  0
  2  3  1  0
  3  4  2  0
  4  5  1  0
  5  6  2  0
  6  7  1  0
  7  8  2  0
  8  9  1  0
  9 10  1  0
  9 11  2  0
 11 12  1  0
 12 13  2  0
 13 14  1  0
  6 15  1  0
 15 16  2  0
 16 17  1  0
 17 18  1  0
 18 19  2  0
 19 20  1  0
 20 21  2  0
 21 22  1  0
 22 23  2  0
 23 24  1  0
 24 25  2  0
 24 26  1  0
 26 27  1  0
 27 28  1  0
 28 29  1  0
 28 30  1  0
 16  3  1  0
 23 18  1  0
 13  7  1  0
  1 31  1  0
  1 32  1  0
  1 33  1  0
  2 34  1  0
  2 35  1  0
  4 36  1  0
  8 37  1  0
 11 38  1  0
 12 39  1  0
 15 40  1  0
 17 41  1  0
 19 42  1  0
 20 43  1  0
 22 44  1  0
 26 45  1  0
 27 46  1  0
 27 47  1  0
 28 48  1  6
 29 49  1  0
 29 50  1  0
 29 51  1  0
 30 52  1  0
M  END
$$$$
