@<TRIPOS>MOLECULE
*****
 53 58 0 0 0
SMALL
GASTEIGER

@<TRIPOS>ATOM
      1 CL          3.6991    2.9442    1.0670 Cl      1  UNL1       -0.0816
      2 C           3.1430    1.3522    0.5546 C.ar    1  UNL1        0.0625
      3 C           1.7826    1.1153    0.4024 C.ar    1  UNL1       -0.0338
      4 C           1.3030   -0.1133    0.0044 C.ar    1  UNL1       -0.0135
      5 C          -0.1174   -0.3781   -0.1598 C.ar    1  UNL1        0.0185
      6 C          -0.9404    0.6438   -0.5663 C.ar    1  UNL1        0.0391
      7 N          -2.2515    0.3974   -0.7167 N.ar    1  UNL1       -0.2350
      8 C          -2.7639   -0.8343   -0.4743 C.ar    1  UNL1        0.1632
      9 C          -4.0616   -1.2892   -0.5673 C.ar    1  UNL1        0.0466
     10 C          -5.2236   -0.4705   -0.9774 C.ar    1  UNL1       -0.0037
     11 C          -5.6077   -0.3651   -2.2997 C.ar    1  UNL1       -0.0532
     12 C          -6.6928    0.4060   -2.6604 C.ar    1  UNL1       -0.0591
     13 C          -7.4362    1.0991   -1.7296 C.ar    1  UNL1       -0.0357
     14 C          -7.0582    0.9982   -0.4063 C.ar    1  UNL1        0.0715
     15 N          -7.7736    1.6707    0.5291 N.ar    1  UNL1       -0.2550
     16 C          -7.4307    1.5932    1.8299 C.ar    1  UNL1        0.0283
     17 C          -6.3450    0.8252    2.2156 C.ar    1  UNL1       -0.0430
     18 C          -5.5970    0.1293    1.2893 C.ar    1  UNL1       -0.0506
     19 C          -5.9594    0.2178   -0.0391 C.ar    1  UNL1        0.0082
     20 C          -4.0459   -2.6084   -0.2147 C.ar    1  UNL1        0.0597
     21 N          -2.7729   -2.9190    0.0773 N.ar    1  UNL1       -0.1727
     22 N          -1.9979   -1.8611   -0.0758 N.ar    1  UNL1       -0.2206
     23 C          -0.6858   -1.6066    0.0726 C.ar    1  UNL1        0.0406
     24 C           2.2076   -1.1217   -0.2451 C.ar    1  UNL1       -0.0521
     25 C           3.5584   -0.8830   -0.0929 C.ar    1  UNL1       -0.0387
     26 C           4.0491    0.3461    0.3059 C.ar    1  UNL1        0.0484
     27 N           5.4408    0.5295    0.4431 N.pl3   1  UNL1       -0.3263
     28 C           6.1890    1.5137   -0.3333 C.3     1  UNL1        0.0248
     29 C           7.4870    0.8652   -0.7543 C.3     1  UNL1        0.0117
     30 N           7.4550   -0.5659   -0.7026 N.3     1  UNL1       -0.3130
     31 C           7.2144   -1.1130    0.5948 C.3     1  UNL1        0.0117
     32 C           6.2345   -0.2636    1.3843 C.3     1  UNL1        0.0248
     33 H           1.0902    1.9242    0.6046 H       1  UNL1        0.0639
     34 H          -0.5401    1.6320   -0.7626 H       1  UNL1        0.0837
     35 H          -5.0203   -0.9103   -3.0184 H       1  UNL1        0.0624
     36 H          -7.0006    0.4937   -3.6975 H       1  UNL1        0.0618
     37 H          -8.2931    1.7116   -1.9901 H       1  UNL1        0.0639
     38 H          -7.9858    2.1184    2.5788 H       1  UNL1        0.0830
     39 H          -6.0322    0.7334    3.2530 H       1  UNL1        0.0633
     40 H          -4.7493   -0.4709    1.5885 H       1  UNL1        0.0625
     41 H          -4.8978   -3.2694   -0.1795 H       1  UNL1        0.0855
     42 H          -0.0066   -2.4040    0.3955 H       1  UNL1        0.0837
     43 H           1.8161   -2.0791   -0.5568 H       1  UNL1        0.0624
     44 H           4.2192   -1.7121   -0.3029 H       1  UNL1        0.0637
     45 H           6.4050    2.4110    0.2810 H       1  UNL1        0.0476
     46 H           5.6112    1.8468   -1.2221 H       1  UNL1        0.0476
     47 H           7.6599    1.1367   -1.8361 H       1  UNL1        0.0439
     48 H           8.3231    1.2936   -0.2013 H       1  UNL1        0.0439
     49 H           6.9158   -0.9888   -1.4699 H       1  UNL1        0.1220
     50 H           6.8473   -2.1608    0.4897 H       1  UNL1        0.0439
     51 H           8.1852   -1.1497    1.1582 H       1  UNL1        0.0439
     52 H           5.6050   -0.8892    2.0263 H       1  UNL1        0.0476
     53 H           6.8459    0.4787    1.9663 H       1  UNL1        0.0476
@<TRIPOS>BOND
     1     1     2    1
     2     2     3   ar
     3     3     4   ar
     4     4     5    1
     5     5     6   ar
     6     6     7   ar
     7     7     8   ar
     8     8     9   ar
     9     9    10    1
    10    10    11   ar
    11    11    12   ar
    12    12    13   ar
    13    13    14   ar
    14    14    15   ar
    15    15    16   ar
    16    16    17   ar
    17    17    18   ar
    18    18    19   ar
    19     9    20   ar
    20    20    21   ar
    21    21    22   ar
    22    22    23   ar
    23     4    24   ar
    24    24    25   ar
    25    25    26   ar
    26    26    27    1
    27    27    28    1
    28    28    29    1
    29    29    30    1
    30    30    31    1
    31    31    32    1
    32    26     2   ar
    33    32    27    1
    34    23     5   ar
    35    22     8   ar
    36    19    10   ar
    37    19    14   ar
    38     3    33    1
    39     6    34    1
    40    11    35    1
    41    12    36    1
    42    13    37    1
    43    16    38    1
    44    17    39    1
    45    18    40    1
    46    20    41    1
    47    23    42    1
    48    24    43    1
    49    25    44    1
    50    28    45    1
    51    28    46    1
    52    29    47    1
    53    29    48    1
    54    30    49    1
    55    31    50    1
    56    31    51    1
    57    32    52    1
    58    32    53    1
