@<TRIPOS>MOLECULE
*****
 41 41 0 0 0
SMALL
GASTEIGER

@<TRIPOS>ATOM
      1 O           7.8816    1.7277   -0.0383 O.3     1  UNL1       -0.4795
      2 C           6.6271    1.2610   -0.3566 C.2     1  UNL1        0.3221
      3 O           5.8588    1.7987    0.4821 O.2     1  UNL1       -0.2492
      4 C           6.3590    0.3228   -1.4772 C.3     1  UNL1        0.1088
      5 N           4.9373    0.0464   -1.5208 N.am    1  UNL1       -0.3048
      6 C           4.3383   -0.5510   -0.3629 C.2     1  UNL1        0.2135
      7 O           5.1724   -0.7452    0.5341 O.2     1  UNL1       -0.2758
      8 C           2.8619   -0.7880   -0.5304 C.3     1  UNL1        0.0245
      9 C           2.3209   -1.4146    0.7279 C.3     1  UNL1       -0.0339
     10 C           0.8304   -1.6840    0.6324 C.3     1  UNL1        0.0500
     11 P          -0.0536   -0.1381    0.3548 P.3     1  UNL1        0.3306
     12 O           0.6616    1.1217    1.2262 O.3     1  UNL1       -0.3239
     13 O           0.0910    0.2143   -1.1273 O.2     1  UNL1       -0.2586
     14 O          -1.6981   -0.2801    0.7469 O.3     1  UNL1       -0.3033
     15 C          -2.3855    0.6154   -0.0384 C.3     1  UNL1        0.0820
     16 C          -3.8459    0.6079    0.1919 C.ar    1  UNL1       -0.0210
     17 C          -4.5848    1.3395    1.0666 C.ar    1  UNL1       -0.0500
     18 C          -5.9595    1.1944    1.1410 C.ar    1  UNL1        0.0159
     19 C          -6.5946    0.2858    0.3076 C.ar    1  UNL1        0.2732
     20 C          -5.8725   -0.4790   -0.5986 C.ar    1  UNL1        0.0159
     21 C          -4.5057   -0.3021   -0.6389 C.ar    1  UNL1       -0.0500
     22 N          -8.0036    0.1273    0.3738 N.pl3   1  UNL1        0.0796
     23 O          -8.6222   -0.7753   -0.4559 O.co2   1  UNL1       -0.5760
     24 O          -8.6973    0.7796    1.1595 O.2     1  UNL1        0.0414
     25 H           8.3013    1.7279    0.8691 H       1  UNL1        0.2951
     26 H           6.9089   -0.6145   -1.3090 H       1  UNL1        0.0577
     27 H           6.7144    0.7342   -2.4355 H       1  UNL1        0.0577
     28 H           4.4092    0.2952   -2.3965 H       1  UNL1        0.1493
     29 H           2.3916    0.2189   -0.7120 H       1  UNL1        0.0358
     30 H           2.7011   -1.4316   -1.3983 H       1  UNL1        0.0358
     31 H           2.5432   -0.7394    1.5842 H       1  UNL1        0.0275
     32 H           2.8735   -2.3618    0.8845 H       1  UNL1        0.0275
     33 H           0.5275   -2.0724    1.6434 H       1  UNL1        0.0387
     34 H           0.6536   -2.4339   -0.1400 H       1  UNL1        0.0387
     35 H          -0.0587    1.7341    1.5136 H       1  UNL1        0.2198
     36 H          -2.1208    0.4908   -1.0903 H       1  UNL1        0.0615
     37 H          -2.0408    1.6462    0.2666 H       1  UNL1        0.0615
     38 H          -3.9986    2.0155    1.6681 H       1  UNL1        0.0623
     39 H          -6.4988    1.8122    1.8660 H       1  UNL1        0.0685
     40 H          -6.4068   -1.1752   -1.2294 H       1  UNL1        0.0685
     41 H          -4.0165   -0.9477   -1.3844 H       1  UNL1        0.0623
@<TRIPOS>UNITY_ATOM_ATTR
22 1
charge 1
23 1
charge -1
@<TRIPOS>BOND
     1     1     2    1
     2     2     3    2
     3     2     4    1
     4     4     5    1
     5     5     6   am
     6     6     7    2
     7     6     8    1
     8     8     9    1
     9     9    10    1
    10    10    11    1
    11    11    12    1
    12    11    13    2
    13    11    14    1
    14    14    15    1
    15    15    16    1
    16    16    17   ar
    17    17    18   ar
    18    18    19   ar
    19    19    20   ar
    20    20    21   ar
    21    19    22    1
    22    22    23    1
    23    22    24    2
    24    21    16   ar
    25     1    25    1
    26     4    26    1
    27     4    27    1
    28     5    28    1
    29     8    29    1
    30     8    30    1
    31     9    31    1
    32     9    32    1
    33    10    33    1
    34    10    34    1
    35    12    35    1
    36    15    36    1
    37    15    37    1
    38    17    38    1
    39    18    39    1
    40    20    40    1
    41    21    41    1
