@<TRIPOS>MOLECULE
*****
 60 62 0 0 0
SMALL
GASTEIGER

@<TRIPOS>ATOM
      1 C          -0.5184   -0.7296   -3.4979 C.3     1  UNL1       -0.0611
      2 C           0.0544    0.3257   -2.5804 C.3     1  UNL1       -0.0271
      3 C          -0.4601    0.1889   -1.1847 C.ar    1  UNL1       -0.0054
      4 C          -1.4185    1.0607   -0.7219 C.ar    1  UNL1       -0.0516
      5 C          -1.9544    0.9895    0.5583 C.ar    1  UNL1       -0.0422
      6 C          -2.9879    1.9637    1.0035 C.3     1  UNL1        0.0023
      7 C          -4.3480    1.6301    0.5673 C.ar    1  UNL1        0.0146
      8 C          -4.8877    2.3014   -0.5298 C.ar    1  UNL1        0.0379
      9 N          -6.1221    1.9670   -0.9137 N.ar    1  UNL1       -0.2227
     10 C          -6.8797    1.0330   -0.3206 C.ar    1  UNL1        0.2142
     11 N          -8.2054    0.7367   -0.8051 N.pl3   1  UNL1       -0.3274
     12 N          -6.3576    0.3924    0.7316 N.ar    1  UNL1       -0.1999
     13 C          -5.1192    0.6733    1.1788 C.ar    1  UNL1        0.1247
     14 N          -4.6500   -0.0576    2.3247 N.pl3   1  UNL1       -0.3428
     15 C          -1.5202    0.0113    1.4166 C.ar    1  UNL1       -0.0516
     16 C          -0.5629   -0.8769    0.9838 C.ar    1  UNL1       -0.0054
     17 C          -0.1619   -1.9381    1.9368 C.3     1  UNL1       -0.0271
     18 C          -0.8474   -3.2147    1.4342 C.3     1  UNL1       -0.0611
     19 C          -0.0208   -0.8077   -0.3041 C.ar    1  UNL1        0.1269
     20 O           0.9169   -1.6625   -0.7653 O.3     1  UNL1       -0.4891
     21 C           2.2744   -1.7207   -0.8528 C.3     1  UNL1        0.1129
     22 C           3.0934   -1.6607    0.3996 C.3     1  UNL1        0.0821
     23 O           2.9552   -0.5434    1.1616 O.3     1  UNL1       -0.3718
     24 C           3.3552    0.6530    0.6581 C.3     1  UNL1        0.0728
     25 C           4.7898    0.7968    0.3750 C.ar    1  UNL1       -0.0219
     26 C           5.6635    1.2230    1.3721 C.ar    1  UNL1       -0.0564
     27 C           6.9881    1.3468    1.0678 C.ar    1  UNL1       -0.0614
     28 C           7.5077    1.0723   -0.1743 C.ar    1  UNL1       -0.0617
     29 C           6.6435    0.6518   -1.1578 C.ar    1  UNL1       -0.0614
     30 C           5.2759    0.5145   -0.8768 C.ar    1  UNL1       -0.0564
     31 H          -0.7575   -0.3261   -4.5034 H       1  UNL1        0.0233
     32 H           0.2230   -1.5436   -3.5820 H       1  UNL1        0.0233
     33 H          -1.4364   -1.1567   -3.0446 H       1  UNL1        0.0233
     34 H           1.1483    0.2911   -2.6649 H       1  UNL1        0.0312
     35 H          -0.2933    1.3021   -3.0172 H       1  UNL1        0.0312
     36 H          -1.7678    1.8407   -1.4002 H       1  UNL1        0.0624
     37 H          -2.6995    2.9663    0.5857 H       1  UNL1        0.0363
     38 H          -2.8931    2.0555    2.1062 H       1  UNL1        0.0363
     39 H          -4.3251    3.0752   -1.0621 H       1  UNL1        0.0834
     40 H          -9.0351    1.0903   -0.2863 H       1  UNL1        0.1452
     41 H          -8.3367    0.1753   -1.6638 H       1  UNL1        0.1452
     42 H          -4.8240   -1.0830    2.3278 H       1  UNL1        0.1437
     43 H          -4.1664    0.3827    3.1120 H       1  UNL1        0.1437
     44 H          -1.9124   -0.0733    2.4421 H       1  UNL1        0.0624
     45 H          -0.6231   -1.7375    2.9366 H       1  UNL1        0.0312
     46 H           0.8986   -2.0585    2.1070 H       1  UNL1        0.0312
     47 H          -0.1258   -4.0562    1.6089 H       1  UNL1        0.0233
     48 H          -1.1249   -3.1349    0.3750 H       1  UNL1        0.0233
     49 H          -1.7635   -3.4328    2.0130 H       1  UNL1        0.0233
     50 H           2.5224   -2.7685   -1.2822 H       1  UNL1        0.0720
     51 H           2.6793   -1.0654   -1.6562 H       1  UNL1        0.0720
     52 H           2.8662   -2.5575    1.0100 H       1  UNL1        0.0594
     53 H           4.1856   -1.8337    0.1095 H       1  UNL1        0.0594
     54 H           3.0917    1.4352    1.4197 H       1  UNL1        0.0610
     55 H           2.8151    0.9713   -0.2578 H       1  UNL1        0.0610
     56 H           5.3019    1.4545    2.3757 H       1  UNL1        0.0621
     57 H           7.6743    1.6801    1.8438 H       1  UNL1        0.0618
     58 H           8.5750    1.1813   -0.3861 H       1  UNL1        0.0618
     59 H           6.9785    0.4171   -2.1617 H       1  UNL1        0.0618
     60 H           4.6292    0.1886   -1.6742 H       1  UNL1        0.0621
@<TRIPOS>BOND
     1     1     2    1
     2     2     3    1
     3     3     4   ar
     4     4     5   ar
     5     5     6    1
     6     6     7    1
     7     7     8   ar
     8     8     9   ar
     9     9    10   ar
    10    10    11    1
    11    10    12   ar
    12    12    13   ar
    13    13    14    1
    14     5    15   ar
    15    15    16   ar
    16    16    17    1
    17    17    18    1
    18    16    19   ar
    19    19    20    1
    20    20    21    1
    21    21    22    1
    22    22    23    1
    23    23    24    1
    24    24    25    1
    25    25    26   ar
    26    26    27   ar
    27    27    28   ar
    28    28    29   ar
    29    29    30   ar
    30    19     3   ar
    31    30    25   ar
    32    13     7   ar
    33     1    31    1
    34     1    32    1
    35     1    33    1
    36     2    34    1
    37     2    35    1
    38     4    36    1
    39     6    37    1
    40     6    38    1
    41     8    39    1
    42    11    40    1
    43    11    41    1
    44    14    42    1
    45    14    43    1
    46    15    44    1
    47    17    45    1
    48    17    46    1
    49    18    47    1
    50    18    48    1
    51    18    49    1
    52    21    50    1
    53    21    51    1
    54    22    52    1
    55    22    53    1
    56    24    54    1
    57    24    55    1
    58    26    56    1
    59    27    57    1
    60    28    58    1
    61    29    59    1
    62    30    60    1
