@<TRIPOS>MOLECULE
*****
 96 102 0 0 0
SMALL
GASTEIGER

@<TRIPOS>ATOM
      1 N         -10.5497    2.4680   -0.3893 N.pl3   1  UNL1       -0.3579
      2 C          -9.4992    1.5452   -0.6247 C.ar    1  UNL1        0.0252
      3 C          -9.8139    0.3346   -1.2000 C.ar    1  UNL1       -0.0404
      4 C          -8.8497   -0.6330   -1.4728 C.ar    1  UNL1       -0.0516
      5 C          -7.5444   -0.3589   -1.1527 C.ar    1  UNL1       -0.0067
      6 C          -6.5727   -1.2996   -1.4129 C.ar    1  UNL1        0.0067
      7 C          -6.8296   -2.5136   -1.9815 C.ar    1  UNL1       -0.0458
      8 C          -5.7875   -3.3872   -2.2022 C.ar    1  UNL1        0.0099
      9 C          -4.4878   -3.1021   -1.8787 C.ar    1  UNL1        0.2014
     10 N          -3.5224   -3.9612   -2.1083 N.2     1  UNL1       -0.2543
     11 C          -4.1740   -1.8947   -1.3037 C.ar    1  UNL1        0.0332
     12 C          -5.1617   -0.9745   -1.0545 C.ar    1  UNL1        0.0563
     13 N          -4.9168    0.2328   -0.4912 N.ar    1  UNL1       -0.3391
     14 C          -3.5401    0.5771   -0.1516 C.3     1  UNL1        0.0250
     15 C          -3.1451    0.1033    1.1782 C.3     1  UNL1       -0.0224
     16 C          -1.7872    0.4275    1.6921 C.3     1  UNL1       -0.0025
     17 N          -0.6758    0.0209    0.9125 N.3     1  UNL1       -0.3159
     18 C          -0.3510    0.8725   -0.1726 C.3     1  UNL1       -0.0030
     19 C           0.6807    0.2143   -1.0728 C.3     1  UNL1       -0.0278
     20 C           1.9690   -0.1046   -0.3584 C.3     1  UNL1       -0.0030
     21 N           1.7727   -0.9970    0.7532 N.3     1  UNL1       -0.3159
     22 C           3.0744   -1.3004    1.3911 C.3     1  UNL1       -0.0027
     23 C           3.9228   -2.1835    0.5580 C.3     1  UNL1       -0.0249
     24 C           5.2110   -2.6596    1.0566 C.3     1  UNL1        0.0103
     25 N           6.3259   -1.8785    1.3573 N.pl3   1  UNL1       -0.3430
     26 C           6.9462   -0.8318    0.6386 C.ar    1  UNL1        0.0413
     27 C           7.8043   -1.1068   -0.4444 C.ar    1  UNL1       -0.0047
     28 C           8.4554   -0.0641   -1.0812 C.ar    1  UNL1        0.0469
     29 N           8.2826    1.2032   -0.6867 N.ar    1  UNL1       -0.2512
     30 C           7.4682    1.4816    0.3463 C.ar    1  UNL1        0.0731
     31 C           7.3341    2.7738    0.7584 C.ar    1  UNL1       -0.0357
     32 C           6.5346    3.0720    1.8406 C.ar    1  UNL1       -0.0597
     33 C           5.8520    2.1030    2.5378 C.ar    1  UNL1       -0.0610
     34 C           5.9995    0.7982    2.1040 C.ar    1  UNL1       -0.0508
     35 C           6.7888    0.4706    1.0253 C.ar    1  UNL1        0.0215
     36 C           9.4082   -0.3086   -2.2148 C.3     1  UNL1       -0.0101
     37 C          10.0024   -1.6900   -1.8916 C.3     1  UNL1       -0.0473
     38 C           8.8777   -2.6880   -1.9709 C.3     1  UNL1       -0.0486
     39 C           7.9229   -2.5292   -0.8349 C.3     1  UNL1       -0.0242
     40 C          -5.8717    1.1153   -0.2542 C.ar    1  UNL1        0.0573
     41 C          -5.5650    2.4032    0.3179 C.ar    1  UNL1       -0.0009
     42 C          -5.6569    2.5716    1.6777 C.ar    1  UNL1       -0.0526
     43 C          -5.3859    3.7745    2.3019 C.ar    1  UNL1       -0.0611
     44 C          -5.0092    4.8522    1.5476 C.ar    1  UNL1       -0.0617
     45 C          -4.9123    4.6932    0.1673 C.ar    1  UNL1       -0.0611
     46 C          -5.1858    3.4860   -0.4401 C.ar    1  UNL1       -0.0526
     47 C          -7.1841    0.8504   -0.5709 C.ar    1  UNL1        0.0086
     48 C          -8.1733    1.7697   -0.3226 C.ar    1  UNL1       -0.0313
     49 H         -11.1812    2.6693   -1.2214 H       1  UNL1        0.1423
     50 H         -10.7526    2.9495    0.4902 H       1  UNL1        0.1423
     51 H         -10.8461    0.0924   -1.4647 H       1  UNL1        0.0636
     52 H          -9.1572   -1.5512   -1.9210 H       1  UNL1        0.0624
     53 H          -7.8338   -2.7810   -2.2530 H       1  UNL1        0.0626
     54 H          -5.9847   -4.3446   -2.6516 H       1  UNL1        0.0683
     55 H          -2.5497   -3.7099   -1.8487 H       1  UNL1        0.4434
     56 H          -3.6842   -4.8845   -2.5386 H       1  UNL1        0.4434
     57 H          -3.1565   -1.6453   -1.0364 H       1  UNL1        0.0704
     58 H          -3.4499    1.6967   -0.1973 H       1  UNL1        0.0492
     59 H          -2.8673    0.1964   -0.9529 H       1  UNL1        0.0492
     60 H          -3.1966   -1.0463    1.2142 H       1  UNL1        0.0295
     61 H          -3.9064    0.3566    1.9768 H       1  UNL1        0.0295
     62 H          -1.6798    0.1239    2.7771 H       1  UNL1        0.0425
     63 H          -1.7080    1.5701    1.7540 H       1  UNL1        0.0425
     64 H          -0.7069   -0.9993    0.6499 H       1  UNL1        0.1219
     65 H          -1.1351    1.3647   -0.7333 H       1  UNL1        0.0424
     66 H           0.2422    1.7620    0.2790 H       1  UNL1        0.0424
     67 H           0.2607   -0.6506   -1.6122 H       1  UNL1        0.0290
     68 H           0.9414    0.9962   -1.8373 H       1  UNL1        0.0290
     69 H           2.4374    0.8617   -0.0305 H       1  UNL1        0.0424
     70 H           2.6598   -0.5620   -1.0886 H       1  UNL1        0.0424
     71 H           1.4358   -1.9560    0.4112 H       1  UNL1        0.1219
     72 H           3.5663   -0.2865    1.4538 H       1  UNL1        0.0424
     73 H           2.9064   -1.6627    2.4150 H       1  UNL1        0.0424
     74 H           3.2901   -3.1247    0.3682 H       1  UNL1        0.0293
     75 H           4.0199   -1.7830   -0.5110 H       1  UNL1        0.0293
     76 H           5.5718   -3.5868    0.4772 H       1  UNL1        0.0461
     77 H           4.9299   -3.1837    2.0782 H       1  UNL1        0.0461
     78 H           6.8292   -2.0790    2.2874 H       1  UNL1        0.1461
     79 H           7.8532    3.6005    0.2435 H       1  UNL1        0.0639
     80 H           6.4419    4.1208    2.1544 H       1  UNL1        0.0618
     81 H           5.2152    2.3105    3.3965 H       1  UNL1        0.0618
     82 H           5.5016   -0.0051    2.6352 H       1  UNL1        0.0625
     83 H           8.9498   -0.2551   -3.1981 H       1  UNL1        0.0328
     84 H          10.2222    0.4332   -2.1042 H       1  UNL1        0.0328
     85 H          10.3677   -1.6170   -0.8485 H       1  UNL1        0.0269
     86 H          10.8332   -1.9248   -2.5748 H       1  UNL1        0.0269
     87 H           9.2722   -3.7296   -2.0458 H       1  UNL1        0.0269
     88 H           8.3069   -2.5043   -2.9334 H       1  UNL1        0.0269
     89 H           6.9176   -2.8951   -1.2383 H       1  UNL1        0.0314
     90 H           8.1659   -3.1623    0.0438 H       1  UNL1        0.0314
     91 H          -5.9506    1.7549    2.3261 H       1  UNL1        0.0624
     92 H          -5.4697    3.8680    3.3805 H       1  UNL1        0.0618
     93 H          -4.7948    5.7946    2.0164 H       1  UNL1        0.0618
     94 H          -4.6124    5.5695   -0.3932 H       1  UNL1        0.0618
     95 H          -5.0981    3.3962   -1.5211 H       1  UNL1        0.0624
     96 H          -7.8973    2.6947    0.1228 H       1  UNL1        0.0643
@<TRIPOS>UNITY_ATOM_ATTR
10 1
charge 1
@<TRIPOS>BOND
     1     1     2    1
     2     2     3   ar
     3     3     4   ar
     4     4     5   ar
     5     5     6   ar
     6     6     7   ar
     7     7     8   ar
     8     8     9   ar
     9     9    10    2
    10     9    11   ar
    11    11    12   ar
    12    12    13   ar
    13    13    14    1
    14    14    15    1
    15    15    16    1
    16    16    17    1
    17    17    18    1
    18    18    19    1
    19    19    20    1
    20    20    21    1
    21    21    22    1
    22    22    23    1
    23    23    24    1
    24    24    25    1
    25    25    26    1
    26    26    27   ar
    27    27    28   ar
    28    28    29   ar
    29    29    30   ar
    30    30    31   ar
    31    31    32   ar
    32    32    33   ar
    33    33    34   ar
    34    34    35   ar
    35    28    36    1
    36    36    37    1
    37    37    38    1
    38    38    39    1
    39    13    40   ar
    40    40    41    1
    41    41    42   ar
    42    42    43   ar
    43    43    44   ar
    44    44    45   ar
    45    45    46   ar
    46    40    47   ar
    47    47    48   ar
    48    48     2   ar
    49    47     5   ar
    50    12     6    1
    51    35    26   ar
    52    46    41   ar
    53    39    27    1
    54    35    30   ar
    55     1    49    1
    56     1    50    1
    57     3    51    1
    58     4    52    1
    59     7    53    1
    60     8    54    1
    61    10    55    1
    62    10    56    1
    63    11    57    1
    64    14    58    1
    65    14    59    1
    66    15    60    1
    67    15    61    1
    68    16    62    1
    69    16    63    1
    70    17    64    1
    71    18    65    1
    72    18    66    1
    73    19    67    1
    74    19    68    1
    75    20    69    1
    76    20    70    1
    77    21    71    1
    78    22    72    1
    79    22    73    1
    80    23    74    1
    81    23    75    1
    82    24    76    1
    83    24    77    1
    84    25    78    1
    85    31    79    1
    86    32    80    1
    87    33    81    1
    88    34    82    1
    89    36    83    1
    90    36    84    1
    91    37    85    1
    92    37    86    1
    93    38    87    1
    94    38    88    1
    95    39    89    1
    96    39    90    1
    97    42    91    1
    98    43    92    1
    99    44    93    1
   100    45    94    1
   101    46    95    1
   102    48    96    1
