@<TRIPOS>MOLECULE
*****
 64 69 0 0 0
SMALL
GASTEIGER

@<TRIPOS>ATOM
      1 C           1.5033    2.9566   -1.8288 C.3     1  UNL1       -0.0612
      2 C           0.3632    2.1122   -2.3577 C.3     1  UNL1       -0.0288
      3 C          -0.1412    1.1157   -1.4136 C.ar    1  UNL1       -0.0259
      4 C          -1.3586    1.4289   -0.7849 C.ar    1  UNL1       -0.0457
      5 C          -1.9250    0.5737    0.1080 C.ar    1  UNL1        0.0268
      6 C          -1.3009   -0.6170    0.3979 C.ar    1  UNL1       -0.0234
      7 C          -0.0921   -0.9076   -0.2375 C.ar    1  UNL1       -0.0357
      8 C           0.5051   -0.0511   -1.1466 C.ar    1  UNL1        0.0333
      9 N           1.7715   -0.3414   -1.7200 N.pl3   1  UNL1       -0.3272
     10 C           3.0166   -0.1065   -0.9947 C.3     1  UNL1        0.0250
     11 C           4.1083   -0.8335   -1.6920 C.3     1  UNL1        0.0151
     12 N           4.3128   -0.3823   -3.0554 N.3     1  UNL1       -0.2921
     13 C           5.0456    0.8519   -3.1200 C.3     1  UNL1        0.0572
     14 C           6.3379    0.9070   -2.3528 C.3     1  UNL1        0.0654
     15 O           6.8267    1.7625   -3.3532 O.3     1  UNL1       -0.3765
     16 C           6.0763    0.9589   -4.2526 C.3     1  UNL1        0.0654
     17 C           3.0472   -0.2237   -3.7472 C.3     1  UNL1        0.0151
     18 C           1.9122   -0.8884   -3.0520 C.3     1  UNL1        0.0250
     19 C          -1.8144   -1.6329    1.3435 C.3     1  UNL1        0.0315
     20 C          -2.2504   -2.8950    0.6109 C.3     1  UNL1       -0.0503
     21 C          -0.7285   -2.0533    2.3341 C.3     1  UNL1       -0.0503
     22 C          -2.9372   -1.1372    2.1393 C.ar    1  UNL1        0.0380
     23 N          -3.5021   -1.7191    3.2383 N.ar    1  UNL1       -0.3566
     24 C          -4.5009   -0.9521    3.7054 C.ar    1  UNL1        0.0486
     25 C          -5.3434   -1.0569    4.8206 C.ar    1  UNL1       -0.0204
     26 C          -6.2480   -0.0593    5.0894 C.ar    1  UNL1        0.0537
     27 C          -7.0258   -0.0915    6.3461 C.1     1  UNL1        0.0992
     28 N          -7.5920   -0.1130    7.2975 N.1     1  UNL1       -0.1909
     29 C          -6.3200    1.0210    4.2605 C.ar    1  UNL1       -0.0436
     30 C          -5.4834    1.1387    3.1413 C.ar    1  UNL1       -0.0507
     31 C          -4.5695    0.1345    2.8815 C.ar    1  UNL1        0.0109
     32 C          -3.5967    0.0446    1.8918 C.ar    1  UNL1        0.0513
     33 C          -3.1282    0.9464    0.8678 C.2     1  UNL1        0.1957
     34 O          -3.6879    2.0229    0.5928 O.2     1  UNL1       -0.2866
     35 H           1.5123    2.8693   -0.7060 H       1  UNL1        0.0233
     36 H           2.4705    2.6427   -2.2602 H       1  UNL1        0.0233
     37 H           1.3952    4.0316   -2.1061 H       1  UNL1        0.0233
     38 H           0.6320    1.6697   -3.3297 H       1  UNL1        0.0311
     39 H          -0.4372    2.8674   -2.6103 H       1  UNL1        0.0311
     40 H          -1.8634    2.3543   -1.0011 H       1  UNL1        0.0628
     41 H           0.4238   -1.8502   -0.0233 H       1  UNL1        0.0639
     42 H           3.2103    0.9435   -0.7504 H       1  UNL1        0.0476
     43 H           2.8513   -0.6095    0.0081 H       1  UNL1        0.0476
     44 H           3.9365   -1.9252   -1.7144 H       1  UNL1        0.0442
     45 H           5.0527   -0.6594   -1.1413 H       1  UNL1        0.0442
     46 H           4.4978    1.7913   -3.0362 H       1  UNL1        0.0508
     47 H           6.9584    0.0148   -2.3053 H       1  UNL1        0.0576
     48 H           6.1440    1.4456   -1.3731 H       1  UNL1        0.0576
     49 H           6.6546    0.0566   -4.4568 H       1  UNL1        0.0576
     50 H           5.7846    1.5828   -5.0894 H       1  UNL1        0.0576
     51 H           3.1544   -0.6766   -4.7583 H       1  UNL1        0.0442
     52 H           2.7851    0.8391   -3.9368 H       1  UNL1        0.0442
     53 H           0.9431   -0.7782   -3.5832 H       1  UNL1        0.0476
     54 H           2.1214   -1.9826   -2.9094 H       1  UNL1        0.0476
     55 H          -1.5337   -3.1224   -0.2202 H       1  UNL1        0.0242
     56 H          -3.2260   -2.6758    0.1410 H       1  UNL1        0.0242
     57 H          -2.3502   -3.7616    1.2840 H       1  UNL1        0.0242
     58 H          -0.1033   -2.8827    1.9635 H       1  UNL1        0.0242
     59 H          -1.1717   -2.1990    3.3350 H       1  UNL1        0.0242
     60 H          -0.0438   -1.1552    2.4178 H       1  UNL1        0.0242
     61 H          -3.2414   -2.6362    3.6938 H       1  UNL1        0.1656
     62 H          -5.2777   -1.9206    5.4589 H       1  UNL1        0.0651
     63 H          -7.0274    1.8300    4.4322 H       1  UNL1        0.0631
     64 H          -5.5326    1.9831    2.4830 H       1  UNL1        0.0625
@<TRIPOS>BOND
     1     1     2    1
     2     2     3    1
     3     3     4   ar
     4     4     5   ar
     5     5     6   ar
     6     6     7   ar
     7     7     8   ar
     8     8     9    1
     9     9    10    1
    10    10    11    1
    11    11    12    1
    12    12    13    1
    13    13    14    1
    14    14    15    1
    15    15    16    1
    16    12    17    1
    17    17    18    1
    18     6    19    1
    19    19    20    1
    20    19    21    1
    21    19    22    1
    22    22    23   ar
    23    23    24   ar
    24    24    25   ar
    25    25    26   ar
    26    26    27    1
    27    27    28    3
    28    26    29   ar
    29    29    30   ar
    30    30    31   ar
    31    31    32   ar
    32    32    33    1
    33    33    34    2
    34     8     3   ar
    35    18     9    1
    36    32    22   ar
    37    33     5    1
    38    16    13    1
    39    31    24   ar
    40     1    35    1
    41     1    36    1
    42     1    37    1
    43     2    38    1
    44     2    39    1
    45     4    40    1
    46     7    41    1
    47    10    42    1
    48    10    43    1
    49    11    44    1
    50    11    45    1
    51    13    46    1
    52    14    47    1
    53    14    48    1
    54    16    49    1
    55    16    50    1
    56    17    51    1
    57    17    52    1
    58    18    53    1
    59    18    54    1
    60    20    55    1
    61    20    56    1
    62    20    57    1
    63    21    58    1
    64    21    59    1
    65    21    60    1
    66    23    61    1
    67    25    62    1
    68    29    63    1
    69    30    64    1
