
     RDKit          3D

 64 69  0  0  0  0  0  0  0  0999 V2000
    1.5033    2.9566   -1.8288 C   0  0  0  0  0  0  0  0  0  0  0  0
    0.3632    2.1122   -2.3577 C   0  0  0  0  0  0  0  0  0  0  0  0
   -0.1412    1.1157   -1.4136 C   0  0  0  0  0  0  0  0  0  0  0  0
   -1.3586    1.4289   -0.7849 C   0  0  0  0  0  0  0  0  0  0  0  0
   -1.9250    0.5737    0.1080 C   0  0  0  0  0  0  0  0  0  0  0  0
   -1.3009   -0.6170    0.3979 C   0  0  0  0  0  0  0  0  0  0  0  0
   -0.0921   -0.9076   -0.2375 C   0  0  0  0  0  0  0  0  0  0  0  0
    0.5051   -0.0511   -1.1466 C   0  0  0  0  0  0  0  0  0  0  0  0
    1.7715   -0.3414   -1.7200 N   0  0  0  0  0  0  0  0  0  0  0  0
    3.0166   -0.1065   -0.9947 C   0  0  0  0  0  0  0  0  0  0  0  0
    4.1083   -0.8335   -1.6920 C   0  0  0  0  0  0  0  0  0  0  0  0
    4.3128   -0.3823   -3.0554 N   0  0  0  0  0  0  0  0  0  0  0  0
    5.0456    0.8519   -3.1200 C   0  0  0  0  0  0  0  0  0  0  0  0
    6.3379    0.9070   -2.3528 C   0  0  0  0  0  0  0  0  0  0  0  0
    6.8267    1.7625   -3.3532 O   0  0  0  0  0  0  0  0  0  0  0  0
    6.0763    0.9589   -4.2526 C   0  0  0  0  0  0  0  0  0  0  0  0
    3.0472   -0.2237   -3.7472 C   0  0  0  0  0  0  0  0  0  0  0  0
    1.9122   -0.8884   -3.0520 C   0  0  0  0  0  0  0  0  0  0  0  0
   -1.8144   -1.6329    1.3435 C   0  0  0  0  0  0  0  0  0  0  0  0
   -2.2504   -2.8950    0.6109 C   0  0  0  0  0  0  0  0  0  0  0  0
   -0.7285   -2.0533    2.3341 C   0  0  0  0  0  0  0  0  0  0  0  0
   -2.9372   -1.1372    2.1393 C   0  0  0  0  0  0  0  0  0  0  0  0
   -3.5021   -1.7191    3.2383 N   0  0  0  0  0  0  0  0  0  0  0  0
   -4.5009   -0.9521    3.7054 C   0  0  0  0  0  0  0  0  0  0  0  0
   -5.3434   -1.0569    4.8206 C   0  0  0  0  0  0  0  0  0  0  0  0
   -6.2480   -0.0593    5.0894 C   0  0  0  0  0  0  0  0  0  0  0  0
   -7.0258   -0.0915    6.3461 C   0  0  0  0  0  0  0  0  0  0  0  0
   -7.5920   -0.1130    7.2975 N   0  0  0  0  0  0  0  0  0  0  0  0
   -6.3200    1.0210    4.2605 C   0  0  0  0  0  0  0  0  0  0  0  0
   -5.4834    1.1387    3.1413 C   0  0  0  0  0  0  0  0  0  0  0  0
   -4.5695    0.1345    2.8815 C   0  0  0  0  0  0  0  0  0  0  0  0
   -3.5967    0.0446    1.8918 C   0  0  0  0  0  0  0  0  0  0  0  0
   -3.1282    0.9464    0.8678 C   0  0  0  0  0  0  0  0  0  0  0  0
   -3.6879    2.0229    0.5928 O   0  0  0  0  0  0  0  0  0  0  0  0
    1.5123    2.8693   -0.7060 H   0  0  0  0  0  0  0  0  0  0  0  0
    2.4705    2.6427   -2.2602 H   0  0  0  0  0  0  0  0  0  0  0  0
    1.3952    4.0316   -2.1061 H   0  0  0  0  0  0  0  0  0  0  0  0
    0.6320    1.6697   -3.3297 H   0  0  0  0  0  0  0  0  0  0  0  0
   -0.4372    2.8674   -2.6103 H   0  0  0  0  0  0  0  0  0  0  0  0
   -1.8634    2.3543   -1.0011 H   0  0  0  0  0  0  0  0  0  0  0  0
    0.4238   -1.8502   -0.0233 H   0  0  0  0  0  0  0  0  0  0  0  0
    3.2103    0.9435   -0.7504 H   0  0  0  0  0  0  0  0  0  0  0  0
    2.8513   -0.6095    0.0081 H   0  0  0  0  0  0  0  0  0  0  0  0
    3.9365   -1.9252   -1.7144 H   0  0  0  0  0  0  0  0  0  0  0  0
    5.0527   -0.6594   -1.1413 H   0  0  0  0  0  0  0  0  0  0  0  0
    4.4978    1.7913   -3.0362 H   0  0  0  0  0  0  0  0  0  0  0  0
    6.9584    0.0148   -2.3053 H   0  0  0  0  0  0  0  0  0  0  0  0
    6.1440    1.4456   -1.3731 H   0  0  0  0  0  0  0  0  0  0  0  0
    6.6546    0.0566   -4.4568 H   0  0  0  0  0  0  0  0  0  0  0  0
    5.7846    1.5828   -5.0894 H   0  0  0  0  0  0  0  0  0  0  0  0
    3.1544   -0.6766   -4.7583 H   0  0  0  0  0  0  0  0  0  0  0  0
    2.7851    0.8391   -3.9368 H   0  0  0  0  0  0  0  0  0  0  0  0
    0.9431   -0.7782   -3.5832 H   0  0  0  0  0  0  0  0  0  0  0  0
    2.1214   -1.9826   -2.9094 H   0  0  0  0  0  0  0  0  0  0  0  0
   -1.5337   -3.1224   -0.2202 H   0  0  0  0  0  0  0  0  0  0  0  0
   -3.2260   -2.6758    0.1410 H   0  0  0  0  0  0  0  0  0  0  0  0
   -2.3502   -3.7616    1.2840 H   0  0  0  0  0  0  0  0  0  0  0  0
   -0.1033   -2.8827    1.9635 H   0  0  0  0  0  0  0  0  0  0  0  0
   -1.1717   -2.1990    3.3350 H   0  0  0  0  0  0  0  0  0  0  0  0
   -0.0438   -1.1552    2.4178 H   0  0  0  0  0  0  0  0  0  0  0  0
   -3.2414   -2.6362    3.6938 H   0  0  0  0  0  0  0  0  0  0  0  0
   -5.2777   -1.9206    5.4589 H   0  0  0  0  0  0  0  0  0  0  0  0
   -7.0274    1.8300    4.4322 H   0  0  0  0  0  0  0  0  0  0  0  0
   -5.5326    1.9831    2.4830 H   0  0  0  0  0  0  0  0  0  0  0  0
  1  2  1  0
  2  3  1  0
  3  4  2  0
  4  5  1  0
  5  6  2  0
  6  7  1  0
  7  8  2  0
  8  9  1  0
  9 10  1  0
 10 11  1  0
 11 12  1  0
 12 13  1  0
 13 14  1  0
 14 15  1  0
 15 16  1  0
 12 17  1  0
 17 18  1  0
  6 19  1  0
 19 20  1  0
 19 21  1  0
 19 22  1  0
 22 23  1  0
 23 24  1  0
 24 25  2  0
 25 26  1  0
 26 27  1  0
 27 28  3  0
 26 29  2  0
 29 30  1  0
 30 31  2  0
 31 32  1  0
 32 33  1  0
 33 34  2  0
  8  3  1  0
 18  9  1  0
 32 22  2  0
 33  5  1  0
 16 13  1  0
 31 24  1  0
  1 35  1  0
  1 36  1  0
  1 37  1  0
  2 38  1  0
  2 39  1  0
  4 40  1  0
  7 41  1  0
 10 42  1  0
 10 43  1  0
 11 44  1  0
 11 45  1  0
 13 46  1  0
 14 47  1  0
 14 48  1  0
 16 49  1  0
 16 50  1  0
 17 51  1  0
 17 52  1  0
 18 53  1  0
 18 54  1  0
 20 55  1  0
 20 56  1  0
 20 57  1  0
 21 58  1  0
 21 59  1  0
 21 60  1  0
 23 61  1  0
 25 62  1  0
 29 63  1  0
 30 64  1  0
M  END
$$$$
