
     RDKit          3D

 41 43  0  0  0  0  0  0  0  0999 V2000
    0.1061   -1.8130    4.1212 C   0  0  0  0  0  0  0  0  0  0  0  0
    0.5911   -1.3547    2.8962 O   0  0  0  0  0  0  0  0  0  0  0  0
   -0.1957   -0.7938    1.9042 C   0  0  0  0  0  0  0  0  0  0  0  0
   -1.5674   -0.6468    2.0727 C   0  0  0  0  0  0  0  0  0  0  0  0
   -2.3606   -0.0885    1.0890 C   0  0  0  0  0  0  0  0  0  0  0  0
   -1.7560    0.3221   -0.0709 C   0  0  0  0  0  0  0  0  0  0  0  0
   -2.5756    0.9348   -1.1690 C   0  0  0  0  0  0  0  0  0  0  0  0
   -3.6339   -0.0526   -1.6278 C   0  0  0  0  0  0  0  0  0  0  0  0
   -4.8462    0.7217   -1.7386 N   0  0  0  0  0  0  0  0  0  0  0  0
   -4.7323    1.9575   -1.0444 C   0  0  0  0  0  0  0  0  0  0  0  0
   -5.6203    2.8054   -0.7960 O   0  0  0  0  0  0  0  0  0  0  0  0
   -3.3204    2.1184   -0.6246 C   0  0  0  0  0  0  0  0  0  0  0  0
   -0.3943    0.1728   -0.2304 C   0  0  0  0  0  0  0  0  0  0  0  0
    0.4229   -0.3810    0.7341 C   0  0  0  0  0  0  0  0  0  0  0  0
    1.7781   -0.5417    0.6031 O   0  0  0  0  0  0  0  0  0  0  0  0
    2.5640   -0.1910   -0.4866 C   0  0  0  0  0  0  0  0  0  0  0  0
    3.3561   -1.3834   -1.0370 C   0  0  0  0  0  0  0  0  0  0  0  0
    4.2812   -0.6366   -2.0089 C   0  0  0  0  0  0  0  0  0  0  0  0
    4.8356    0.4366   -1.0643 C   0  0  0  0  0  0  0  0  0  0  0  0
    3.7220    0.7182   -0.0771 C   0  0  0  0  0  0  0  0  0  0  0  0
    0.9906   -2.0328    4.7763 H   0  0  0  0  0  0  0  0  0  0  0  0
   -0.5642   -2.6951    4.0448 H   0  0  0  0  0  0  0  0  0  0  0  0
   -0.4743   -0.9810    4.5919 H   0  0  0  0  0  0  0  0  0  0  0  0
   -1.9984   -0.9852    3.0039 H   0  0  0  0  0  0  0  0  0  0  0  0
   -3.4333    0.0200    1.2355 H   0  0  0  0  0  0  0  0  0  0  0  0
   -1.9172    1.1940   -2.0035 H   0  0  0  0  0  0  0  0  0  0  0  0
   -3.3770   -0.4529   -2.6406 H   0  0  0  0  0  0  0  0  0  0  0  0
   -3.7027   -0.8853   -0.9154 H   0  0  0  0  0  0  0  0  0  0  0  0
   -5.7000    0.4262   -2.2559 H   0  0  0  0  0  0  0  0  0  0  0  0
   -2.8954    3.0951   -0.9475 H   0  0  0  0  0  0  0  0  0  0  0  0
   -3.3185    2.0636    0.4919 H   0  0  0  0  0  0  0  0  0  0  0  0
    0.0292    0.5076   -1.1508 H   0  0  0  0  0  0  0  0  0  0  0  0
    2.0434    0.2632   -1.3330 H   0  0  0  0  0  0  0  0  0  0  0  0
    2.7243   -2.0752   -1.5916 H   0  0  0  0  0  0  0  0  0  0  0  0
    3.9108   -1.8094   -0.2013 H   0  0  0  0  0  0  0  0  0  0  0  0
    5.0578   -1.2762   -2.4193 H   0  0  0  0  0  0  0  0  0  0  0  0
    3.6076   -0.1758   -2.7591 H   0  0  0  0  0  0  0  0  0  0  0  0
    5.1649    1.3331   -1.6113 H   0  0  0  0  0  0  0  0  0  0  0  0
    5.7076   -0.0590   -0.5582 H   0  0  0  0  0  0  0  0  0  0  0  0
    3.4254    1.7847   -0.1262 H   0  0  0  0  0  0  0  0  0  0  0  0
    4.0652    0.4362    0.9247 H   0  0  0  0  0  0  0  0  0  0  0  0
  1  2  1  0
  2  3  1  0
  3  4  2  0
  4  5  1  0
  5  6  2  0
  6  7  1  0
  7  8  1  0
  8  9  1  0
  9 10  1  0
 10 11  2  0
 10 12  1  0
  6 13  1  0
 13 14  2  0
 14 15  1  0
 15 16  1  0
 16 17  1  0
 17 18  1  0
 18 19  1  0
 19 20  1  0
 14  3  1  0
 20 16  1  0
 12  7  1  0
  1 21  1  0
  1 22  1  0
  1 23  1  0
  4 24  1  0
  5 25  1  0
  7 26  1  0
  8 27  1  0
  8 28  1  0
  9 29  1  0
 12 30  1  0
 12 31  1  0
 13 32  1  0
 16 33  1  0
 17 34  1  0
 17 35  1  0
 18 36  1  0
 18 37  1  0
 19 38  1  0
 19 39  1  0
 20 40  1  0
 20 41  1  0
M  END
$$$$
