@<TRIPOS>MOLECULE
*****
 41 43 0 0 0
SMALL
GASTEIGER

@<TRIPOS>ATOM
      1 C           0.1061   -1.8130    4.1212 C.3     1  UNL1        0.0790
      2 O           0.5911   -1.3547    2.8962 O.3     1  UNL1       -0.4915
      3 C          -0.1957   -0.7938    1.9042 C.ar    1  UNL1        0.1615
      4 C          -1.5674   -0.6468    2.0727 C.ar    1  UNL1       -0.0160
      5 C          -2.3606   -0.0885    1.0890 C.ar    1  UNL1       -0.0546
      6 C          -1.7560    0.3221   -0.0709 C.ar    1  UNL1       -0.0387
      7 C          -2.5756    0.9348   -1.1690 C.3     1  UNL1        0.0080
      8 C          -3.6339   -0.0526   -1.6278 C.3     1  UNL1        0.0188
      9 N          -4.8462    0.7217   -1.7386 N.am    1  UNL1       -0.3147
     10 C          -4.7323    1.9575   -1.0444 C.2     1  UNL1        0.2137
     11 O          -5.6203    2.8054   -0.7960 O.2     1  UNL1       -0.2758
     12 C          -3.3204    2.1184   -0.6246 C.3     1  UNL1        0.0322
     13 C          -0.3943    0.1728   -0.2304 C.ar    1  UNL1       -0.0128
     14 C           0.4229   -0.3810    0.7341 C.ar    1  UNL1        0.1626
     15 O           1.7781   -0.5417    0.6031 O.3     1  UNL1       -0.4852
     16 C           2.5640   -0.1910   -0.4866 C.3     1  UNL1        0.1004
     17 C           3.3561   -1.3834   -1.0370 C.3     1  UNL1       -0.0158
     18 C           4.2812   -0.6366   -2.0089 C.3     1  UNL1       -0.0496
     19 C           4.8356    0.4366   -1.0643 C.3     1  UNL1       -0.0496
     20 C           3.7220    0.7182   -0.0771 C.3     1  UNL1       -0.0158
     21 H           0.9906   -2.0328    4.7763 H       1  UNL1        0.0660
     22 H          -0.5642   -2.6951    4.0448 H       1  UNL1        0.0660
     23 H          -0.4743   -0.9810    4.5919 H       1  UNL1        0.0660
     24 H          -1.9984   -0.9852    3.0039 H       1  UNL1        0.0655
     25 H          -3.4333    0.0200    1.2355 H       1  UNL1        0.0622
     26 H          -1.9172    1.1940   -2.0035 H       1  UNL1        0.0369
     27 H          -3.3770   -0.4529   -2.6406 H       1  UNL1        0.0468
     28 H          -3.7027   -0.8853   -0.9154 H       1  UNL1        0.0468
     29 H          -5.7000    0.4262   -2.2559 H       1  UNL1        0.1487
     30 H          -2.8954    3.0951   -0.9475 H       1  UNL1        0.0365
     31 H          -3.3185    2.0636    0.4919 H       1  UNL1        0.0365
     32 H           0.0292    0.5076   -1.1508 H       1  UNL1        0.0658
     33 H           2.0434    0.2632   -1.3330 H       1  UNL1        0.0733
     34 H           2.7243   -2.0752   -1.5916 H       1  UNL1        0.0301
     35 H           3.9108   -1.8094   -0.2013 H       1  UNL1        0.0301
     36 H           5.0578   -1.2762   -2.4193 H       1  UNL1        0.0266
     37 H           3.6076   -0.1758   -2.7591 H       1  UNL1        0.0266
     38 H           5.1649    1.3331   -1.6113 H       1  UNL1        0.0266
     39 H           5.7076   -0.0590   -0.5582 H       1  UNL1        0.0266
     40 H           3.4254    1.7847   -0.1262 H       1  UNL1        0.0301
     41 H           4.0652    0.4362    0.9247 H       1  UNL1        0.0301
@<TRIPOS>BOND
     1     1     2    1
     2     2     3    1
     3     3     4   ar
     4     4     5   ar
     5     5     6   ar
     6     6     7    1
     7     7     8    1
     8     8     9    1
     9     9    10   am
    10    10    11    2
    11    10    12    1
    12     6    13   ar
    13    13    14   ar
    14    14    15    1
    15    15    16    1
    16    16    17    1
    17    17    18    1
    18    18    19    1
    19    19    20    1
    20    14     3   ar
    21    20    16    1
    22    12     7    1
    23     1    21    1
    24     1    22    1
    25     1    23    1
    26     4    24    1
    27     5    25    1
    28     7    26    1
    29     8    27    1
    30     8    28    1
    31     9    29    1
    32    12    30    1
    33    12    31    1
    34    13    32    1
    35    16    33    1
    36    17    34    1
    37    17    35    1
    38    18    36    1
    39    18    37    1
    40    19    38    1
    41    19    39    1
    42    20    40    1
    43    20    41    1
