@<TRIPOS>MOLECULE
*****
 18 19 0 0 0
SMALL
GASTEIGER

@<TRIPOS>ATOM
      1 O           2.7485    2.2732   -0.4118 O.2     1  UNL1       -0.2411
      2 C           1.8441    1.3877   -0.2438 C.ar    1  UNL1        0.3793
      3 O           0.5705    1.6705   -0.2778 O.2     1  UNL1       -0.4196
      4 C          -0.3886    0.8005   -0.1118 C.ar    1  UNL1        0.1393
      5 C          -1.7307    1.1546   -0.1575 C.ar    1  UNL1       -0.0186
      6 C          -2.7179    0.2170    0.0208 C.ar    1  UNL1       -0.0582
      7 C          -2.3757   -1.0968    0.2489 C.ar    1  UNL1       -0.0610
      8 C          -1.0295   -1.4654    0.2971 C.ar    1  UNL1       -0.0510
      9 C          -0.0420   -0.5208    0.1176 C.ar    1  UNL1        0.0211
     10 C           1.2861   -0.9007    0.1681 C.ar    1  UNL1       -0.0023
     11 C           2.2256    0.0775   -0.0168 C.ar    1  UNL1        0.2029
     12 O           3.5707   -0.2060    0.0164 O.3     1  UNL1       -0.5010
     13 H          -1.9999    2.1874   -0.3368 H       1  UNL1        0.0654
     14 H          -3.7687    0.4846   -0.0133 H       1  UNL1        0.0619
     15 H          -3.1688   -1.8126    0.3855 H       1  UNL1        0.0618
     16 H          -0.7430   -2.4919    0.4751 H       1  UNL1        0.0625
     17 H           1.5770   -1.9270    0.3460 H       1  UNL1        0.0663
     18 H           4.1423    0.1682    0.7584 H       1  UNL1        0.2924
@<TRIPOS>BOND
     1     1     2    2
     2     2     3   ar
     3     3     4   ar
     4     4     5   ar
     5     5     6   ar
     6     6     7   ar
     7     7     8   ar
     8     8     9   ar
     9     9    10   ar
    10    10    11   ar
    11    11    12    1
    12    11     2   ar
    13     9     4   ar
    14     5    13    1
    15     6    14    1
    16     7    15    1
    17     8    16    1
    18    10    17    1
    19    12    18    1
