
     RDKit          3D

 18 19  0  0  0  0  0  0  0  0999 V2000
    2.7485    2.2732   -0.4118 O   0  0  0  0  0  0  0  0  0  0  0  0
    1.8441    1.3877   -0.2438 C   0  0  0  0  0  0  0  0  0  0  0  0
    0.5705    1.6705   -0.2778 O   0  0  0  0  0  0  0  0  0  0  0  0
   -0.3886    0.8005   -0.1118 C   0  0  0  0  0  0  0  0  0  0  0  0
   -1.7307    1.1546   -0.1575 C   0  0  0  0  0  0  0  0  0  0  0  0
   -2.7179    0.2170    0.0208 C   0  0  0  0  0  0  0  0  0  0  0  0
   -2.3757   -1.0968    0.2489 C   0  0  0  0  0  0  0  0  0  0  0  0
   -1.0295   -1.4654    0.2971 C   0  0  0  0  0  0  0  0  0  0  0  0
   -0.0420   -0.5208    0.1176 C   0  0  0  0  0  0  0  0  0  0  0  0
    1.2861   -0.9007    0.1681 C   0  0  0  0  0  0  0  0  0  0  0  0
    2.2256    0.0775   -0.0168 C   0  0  0  0  0  0  0  0  0  0  0  0
    3.5707   -0.2060    0.0164 O   0  0  0  0  0  0  0  0  0  0  0  0
   -1.9999    2.1874   -0.3368 H   0  0  0  0  0  0  0  0  0  0  0  0
   -3.7687    0.4846   -0.0133 H   0  0  0  0  0  0  0  0  0  0  0  0
   -3.1688   -1.8126    0.3855 H   0  0  0  0  0  0  0  0  0  0  0  0
   -0.7430   -2.4919    0.4751 H   0  0  0  0  0  0  0  0  0  0  0  0
    1.5770   -1.9270    0.3460 H   0  0  0  0  0  0  0  0  0  0  0  0
    4.1423    0.1682    0.7584 H   0  0  0  0  0  0  0  0  0  0  0  0
  1  2  2  0
  2  3  1  0
  3  4  1  0
  4  5  2  0
  5  6  1  0
  6  7  2  0
  7  8  1  0
  8  9  2  0
  9 10  1  0
 10 11  2  0
 11 12  1  0
 11  2  1  0
  9  4  1  0
  5 13  1  0
  6 14  1  0
  7 15  1  0
  8 16  1  0
 10 17  1  0
 12 18  1  0
M  END
$$$$
