
     RDKit          3D

 37 39  0  0  0  0  0  0  0  0999 V2000
   -2.8976   -1.1290    1.0786 C   0  0  0  0  0  0  0  0  0  0  0  0
   -2.6299   -0.3294   -0.2020 C   0  0  0  0  0  0  0  0  0  0  0  0
   -2.8275    1.1201    0.1660 C   0  0  0  0  0  0  0  0  0  0  0  0
   -2.0666    2.1487    0.1594 O   0  0  0  0  0  0  0  0  0  0  0  0
   -4.1545    1.4417    0.6289 N   0  0  0  0  0  0  0  0  0  0  0  0
   -5.3098    0.7288    0.2120 C   0  0  0  0  0  0  0  0  0  0  0  0
   -6.4626    0.9973    0.6051 O   0  0  0  0  0  0  0  0  0  0  0  0
   -5.0234   -0.3407   -0.7136 N   0  0  0  0  0  0  0  0  0  0  0  0
   -3.6848   -0.6473   -1.1652 C   0  0  0  0  0  0  0  0  0  0  0  0
   -3.7327   -1.1431   -2.3439 O   0  0  0  0  0  0  0  0  0  0  0  0
   -1.2526   -0.4830   -0.6270 C   0  0  0  0  0  0  0  0  0  0  0  0
   -0.7349   -1.1523   -1.7150 C   0  0  0  0  0  0  0  0  0  0  0  0
    0.6041   -1.2307   -2.0191 C   0  0  0  0  0  0  0  0  0  0  0  0
    1.5004   -0.6002   -1.1851 C   0  0  0  0  0  0  0  0  0  0  0  0
    2.8426   -0.7025   -1.5260 O   0  0  0  0  0  0  0  0  0  0  0  0
    3.7624   -0.0766   -0.7024 C   0  0  0  0  0  0  0  0  0  0  0  0
    4.2255    1.2150   -0.8184 C   0  0  0  0  0  0  0  0  0  0  0  0
    5.1401    1.7641    0.0404 C   0  0  0  0  0  0  0  0  0  0  0  0
    5.6129    0.9760    1.0668 C   0  0  0  0  0  0  0  0  0  0  0  0
    5.2181   -0.3304    1.2775 C   0  0  0  0  0  0  0  0  0  0  0  0
    4.2979   -0.8005    0.3687 C   0  0  0  0  0  0  0  0  0  0  0  0
    1.0315    0.0836   -0.0818 C   0  0  0  0  0  0  0  0  0  0  0  0
   -0.3292    0.1547    0.2142 C   0  0  0  0  0  0  0  0  0  0  0  0
   -2.8292   -0.4931    1.9784 H   0  0  0  0  0  0  0  0  0  0  0  0
   -3.8912   -1.6125    1.0669 H   0  0  0  0  0  0  0  0  0  0  0  0
   -2.1482   -1.9459    1.2004 H   0  0  0  0  0  0  0  0  0  0  0  0
   -4.3444    2.2350    1.3120 H   0  0  0  0  0  0  0  0  0  0  0  0
   -5.8745   -0.8895   -1.0419 H   0  0  0  0  0  0  0  0  0  0  0  0
   -1.4563   -1.6253   -2.3329 H   0  0  0  0  0  0  0  0  0  0  0  0
    0.9053   -1.7799   -2.8949 H   0  0  0  0  0  0  0  0  0  0  0  0
    3.8178    1.7926   -1.6482 H   0  0  0  0  0  0  0  0  0  0  0  0
    5.4658    2.7879   -0.1041 H   0  0  0  0  0  0  0  0  0  0  0  0
    6.3457    1.3893    1.7695 H   0  0  0  0  0  0  0  0  0  0  0  0
    5.5727   -0.9642    2.0706 H   0  0  0  0  0  0  0  0  0  0  0  0
    3.9572   -1.8353    0.5000 H   0  0  0  0  0  0  0  0  0  0  0  0
    1.8272    0.5356    0.4950 H   0  0  0  0  0  0  0  0  0  0  0  0
   -0.4774    0.7411    1.1268 H   0  0  0  0  0  0  0  0  0  0  0  0
  1  2  1  0
  2  3  1  0
  3  4  2  0
  3  5  1  0
  5  6  1  0
  6  7  2  0
  6  8  1  0
  8  9  1  0
  9 10  2  0
  2 11  1  0
 11 12  2  0
 12 13  1  0
 13 14  2  0
 14 15  1  0
 15 16  1  0
 16 17  2  0
 17 18  1  0
 18 19  2  0
 19 20  1  0
 20 21  2  0
 14 22  1  0
 22 23  2  0
  9  2  1  0
 23 11  1  0
 21 16  1  0
  1 24  1  0
  1 25  1  0
  1 26  1  0
  5 27  1  0
  8 28  1  0
 12 29  1  0
 13 30  1  0
 17 31  1  0
 18 32  1  0
 19 33  1  0
 20 34  1  0
 21 35  1  0
 22 36  1  0
 23 37  1  0
M  END
$$$$
