@<TRIPOS>MOLECULE
*****
 37 39 0 0 0
SMALL
GASTEIGER

@<TRIPOS>ATOM
      1 C          -2.8976   -1.1290    1.0786 C.3     1  UNL1       -0.0386
      2 C          -2.6299   -0.3294   -0.2020 C.3     1  UNL1        0.1454
      3 C          -2.8275    1.1201    0.1660 C.2     1  UNL1        0.2396
      4 O          -2.0666    2.1487    0.1594 O.2     1  UNL1       -0.2739
      5 N          -4.1545    1.4417    0.6289 N.am    1  UNL1       -0.2387
      6 C          -5.3098    0.7288    0.2120 C.2     1  UNL1        0.3122
      7 O          -6.4626    0.9973    0.6051 O.2     1  UNL1       -0.2520
      8 N          -5.0234   -0.3407   -0.7136 N.am    1  UNL1       -0.2387
      9 C          -3.6848   -0.6473   -1.1652 C.2     1  UNL1        0.2396
     10 O          -3.7327   -1.1431   -2.3439 O.2     1  UNL1       -0.2739
     11 C          -1.2526   -0.4830   -0.6270 C.ar    1  UNL1       -0.0237
     12 C          -0.7349   -1.1523   -1.7150 C.ar    1  UNL1       -0.0536
     13 C           0.6041   -1.2307   -2.0191 C.ar    1  UNL1       -0.0190
     14 C           1.5004   -0.6002   -1.1851 C.ar    1  UNL1        0.1285
     15 O           2.8426   -0.7025   -1.5260 O.3     1  UNL1       -0.4560
     16 C           3.7624   -0.0766   -0.7024 C.ar    1  UNL1        0.1284
     17 C           4.2255    1.2150   -0.8184 C.ar    1  UNL1       -0.0193
     18 C           5.1401    1.7641    0.0404 C.ar    1  UNL1       -0.0583
     19 C           5.6129    0.9760    1.0668 C.ar    1  UNL1       -0.0615
     20 C           5.2181   -0.3304    1.2775 C.ar    1  UNL1       -0.0583
     21 C           4.2979   -0.8005    0.3687 C.ar    1  UNL1       -0.0193
     22 C           1.0315    0.0836   -0.0818 C.ar    1  UNL1       -0.0190
     23 C          -0.3292    0.1547    0.2142 C.ar    1  UNL1       -0.0536
     24 H          -2.8292   -0.4931    1.9784 H       1  UNL1        0.0247
     25 H          -3.8912   -1.6125    1.0669 H       1  UNL1        0.0247
     26 H          -2.1482   -1.9459    1.2004 H       1  UNL1        0.0247
     27 H          -4.3444    2.2350    1.3120 H       1  UNL1        0.1591
     28 H          -5.8745   -0.8895   -1.0419 H       1  UNL1        0.1591
     29 H          -1.4563   -1.6253   -2.3329 H       1  UNL1        0.0622
     30 H           0.9053   -1.7799   -2.8949 H       1  UNL1        0.0654
     31 H           3.8178    1.7926   -1.6482 H       1  UNL1        0.0654
     32 H           5.4658    2.7879   -0.1041 H       1  UNL1        0.0619
     33 H           6.3457    1.3893    1.7695 H       1  UNL1        0.0618
     34 H           5.5727   -0.9642    2.0706 H       1  UNL1        0.0619
     35 H           3.9572   -1.8353    0.5000 H       1  UNL1        0.0654
     36 H           1.8272    0.5356    0.4950 H       1  UNL1        0.0654
     37 H          -0.4774    0.7411    1.1268 H       1  UNL1        0.0622
@<TRIPOS>BOND
     1     1     2    1
     2     2     3    1
     3     3     4    2
     4     3     5   am
     5     5     6   am
     6     6     7    2
     7     6     8   am
     8     8     9   am
     9     9    10    2
    10     2    11    1
    11    11    12   ar
    12    12    13   ar
    13    13    14   ar
    14    14    15    1
    15    15    16    1
    16    16    17   ar
    17    17    18   ar
    18    18    19   ar
    19    19    20   ar
    20    20    21   ar
    21    14    22   ar
    22    22    23   ar
    23     9     2    1
    24    23    11   ar
    25    21    16   ar
    26     1    24    1
    27     1    25    1
    28     1    26    1
    29     5    27    1
    30     8    28    1
    31    12    29    1
    32    13    30    1
    33    17    31    1
    34    18    32    1
    35    19    33    1
    36    20    34    1
    37    21    35    1
    38    22    36    1
    39    23    37    1
