
     RDKit          3D

 38 41  0  0  0  0  0  0  0  0999 V2000
   -3.8868   -2.1459   -2.9117 O   0  0  0  0  0  0  0  0  0  0  0  0
   -3.0588   -2.2416   -1.9814 C   0  0  0  0  0  0  0  0  0  0  0  0
   -2.4391   -1.1627   -1.4404 N   0  0  0  0  0  0  0  0  0  0  0  0
   -1.5488   -1.2514   -0.4420 C   0  0  0  0  0  0  0  0  0  0  0  0
   -0.8778   -0.0745    0.1426 C   0  0  0  0  0  0  0  0  0  0  0  0
   -1.1023    1.2124   -0.2796 C   0  0  0  0  0  0  0  0  0  0  0  0
   -0.4349    2.2919    0.3141 C   0  0  0  0  0  0  0  0  0  0  0  0
    0.4604    2.0758    1.3350 C   0  0  0  0  0  0  0  0  0  0  0  0
    1.0966    3.1674    1.8926 O   0  0  0  0  0  0  0  0  0  0  0  0
    2.3056    3.6621    1.4226 C   0  0  0  0  0  0  0  0  0  0  0  0
    2.9878    3.1148    0.3573 C   0  0  0  0  0  0  0  0  0  0  0  0
    4.1921    3.6670   -0.0533 C   0  0  0  0  0  0  0  0  0  0  0  0
    4.7546    4.7637    0.5670 C   0  0  0  0  0  0  0  0  0  0  0  0
    6.2787    5.4171    0.0035 Cl  0  0  0  0  0  0  0  0  0  0  0  0
    4.0673    5.3052    1.6308 C   0  0  0  0  0  0  0  0  0  0  0  0
    2.8535    4.7563    2.0520 C   0  0  0  0  0  0  0  0  0  0  0  0
    2.0149    5.4727    3.4038 Cl  0  0  0  0  0  0  0  0  0  0  0  0
    0.6925    0.7895    1.7655 C   0  0  0  0  0  0  0  0  0  0  0  0
    0.0297   -0.2770    1.1752 C   0  0  0  0  0  0  0  0  0  0  0  0
   -1.2722   -2.4866    0.0310 N   0  0  0  0  0  0  0  0  0  0  0  0
   -1.8644   -3.5820   -0.4774 C   0  0  0  0  0  0  0  0  0  0  0  0
   -1.5719   -4.8521    0.0181 C   0  0  0  0  0  0  0  0  0  0  0  0
   -2.1827   -5.9682   -0.5081 C   0  0  0  0  0  0  0  0  0  0  0  0
   -3.0971   -5.8556   -1.5364 C   0  0  0  0  0  0  0  0  0  0  0  0
   -3.4082   -4.6131   -2.0487 C   0  0  0  0  0  0  0  0  0  0  0  0
   -2.7832   -3.5066   -1.5054 C   0  0  0  0  0  0  0  0  0  0  0  0
   -2.6782   -0.2153   -1.8331 H   0  0  0  0  0  0  0  0  0  0  0  0
   -1.7989    1.4111   -1.0780 H   0  0  0  0  0  0  0  0  0  0  0  0
   -0.6245    3.3074   -0.0328 H   0  0  0  0  0  0  0  0  0  0  0  0
    2.5674    2.2577   -0.1426 H   0  0  0  0  0  0  0  0  0  0  0  0
    4.7391    3.2466   -0.8897 H   0  0  0  0  0  0  0  0  0  0  0  0
    4.4766    6.1660    2.1430 H   0  0  0  0  0  0  0  0  0  0  0  0
    1.3933    0.5914    2.5686 H   0  0  0  0  0  0  0  0  0  0  0  0
    0.2021   -1.3050    1.5048 H   0  0  0  0  0  0  0  0  0  0  0  0
   -0.8510   -4.9157    0.8253 H   0  0  0  0  0  0  0  0  0  0  0  0
   -1.9344   -6.9552   -0.0999 H   0  0  0  0  0  0  0  0  0  0  0  0
   -3.5623   -6.7605   -1.9297 H   0  0  0  0  0  0  0  0  0  0  0  0
   -4.1342   -4.5070   -2.8673 H   0  0  0  0  0  0  0  0  0  0  0  0
  1  2  2  0
  2  3  1  0
  3  4  1  0
  4  5  1  0
  5  6  2  0
  6  7  1  0
  7  8  2  0
  8  9  1  0
  9 10  1  0
 10 11  2  0
 11 12  1  0
 12 13  2  0
 13 14  1  0
 13 15  1  0
 15 16  2  0
 16 17  1  0
  8 18  1  0
 18 19  2  0
  4 20  2  0
 20 21  1  0
 21 22  2  0
 22 23  1  0
 23 24  2  0
 24 25  1  0
 25 26  2  0
 26  2  1  0
 19  5  1  0
 26 21  1  0
 16 10  1  0
  3 27  1  0
  6 28  1  0
  7 29  1  0
 11 30  1  0
 12 31  1  0
 15 32  1  0
 18 33  1  0
 19 34  1  0
 22 35  1  0
 23 36  1  0
 24 37  1  0
 25 38  1  0
M  END
$$$$
