@<TRIPOS>MOLECULE
*****
 38 41 0 0 0
SMALL
GASTEIGER

@<TRIPOS>ATOM
      1 O          -3.8868   -2.1459   -2.9117 O.2     1  UNL1       -0.2671
      2 C          -3.0588   -2.2416   -1.9814 C.ar    1  UNL1        0.2595
      3 N          -2.4391   -1.1627   -1.4404 N.ar    1  UNL1       -0.3064
      4 C          -1.5488   -1.2514   -0.4420 C.ar    1  UNL1        0.1414
      5 C          -0.8778   -0.0745    0.1426 C.ar    1  UNL1        0.0176
      6 C          -1.1023    1.2124   -0.2796 C.ar    1  UNL1       -0.0476
      7 C          -0.4349    2.2919    0.3141 C.ar    1  UNL1       -0.0187
      8 C           0.4604    2.0758    1.3350 C.ar    1  UNL1        0.1285
      9 O           1.0966    3.1674    1.8926 O.3     1  UNL1       -0.4546
     10 C           2.3056    3.6621    1.4226 C.ar    1  UNL1        0.1467
     11 C           2.9878    3.1148    0.3573 C.ar    1  UNL1       -0.0165
     12 C           4.1921    3.6670   -0.0533 C.ar    1  UNL1       -0.0398
     13 C           4.7546    4.7637    0.5670 C.ar    1  UNL1        0.0426
     14 CL          6.2787    5.4171    0.0035 Cl      1  UNL1       -0.0835
     15 C           4.0673    5.3052    1.6308 C.ar    1  UNL1       -0.0215
     16 C           2.8535    4.7563    2.0520 C.ar    1  UNL1        0.0845
     17 CL          2.0149    5.4727    3.4038 Cl      1  UNL1       -0.0797
     18 C           0.6925    0.7895    1.7655 C.ar    1  UNL1       -0.0187
     19 C           0.0297   -0.2770    1.1752 C.ar    1  UNL1       -0.0476
     20 N          -1.2722   -2.4866    0.0310 N.ar    1  UNL1       -0.2290
     21 C          -1.8644   -3.5820   -0.4774 C.ar    1  UNL1        0.0785
     22 C          -1.5719   -4.8521    0.0181 C.ar    1  UNL1       -0.0355
     23 C          -2.1827   -5.9682   -0.5081 C.ar    1  UNL1       -0.0597
     24 C          -3.0971   -5.8556   -1.5364 C.ar    1  UNL1       -0.0609
     25 C          -3.4082   -4.6131   -2.0487 C.ar    1  UNL1       -0.0474
     26 C          -2.7832   -3.5066   -1.5054 C.ar    1  UNL1        0.0647
     27 H          -2.6782   -0.2153   -1.8331 H       1  UNL1        0.1704
     28 H          -1.7989    1.4111   -1.0780 H       1  UNL1        0.0626
     29 H          -0.6245    3.3074   -0.0328 H       1  UNL1        0.0654
     30 H           2.5674    2.2577   -0.1426 H       1  UNL1        0.0655
     31 H           4.7391    3.2466   -0.8897 H       1  UNL1        0.0633
     32 H           4.4766    6.1660    2.1430 H       1  UNL1        0.0648
     33 H           1.3933    0.5914    2.5686 H       1  UNL1        0.0654
     34 H           0.2021   -1.3050    1.5048 H       1  UNL1        0.0626
     35 H          -0.8510   -4.9157    0.8253 H       1  UNL1        0.0639
     36 H          -1.9344   -6.9552   -0.0999 H       1  UNL1        0.0618
     37 H          -3.5623   -6.7605   -1.9297 H       1  UNL1        0.0618
     38 H          -4.1342   -4.5070   -2.8673 H       1  UNL1        0.0626
@<TRIPOS>BOND
     1     1     2    2
     2     2     3   ar
     3     3     4   ar
     4     4     5    1
     5     5     6   ar
     6     6     7   ar
     7     7     8   ar
     8     8     9    1
     9     9    10    1
    10    10    11   ar
    11    11    12   ar
    12    12    13   ar
    13    13    14    1
    14    13    15   ar
    15    15    16   ar
    16    16    17    1
    17     8    18   ar
    18    18    19   ar
    19     4    20   ar
    20    20    21   ar
    21    21    22   ar
    22    22    23   ar
    23    23    24   ar
    24    24    25   ar
    25    25    26   ar
    26    26     2   ar
    27    19     5   ar
    28    26    21   ar
    29    16    10   ar
    30     3    27    1
    31     6    28    1
    32     7    29    1
    33    11    30    1
    34    12    31    1
    35    15    32    1
    36    18    33    1
    37    19    34    1
    38    22    35    1
    39    23    36    1
    40    24    37    1
    41    25    38    1
