@<TRIPOS>MOLECULE
*****
 57 60 0 0 0
SMALL
GASTEIGER

@<TRIPOS>ATOM
      1 C           0.6932   -0.3663    0.7011 C.3     1  UNL1       -0.0263
      2 C           1.6933   -0.2142    1.7611 C.3     1  UNL1       -0.0436
      3 C           2.8665   -0.8862    1.0231 C.3     1  UNL1       -0.0071
      4 C           2.5894   -2.3758    0.9772 C.3     1  UNL1       -0.0594
      5 C           2.7455   -0.2910   -0.3898 C.3     1  UNL1        0.1340
      6 O           2.9177   -1.2872   -1.3526 O.3     1  UNL1       -0.3802
      7 C           3.8281    0.7041   -0.4905 C.2     1  UNL1        0.1904
      8 O           4.5062    0.2716   -1.4287 O.2     1  UNL1       -0.2919
      9 C           4.9158    1.6907   -0.6027 C.3     1  UNL1        0.1052
     10 O           5.7816    1.3341   -1.6389 O.3     1  UNL1       -0.3874
     11 C           1.3623    0.2577   -0.5050 C.3     1  UNL1        0.0096
     12 C           1.3901    1.7626   -0.4569 C.3     1  UNL1       -0.0562
     13 C           0.5951   -0.2323   -1.6945 C.3     1  UNL1       -0.0151
     14 C          -0.8568   -0.4273   -1.5437 C.3     1  UNL1        0.0910
     15 O          -1.4853    0.5916   -2.2995 O.3     1  UNL1       -0.3886
     16 C          -1.4687   -0.3815   -0.1961 C.3     1  UNL1        0.1526
     17 F          -1.5219   -1.7110    0.2599 F       1  UNL1       -0.2377
     18 C          -0.6162    0.3091    0.8535 C.3     1  UNL1        0.0003
     19 C          -1.2165    0.2440    2.2084 C.3     1  UNL1       -0.0432
     20 C          -2.6497    0.7212    2.0989 C.3     1  UNL1       -0.0301
     21 C          -3.4425   -0.1181    1.1820 C.2     1  UNL1       -0.0532
     22 C          -4.4486   -0.8642    1.6108 C.2     1  UNL1       -0.0148
     23 C          -5.1089   -1.6241    0.5559 C.2     1  UNL1        0.1787
     24 O          -6.0751   -2.3627    0.8575 O.2     1  UNL1       -0.2879
     25 C          -4.6935   -1.5619   -0.8364 C.2     1  UNL1       -0.0180
     26 C          -3.6727   -0.7718   -1.1146 C.2     1  UNL1       -0.0674
     27 C          -2.8950    0.0668   -0.1676 C.3     1  UNL1        0.0443
     28 C          -3.0731    1.5239   -0.5325 C.3     1  UNL1       -0.0493
     29 H           0.6008   -1.4478    0.4644 H       1  UNL1        0.0311
     30 H           2.0148    0.8157    1.9811 H       1  UNL1        0.0272
     31 H           1.4394   -0.7770    2.6808 H       1  UNL1        0.0272
     32 H           3.8304   -0.6974    1.4828 H       1  UNL1        0.0330
     33 H           2.2819   -2.7067   -0.0482 H       1  UNL1        0.0233
     34 H           1.8080   -2.6848    1.7223 H       1  UNL1        0.0233
     35 H           3.5042   -2.9659    1.2633 H       1  UNL1        0.0233
     36 H           3.1873   -0.8913   -2.2109 H       1  UNL1        0.2108
     37 H           4.5595    2.7126   -0.8117 H       1  UNL1        0.0637
     38 H           5.5510    1.6595    0.3254 H       1  UNL1        0.0637
     39 H           6.1057    2.1328   -2.1386 H       1  UNL1        0.2100
     40 H           2.2335    2.1979   -1.0073 H       1  UNL1        0.0236
     41 H           1.3651    2.2025    0.5423 H       1  UNL1        0.0236
     42 H           0.4753    2.1314   -1.0089 H       1  UNL1        0.0236
     43 H           1.0883   -1.1938   -1.9880 H       1  UNL1        0.0297
     44 H           0.8844    0.4605   -2.5397 H       1  UNL1        0.0297
     45 H          -1.1511   -1.3697   -2.0942 H       1  UNL1        0.0626
     46 H          -1.4046    0.4542   -3.2652 H       1  UNL1        0.2099
     47 H          -0.5890    1.3854    0.5575 H       1  UNL1        0.0336
     48 H          -0.6623    0.9418    2.8588 H       1  UNL1        0.0272
     49 H          -1.2303   -0.7887    2.6192 H       1  UNL1        0.0272
     50 H          -2.6405    1.7685    1.7472 H       1  UNL1        0.0310
     51 H          -3.1096    0.7140    3.1104 H       1  UNL1        0.0310
     52 H          -4.7211   -0.8790    2.6531 H       1  UNL1        0.0656
     53 H          -5.1942   -2.1332   -1.6055 H       1  UNL1        0.0653
     54 H          -3.3898   -0.7541   -2.1777 H       1  UNL1        0.0583
     55 H          -3.4979    1.5812   -1.5771 H       1  UNL1        0.0242
     56 H          -3.8352    2.0115    0.1146 H       1  UNL1        0.0242
     57 H          -2.1645    2.1183   -0.4896 H       1  UNL1        0.0242
@<TRIPOS>BOND
     1     1     2    1
     2     2     3    1
     3     3     4    1
     4     3     5    1
     5     5     6    1
     6     5     7    1
     7     7     8    2
     8     7     9    1
     9     9    10    1
    10     5    11    1
    11    11    12    1
    12    11    13    1
    13    13    14    1
    14    14    15    1
    15    14    16    1
    16    16    17    1
    17    16    18    1
    18    18    19    1
    19    19    20    1
    20    20    21    1
    21    21    22    2
    22    22    23    1
    23    23    24    2
    24    23    25    1
    25    25    26    2
    26    26    27    1
    27    27    28    1
    28    11     1    1
    29    27    16    1
    30    18     1    1
    31    27    21    1
    32     1    29    1
    33     2    30    1
    34     2    31    1
    35     3    32    1
    36     4    33    1
    37     4    34    1
    38     4    35    1
    39     6    36    1
    40     9    37    1
    41     9    38    1
    42    10    39    1
    43    12    40    1
    44    12    41    1
    45    12    42    1
    46    13    43    1
    47    13    44    1
    48    14    45    1
    49    15    46    1
    50    18    47    1
    51    19    48    1
    52    19    49    1
    53    20    50    1
    54    20    51    1
    55    22    52    1
    56    25    53    1
    57    26    54    1
    58    28    55    1
    59    28    56    1
    60    28    57    1
