
     RDKit          3D

 63 68  0  0  0  0  0  0  0  0999 V2000
   -2.1603    0.9828   -1.2015 C   0  0  1  0  0  0  0  0  0  0  0  0
   -3.3772    0.1223   -1.0432 C   0  0  0  0  0  0  0  0  0  0  0  0
   -3.1481   -1.0485   -0.1658 C   0  0  0  0  0  0  0  0  0  0  0  0
   -2.1479   -1.1226    0.7567 C   0  0  0  0  0  0  0  0  0  0  0  0
   -1.7895   -2.1181    1.6096 C   0  0  0  0  0  0  0  0  0  0  0  0
   -0.6876   -1.6296    2.3096 O   0  0  0  0  0  0  0  0  0  0  0  0
   -0.1556   -0.4804    1.6870 C   0  0  0  0  0  0  0  0  0  0  0  0
   -1.3048    0.0975    0.8730 C   0  0  2  0  0  0  0  0  0  0  0  0
   -2.0535    1.1346    1.6120 C   0  0  0  0  0  0  0  0  0  0  0  0
   -2.7361    2.1361    0.7744 C   0  0  0  0  0  0  0  0  0  0  0  0
   -2.3167    2.2827   -0.5747 N   0  0  0  0  0  0  0  0  0  0  0  0
   -3.1825    3.1538   -1.2973 C   0  0  0  0  0  0  0  0  0  0  0  0
   -0.9377    0.3972   -0.5488 C   0  0  2  0  0  0  0  0  0  0  0  0
    0.2595    1.2470   -0.6191 C   0  0  0  0  0  0  0  0  0  0  0  0
    1.3720    0.5931    0.1877 C   0  0  0  0  0  0  0  0  0  0  0  0
    2.6582    0.7266   -0.5261 C   0  0  0  0  0  0  0  0  0  0  0  0
    2.8776    2.2519   -0.6683 C   0  0  0  0  0  0  0  0  0  0  0  0
    2.5894    0.3036   -1.8643 O   0  0  0  0  0  0  0  0  0  0  0  0
    3.8616    0.2003    0.1560 C   0  0  0  0  0  0  0  0  0  0  0  0
    5.1446    0.4084   -0.6437 C   0  0  0  0  0  0  0  0  0  0  0  0
    5.0901   -0.2830   -1.9788 C   0  0  0  0  0  0  0  0  0  0  0  0
    0.9667   -0.7473    0.7091 C   0  0  0  0  0  0  0  0  0  0  0  0
    1.9685   -1.4064    1.3364 O   0  0  0  0  0  0  0  0  0  0  0  0
    1.7451   -2.6192    1.8960 C   0  0  0  0  0  0  0  0  0  0  0  0
    0.3184   -1.5814   -0.3783 C   0  0  0  0  0  0  0  0  0  0  0  0
   -0.5768   -0.9367   -1.1614 C   0  0  0  0  0  0  0  0  0  0  0  0
   -2.5972   -3.2412    1.5071 C   0  0  0  0  0  0  0  0  0  0  0  0
   -2.2573   -4.2930    2.3760 O   0  0  0  0  0  0  0  0  0  0  0  0
   -3.6513   -3.2960    0.6091 C   0  0  0  0  0  0  0  0  0  0  0  0
   -3.9276   -2.2039   -0.2262 C   0  0  0  0  0  0  0  0  0  0  0  0
   -1.9881    1.1536   -2.2782 H   0  0  0  0  0  0  0  0  0  0  0  0
   -3.6653   -0.3149   -2.0401 H   0  0  0  0  0  0  0  0  0  0  0  0
   -4.2173    0.7541   -0.7025 H   0  0  0  0  0  0  0  0  0  0  0  0
    0.1277    0.2479    2.4730 H   0  0  0  0  0  0  0  0  0  0  0  0
   -1.4528    1.6161    2.4281 H   0  0  0  0  0  0  0  0  0  0  0  0
   -2.8723    0.6090    2.2033 H   0  0  0  0  0  0  0  0  0  0  0  0
   -3.8481    2.0566    0.7826 H   0  0  0  0  0  0  0  0  0  0  0  0
   -2.5611    3.1469    1.2696 H   0  0  0  0  0  0  0  0  0  0  0  0
   -2.5413    4.0086   -1.6618 H   0  0  0  0  0  0  0  0  0  0  0  0
   -3.4915    2.6264   -2.2262 H   0  0  0  0  0  0  0  0  0  0  0  0
   -4.0513    3.5271   -0.7525 H   0  0  0  0  0  0  0  0  0  0  0  0
    0.6320    1.2738   -1.6853 H   0  0  0  0  0  0  0  0  0  0  0  0
    0.0095    2.2677   -0.2709 H   0  0  0  0  0  0  0  0  0  0  0  0
    1.4562    1.2513    1.1090 H   0  0  0  0  0  0  0  0  0  0  0  0
    2.8322    2.6648    0.3492 H   0  0  0  0  0  0  0  0  0  0  0  0
    3.7642    2.4887   -1.2548 H   0  0  0  0  0  0  0  0  0  0  0  0
    2.0027    2.7097   -1.2073 H   0  0  0  0  0  0  0  0  0  0  0  0
    2.1492   -0.5459   -2.0013 H   0  0  0  0  0  0  0  0  0  0  0  0
    3.8264   -0.9322    0.2297 H   0  0  0  0  0  0  0  0  0  0  0  0
    3.9891    0.6417    1.1539 H   0  0  0  0  0  0  0  0  0  0  0  0
    5.4352    1.4542   -0.7034 H   0  0  0  0  0  0  0  0  0  0  0  0
    5.9318   -0.1015   -0.0474 H   0  0  0  0  0  0  0  0  0  0  0  0
    4.7172    0.3805   -2.7933 H   0  0  0  0  0  0  0  0  0  0  0  0
    4.4469   -1.1806   -1.9583 H   0  0  0  0  0  0  0  0  0  0  0  0
    6.1025   -0.6174   -2.3184 H   0  0  0  0  0  0  0  0  0  0  0  0
    1.3722   -3.3491    1.1186 H   0  0  0  0  0  0  0  0  0  0  0  0
    1.2334   -2.6721    2.8526 H   0  0  0  0  0  0  0  0  0  0  0  0
    2.7933   -3.0479    2.0983 H   0  0  0  0  0  0  0  0  0  0  0  0
    0.5066   -2.6431   -0.5844 H   0  0  0  0  0  0  0  0  0  0  0  0
   -0.9354   -1.3798   -2.0814 H   0  0  0  0  0  0  0  0  0  0  0  0
   -2.5381   -4.2164    3.3498 H   0  0  0  0  0  0  0  0  0  0  0  0
   -4.2547   -4.2106    0.5739 H   0  0  0  0  0  0  0  0  0  0  0  0
   -4.7545   -2.2556   -0.9266 H   0  0  0  0  0  0  0  0  0  0  0  0
  1  2  1  0
  2  3  1  0
  3  4  1  0
  4  5  2  0
  5  6  1  0
  6  7  1  0
  7  8  1  0
  8  9  1  1
  9 10  1  0
 10 11  1  0
 11 12  1  0
  8 13  1  0
 13 14  1  1
 14 15  1  0
 15 16  1  0
 16 17  1  0
 16 18  1  0
 16 19  1  0
 19 20  1  0
 20 21  1  0
 15 22  1  0
 22 23  1  0
 23 24  1  0
 22 25  1  0
 25 26  2  0
  5 27  1  0
 27 28  1  0
 27 29  2  0
 29 30  1  0
 11  1  1  0
 26 13  1  0
 13  1  1  0
 30  3  2  0
  8  4  1  0
 22  7  1  0
  1 31  1  6
  2 32  1  0
  2 33  1  0
  7 34  1  0
  9 35  1  0
  9 36  1  0
 10 37  1  0
 10 38  1  0
 12 39  1  0
 12 40  1  0
 12 41  1  0
 14 42  1  0
 14 43  1  0
 15 44  1  0
 17 45  1  0
 17 46  1  0
 17 47  1  0
 18 48  1  0
 19 49  1  0
 19 50  1  0
 20 51  1  0
 20 52  1  0
 21 53  1  0
 21 54  1  0
 21 55  1  0
 24 56  1  0
 24 57  1  0
 24 58  1  0
 25 59  1  0
 26 60  1  0
 28 61  1  0
 29 62  1  0
 30 63  1  0
M  END
$$$$
