@<TRIPOS>MOLECULE
*****
 48 51 0 0 0
SMALL
GASTEIGER

@<TRIPOS>ATOM
      1 C           7.0004    0.8691    1.0865 C.3     1  UNL1       -0.0560
      2 C           6.3055    0.1921   -0.0621 C.3     1  UNL1       -0.0127
      3 C           6.8827   -1.2102   -0.2122 C.3     1  UNL1       -0.0560
      4 C           6.5493    0.9900   -1.3493 C.3     1  UNL1       -0.0560
      5 C           4.8465    0.1215    0.1184 C.ar    1  UNL1       -0.0419
      6 C           4.0910   -0.4740   -0.8607 C.ar    1  UNL1       -0.0574
      7 C           2.7014   -0.5574   -0.7198 C.ar    1  UNL1       -0.0493
      8 C           2.0436   -0.0575    0.3820 C.ar    1  UNL1        0.0371
      9 C           0.6092   -0.1180    0.5766 C.2     1  UNL1        0.2493
     10 O           0.1155    0.3767    1.6329 O.2     1  UNL1       -0.2698
     11 N          -0.2849   -0.7070   -0.3601 N.am    1  UNL1       -0.2651
     12 C          -1.7000   -0.7450   -0.1264 C.ar    1  UNL1        0.1441
     13 C          -2.6120    0.2167   -0.5064 C.ar    1  UNL1        0.0514
     14 N          -3.8478   -0.1614   -0.1167 N.ar    1  UNL1       -0.3027
     15 C          -5.0797    0.3780   -0.2213 C.ar    1  UNL1        0.0351
     16 C          -6.2200   -0.2125    0.2682 C.ar    1  UNL1        0.0640
     17 N          -7.5121    0.4028    0.1318 N.ar    1  UNL1       -0.3044
     18 C          -7.9270    1.1505   -0.9227 C.ar    1  UNL1        0.0293
     19 C          -9.2108    1.5547   -0.6776 C.ar    1  UNL1        0.0458
     20 N          -9.5637    1.0540    0.5137 N.ar    1  UNL1       -0.2437
     21 C          -8.5292    0.3525    1.0065 C.ar    1  UNL1        0.1004
     22 C          -6.0917   -1.4295    0.9036 C.ar    1  UNL1       -0.0329
     23 C          -4.8458   -2.0003    1.0229 C.ar    1  UNL1       -0.0168
     24 C          -3.7224   -1.3469    0.5022 C.ar    1  UNL1        0.1398
     25 N          -2.4181   -1.6970    0.4940 N.ar    1  UNL1       -0.2129
     26 C           2.8333    0.5319    1.3421 C.ar    1  UNL1       -0.0493
     27 C           4.2084    0.6260    1.2248 C.ar    1  UNL1       -0.0574
     28 H           6.6884    0.3797    2.0302 H       1  UNL1        0.0238
     29 H           8.0989    0.6667    0.9943 H       1  UNL1        0.0238
     30 H           6.8789    1.9541    1.0912 H       1  UNL1        0.0238
     31 H           7.0617   -1.3756   -1.3102 H       1  UNL1        0.0238
     32 H           7.8166   -1.3090    0.3702 H       1  UNL1        0.0238
     33 H           6.1210   -1.9200    0.1500 H       1  UNL1        0.0238
     34 H           7.5406    1.4682   -1.3502 H       1  UNL1        0.0238
     35 H           6.3827    0.2894   -2.1773 H       1  UNL1        0.0238
     36 H           5.7709    1.7856   -1.4288 H       1  UNL1        0.0238
     37 H           4.5033   -0.8980   -1.7637 H       1  UNL1        0.0621
     38 H           2.1028   -1.0312   -1.4995 H       1  UNL1        0.0625
     39 H           0.1218   -1.1134   -1.2282 H       1  UNL1        0.1566
     40 H          -2.4225    1.1559   -1.0402 H       1  UNL1        0.0848
     41 H          -5.1707    1.3335   -0.7217 H       1  UNL1        0.0834
     42 H          -7.2912    1.3571   -1.7911 H       1  UNL1        0.0829
     43 H          -9.8017    2.1743   -1.3613 H       1  UNL1        0.0845
     44 H          -8.4797   -0.1782    1.9434 H       1  UNL1        0.1032
     45 H          -6.9727   -1.9277    1.3044 H       1  UNL1        0.0640
     46 H          -4.6794   -2.9511    1.5094 H       1  UNL1        0.0655
     47 H           2.3276    0.9321    2.2196 H       1  UNL1        0.0625
     48 H           4.7816    1.1074    2.0245 H       1  UNL1        0.0621
@<TRIPOS>BOND
     1     1     2    1
     2     2     3    1
     3     2     4    1
     4     2     5    1
     5     5     6   ar
     6     6     7   ar
     7     7     8   ar
     8     8     9    1
     9     9    10    2
    10     9    11   am
    11    11    12    1
    12    12    13   ar
    13    13    14   ar
    14    14    15   ar
    15    15    16   ar
    16    16    17    1
    17    17    18   ar
    18    18    19   ar
    19    19    20   ar
    20    20    21   ar
    21    16    22   ar
    22    22    23   ar
    23    23    24   ar
    24    24    25   ar
    25     8    26   ar
    26    26    27   ar
    27    27     5   ar
    28    25    12   ar
    29    24    14   ar
    30    21    17   ar
    31     1    28    1
    32     1    29    1
    33     1    30    1
    34     3    31    1
    35     3    32    1
    36     3    33    1
    37     4    34    1
    38     4    35    1
    39     4    36    1
    40     6    37    1
    41     7    38    1
    42    11    39    1
    43    13    40    1
    44    15    41    1
    45    18    42    1
    46    19    43    1
    47    21    44    1
    48    22    45    1
    49    23    46    1
    50    26    47    1
    51    27    48    1
