
     RDKit          3D

 48 51  0  0  0  0  0  0  0  0999 V2000
    7.0004    0.8691    1.0865 C   0  0  0  0  0  0  0  0  0  0  0  0
    6.3055    0.1921   -0.0621 C   0  0  0  0  0  0  0  0  0  0  0  0
    6.8827   -1.2102   -0.2122 C   0  0  0  0  0  0  0  0  0  0  0  0
    6.5493    0.9900   -1.3493 C   0  0  0  0  0  0  0  0  0  0  0  0
    4.8465    0.1215    0.1184 C   0  0  0  0  0  0  0  0  0  0  0  0
    4.0910   -0.4740   -0.8607 C   0  0  0  0  0  0  0  0  0  0  0  0
    2.7014   -0.5574   -0.7198 C   0  0  0  0  0  0  0  0  0  0  0  0
    2.0436   -0.0575    0.3820 C   0  0  0  0  0  0  0  0  0  0  0  0
    0.6092   -0.1180    0.5766 C   0  0  0  0  0  0  0  0  0  0  0  0
    0.1155    0.3767    1.6329 O   0  0  0  0  0  0  0  0  0  0  0  0
   -0.2849   -0.7070   -0.3601 N   0  0  0  0  0  0  0  0  0  0  0  0
   -1.7000   -0.7450   -0.1264 C   0  0  0  0  0  0  0  0  0  0  0  0
   -2.6120    0.2167   -0.5064 C   0  0  0  0  0  0  0  0  0  0  0  0
   -3.8478   -0.1614   -0.1167 N   0  0  0  0  0  0  0  0  0  0  0  0
   -5.0797    0.3780   -0.2213 C   0  0  0  0  0  0  0  0  0  0  0  0
   -6.2200   -0.2125    0.2682 C   0  0  0  0  0  0  0  0  0  0  0  0
   -7.5121    0.4028    0.1318 N   0  0  0  0  0  0  0  0  0  0  0  0
   -7.9270    1.1505   -0.9227 C   0  0  0  0  0  0  0  0  0  0  0  0
   -9.2108    1.5547   -0.6776 C   0  0  0  0  0  0  0  0  0  0  0  0
   -9.5637    1.0540    0.5137 N   0  0  0  0  0  0  0  0  0  0  0  0
   -8.5292    0.3525    1.0065 C   0  0  0  0  0  0  0  0  0  0  0  0
   -6.0917   -1.4295    0.9036 C   0  0  0  0  0  0  0  0  0  0  0  0
   -4.8458   -2.0003    1.0229 C   0  0  0  0  0  0  0  0  0  0  0  0
   -3.7224   -1.3469    0.5022 C   0  0  0  0  0  0  0  0  0  0  0  0
   -2.4181   -1.6970    0.4940 N   0  0  0  0  0  0  0  0  0  0  0  0
    2.8333    0.5319    1.3421 C   0  0  0  0  0  0  0  0  0  0  0  0
    4.2084    0.6260    1.2248 C   0  0  0  0  0  0  0  0  0  0  0  0
    6.6884    0.3797    2.0302 H   0  0  0  0  0  0  0  0  0  0  0  0
    8.0989    0.6667    0.9943 H   0  0  0  0  0  0  0  0  0  0  0  0
    6.8789    1.9541    1.0912 H   0  0  0  0  0  0  0  0  0  0  0  0
    7.0617   -1.3756   -1.3102 H   0  0  0  0  0  0  0  0  0  0  0  0
    7.8166   -1.3090    0.3702 H   0  0  0  0  0  0  0  0  0  0  0  0
    6.1210   -1.9200    0.1500 H   0  0  0  0  0  0  0  0  0  0  0  0
    7.5406    1.4682   -1.3502 H   0  0  0  0  0  0  0  0  0  0  0  0
    6.3827    0.2894   -2.1773 H   0  0  0  0  0  0  0  0  0  0  0  0
    5.7709    1.7856   -1.4288 H   0  0  0  0  0  0  0  0  0  0  0  0
    4.5033   -0.8980   -1.7637 H   0  0  0  0  0  0  0  0  0  0  0  0
    2.1028   -1.0312   -1.4995 H   0  0  0  0  0  0  0  0  0  0  0  0
    0.1218   -1.1134   -1.2282 H   0  0  0  0  0  0  0  0  0  0  0  0
   -2.4225    1.1559   -1.0402 H   0  0  0  0  0  0  0  0  0  0  0  0
   -5.1707    1.3335   -0.7217 H   0  0  0  0  0  0  0  0  0  0  0  0
   -7.2912    1.3571   -1.7911 H   0  0  0  0  0  0  0  0  0  0  0  0
   -9.8017    2.1743   -1.3613 H   0  0  0  0  0  0  0  0  0  0  0  0
   -8.4797   -0.1782    1.9434 H   0  0  0  0  0  0  0  0  0  0  0  0
   -6.9727   -1.9277    1.3044 H   0  0  0  0  0  0  0  0  0  0  0  0
   -4.6794   -2.9511    1.5094 H   0  0  0  0  0  0  0  0  0  0  0  0
    2.3276    0.9321    2.2196 H   0  0  0  0  0  0  0  0  0  0  0  0
    4.7816    1.1074    2.0245 H   0  0  0  0  0  0  0  0  0  0  0  0
  1  2  1  0
  2  3  1  0
  2  4  1  0
  2  5  1  0
  5  6  2  0
  6  7  1  0
  7  8  2  0
  8  9  1  0
  9 10  2  0
  9 11  1  0
 11 12  1  0
 12 13  2  0
 13 14  1  0
 14 15  1  0
 15 16  2  0
 16 17  1  0
 17 18  1  0
 18 19  2  0
 19 20  1  0
 20 21  2  0
 16 22  1  0
 22 23  2  0
 23 24  1  0
 24 25  2  0
  8 26  1  0
 26 27  2  0
 27  5  1  0
 25 12  1  0
 24 14  1  0
 21 17  1  0
  1 28  1  0
  1 29  1  0
  1 30  1  0
  3 31  1  0
  3 32  1  0
  3 33  1  0
  4 34  1  0
  4 35  1  0
  4 36  1  0
  6 37  1  0
  7 38  1  0
 11 39  1  0
 13 40  1  0
 15 41  1  0
 18 42  1  0
 19 43  1  0
 21 44  1  0
 22 45  1  0
 23 46  1  0
 26 47  1  0
 27 48  1  0
M  END
$$$$
