@<TRIPOS>MOLECULE
*****
 87 91 0 0 0
SMALL
GASTEIGER

@<TRIPOS>ATOM
      1 C          -0.4902   -0.5603    1.5342 C.3     1  UNL1        0.0934
      2 C           0.9482   -0.7939    2.0212 C.3     1  UNL1        0.0141
      3 C           1.9184   -0.5485    0.8878 C.3     1  UNL1        0.1337
      4 O           1.4398   -1.2009   -0.2619 O.3     1  UNL1       -0.3805
      5 C           1.9771    0.9226    0.5107 C.3     1  UNL1        0.0124
      6 C           0.5695    1.3968    0.4711 C.ar    1  UNL1        0.0070
      7 C           0.4932    2.6659   -0.1163 C.ar    1  UNL1        0.1322
      8 O           1.5839    3.4044   -0.6086 O.3     1  UNL1       -0.5057
      9 C          -0.7186    3.3288   -0.2674 C.ar    1  UNL1        0.0782
     10 C          -1.8640    2.7037    0.1788 C.ar    1  UNL1        0.0784
     11 C          -1.7925    1.4531    0.7579 C.ar    1  UNL1        0.1345
     12 O          -2.9397    0.8420    1.1979 O.3     1  UNL1       -0.5057
     13 C          -0.5913    0.7948    0.9083 C.ar    1  UNL1        0.0302
     14 C          -3.1814    3.3270    0.0609 C.2     1  UNL1        0.2016
     15 O          -4.2657    2.8105    0.4481 O.2     1  UNL1       -0.2864
     16 C          -3.3203    4.6642   -0.5496 C.ar    1  UNL1        0.0748
     17 C          -4.5328    5.3277   -0.6998 C.ar    1  UNL1        0.1316
     18 O          -5.6396    4.6292   -0.2241 O.3     1  UNL1       -0.4944
     19 C          -6.8928    5.2867   -0.3655 C.3     1  UNL1        0.0788
     20 C          -4.5710    6.5767   -1.2815 C.ar    1  UNL1       -0.0192
     21 C          -3.4004    7.1725   -1.7173 C.ar    1  UNL1       -0.0576
     22 C          -2.1792    6.5111   -1.5694 C.ar    1  UNL1       -0.0500
     23 C          -2.1612    5.2636   -0.9857 C.ar    1  UNL1        0.0367
     24 C          -0.8479    4.6411   -0.8673 C.2     1  UNL1        0.1982
     25 O           0.1916    5.2142   -1.2750 O.2     1  UNL1       -0.2865
     26 C           3.2416   -1.0949    1.2015 C.2     1  UNL1        0.2020
     27 O           3.5468   -0.4493    2.2137 O.2     1  UNL1       -0.2907
     28 C           3.8788   -2.1603    0.3747 C.3     1  UNL1        0.1530
     29 O           5.1399   -2.5222    0.8492 O.3     1  UNL1       -0.4568
     30 C           6.1318   -1.5285    0.9054 C.2     1  UNL1        0.3075
     31 O           5.5171   -0.5403    0.4720 O.2     1  UNL1       -0.2508
     32 C           7.4534   -2.0016    1.4268 C.3     1  UNL1        0.0449
     33 C           8.4116   -0.8260    1.4243 C.3     1  UNL1       -0.0432
     34 C           8.5557   -0.3143   -0.0071 C.3     1  UNL1       -0.0554
     35 C           9.5184    0.8646    0.0036 C.3     1  UNL1       -0.0653
     36 O          -0.7326   -1.5494    0.6121 O.3     1  UNL1       -0.3432
     37 C          -1.7903   -2.3937    0.9370 C.3     1  UNL1        0.1621
     38 C          -2.8932   -2.1451   -0.0573 C.3     1  UNL1        0.0194
     39 C          -3.0110   -3.3994   -0.8952 C.3     1  UNL1        0.0563
     40 N          -3.7430   -3.2566   -2.0941 N.am    1  UNL1       -0.3024
     41 C          -3.1248   -3.4557   -3.3517 C.2     1  UNL1        0.3176
     42 O          -1.9412   -3.7633   -3.6234 O.2     1  UNL1       -0.2660
     43 C          -3.6048   -3.3829   -4.7551 C.3     1  UNL1        0.4694
     44 F          -2.5077   -3.6945   -5.5547 F       1  UNL1       -0.1620
     45 F          -3.9794   -2.1075   -5.1311 F       1  UNL1       -0.1620
     46 F          -4.6824   -4.2136   -4.9900 F       1  UNL1       -0.1620
     47 C          -3.4403   -4.4681    0.0572 C.3     1  UNL1        0.0995
     48 O          -4.5244   -4.0043    0.8003 O.3     1  UNL1       -0.3874
     49 C          -2.3003   -4.6940    1.0150 C.3     1  UNL1        0.0864
     50 C          -2.8990   -5.0530    2.3592 C.3     1  UNL1       -0.0361
     51 O          -1.4469   -3.6692    1.1829 O.3     1  UNL1       -0.3457
     52 H          -1.2149   -0.6695    2.3649 H       1  UNL1        0.0649
     53 H           1.1798   -0.1500    2.8858 H       1  UNL1        0.0326
     54 H           1.0801   -1.8456    2.3434 H       1  UNL1        0.0326
     55 H           1.3974   -2.1736   -0.1183 H       1  UNL1        0.2108
     56 H           2.5707    1.4784    1.2709 H       1  UNL1        0.0347
     57 H           2.5101    1.0201   -0.4510 H       1  UNL1        0.0347
     58 H           2.0720    4.0079    0.0458 H       1  UNL1        0.2922
     59 H          -3.7037    0.5495    0.6281 H       1  UNL1        0.2922
     60 H          -7.0241    5.6053   -1.4189 H       1  UNL1        0.0660
     61 H          -6.9447    6.2004    0.2606 H       1  UNL1        0.0660
     62 H          -7.7367    4.6358   -0.0175 H       1  UNL1        0.0660
     63 H          -5.5552    7.0467   -1.3714 H       1  UNL1        0.0654
     64 H          -3.4628    8.1603   -2.1729 H       1  UNL1        0.0619
     65 H          -1.2769    7.0034   -1.9218 H       1  UNL1        0.0625
     66 H           3.9583   -1.8188   -0.6996 H       1  UNL1        0.0779
     67 H           3.2282   -3.0600    0.3548 H       1  UNL1        0.0779
     68 H           7.8277   -2.7477    0.6966 H       1  UNL1        0.0377
     69 H           7.3702   -2.4022    2.4422 H       1  UNL1        0.0377
     70 H           8.0519   -0.0206    2.0854 H       1  UNL1        0.0270
     71 H           9.4112   -1.1503    1.7759 H       1  UNL1        0.0270
     72 H           8.9782   -1.1418   -0.6045 H       1  UNL1        0.0263
     73 H           7.6026    0.0180   -0.4201 H       1  UNL1        0.0263
     74 H          10.1785    0.7498   -0.8611 H       1  UNL1        0.0230
     75 H          10.1499    0.7942    0.9188 H       1  UNL1        0.0230
     76 H           8.9413    1.8110    0.0035 H       1  UNL1        0.0230
     77 H          -2.1714   -1.9835    1.9239 H       1  UNL1        0.0910
     78 H          -3.8726   -1.9782    0.4421 H       1  UNL1        0.0333
     79 H          -2.6377   -1.2778   -0.7066 H       1  UNL1        0.0333
     80 H          -1.9531   -3.6664   -1.1899 H       1  UNL1        0.0526
     81 H          -4.7436   -3.0102   -2.2515 H       1  UNL1        0.1493
     82 H          -3.6513   -5.4473   -0.4185 H       1  UNL1        0.0638
     83 H          -4.2686   -3.5623    1.6463 H       1  UNL1        0.2100
     84 H          -1.7230   -5.5903    0.7026 H       1  UNL1        0.0620
     85 H          -2.2386   -5.7802    2.9088 H       1  UNL1        0.0255
     86 H          -3.9168   -5.4520    2.3112 H       1  UNL1        0.0255
     87 H          -2.9194   -4.1620    3.0498 H       1  UNL1        0.0255
@<TRIPOS>BOND
     1     1     2    1
     2     2     3    1
     3     3     4    1
     4     3     5    1
     5     5     6    1
     6     6     7   ar
     7     7     8    1
     8     7     9   ar
     9     9    10   ar
    10    10    11   ar
    11    11    12    1
    12    11    13   ar
    13    10    14    1
    14    14    15    2
    15    14    16    1
    16    16    17   ar
    17    17    18    1
    18    18    19    1
    19    17    20   ar
    20    20    21   ar
    21    21    22   ar
    22    22    23   ar
    23    23    24    1
    24    24    25    2
    25     3    26    1
    26    26    27    2
    27    26    28    1
    28    28    29    1
    29    29    30    1
    30    30    31    2
    31    30    32    1
    32    32    33    1
    33    33    34    1
    34    34    35    1
    35     1    36    1
    36    36    37    1
    37    37    38    1
    38    38    39    1
    39    39    40    1
    40    40    41   am
    41    41    42    2
    42    41    43    1
    43    43    44    1
    44    43    45    1
    45    43    46    1
    46    39    47    1
    47    47    48    1
    48    47    49    1
    49    49    50    1
    50    49    51    1
    51    13     1    1
    52    23    16   ar
    53    51    37    1
    54    13     6   ar
    55    24     9    1
    56     1    52    1
    57     2    53    1
    58     2    54    1
    59     4    55    1
    60     5    56    1
    61     5    57    1
    62     8    58    1
    63    12    59    1
    64    19    60    1
    65    19    61    1
    66    19    62    1
    67    20    63    1
    68    21    64    1
    69    22    65    1
    70    28    66    1
    71    28    67    1
    72    32    68    1
    73    32    69    1
    74    33    70    1
    75    33    71    1
    76    34    72    1
    77    34    73    1
    78    35    74    1
    79    35    75    1
    80    35    76    1
    81    37    77    1
    82    38    78    1
    83    38    79    1
    84    39    80    1
    85    40    81    1
    86    47    82    1
    87    48    83    1
    88    49    84    1
    89    50    85    1
    90    50    86    1
    91    50    87    1
