@<TRIPOS>MOLECULE
*****
 62 65 0 0 0
SMALL
GASTEIGER

@<TRIPOS>ATOM
      1 C           7.5565    0.8018   -1.8338 C.3     1  UNL1        0.0365
      2 O           6.5589   -0.0458   -2.2803 O.3     1  UNL1       -0.3814
      3 C           6.4711   -1.2095   -1.5798 C.3     1  UNL1        0.0645
      4 C           6.1780   -1.0562   -0.1384 C.3     1  UNL1        0.0552
      5 C           6.0467   -2.3902    0.5809 C.3     1  UNL1       -0.0323
      6 C           5.5310   -1.8984    1.9396 C.3     1  UNL1       -0.0370
      7 C           4.7677   -0.6410    1.5797 C.3     1  UNL1        0.0209
      8 N           4.9637   -0.3888    0.1874 N.3     1  UNL1       -0.1713
      9 S           3.6043   -0.8042   -0.7190 S.O2    1  UNL1        0.0612
     10 O           3.8177   -0.7188   -2.2043 O.2     1  UNL1       -0.1528
     11 O           3.2247   -2.2578   -0.4625 O.2     1  UNL1       -0.1528
     12 C           2.2423    0.1627   -0.2145 C.ar    1  UNL1        0.1063
     13 C           1.3783   -0.3370    0.7282 C.ar    1  UNL1       -0.0335
     14 C           0.2822    0.4294    1.1469 C.ar    1  UNL1       -0.0377
     15 C           0.0298    1.6827    0.6451 C.ar    1  UNL1        0.0481
     16 C           0.8990    2.1793   -0.3001 C.ar    1  UNL1        0.0502
     17 C           1.9939    1.4182   -0.7206 C.ar    1  UNL1       -0.0226
     18 C           0.4091    3.4961   -0.6550 C.2     1  UNL1        0.2496
     19 O           0.9408    4.2694   -1.4943 O.2     1  UNL1       -0.2817
     20 C          -0.7936    3.7728    0.1172 C.2     1  UNL1        0.2915
     21 O          -1.4772    4.8165    0.0635 O.2     1  UNL1       -0.2661
     22 N          -1.0094    2.6046    0.9328 N.am    1  UNL1       -0.2598
     23 C          -2.1235    2.4677    1.8655 C.3     1  UNL1        0.0452
     24 C          -3.3025    1.8565    1.2143 C.ar    1  UNL1       -0.0295
     25 C          -4.2518    2.6400    0.5932 C.ar    1  UNL1       -0.0536
     26 C          -5.3610    2.0985   -0.0223 C.ar    1  UNL1       -0.0196
     27 C          -5.5206    0.7265   -0.0127 C.ar    1  UNL1        0.1206
     28 O          -6.6297    0.1750   -0.6278 O.3     1  UNL1       -0.4893
     29 C          -6.7944   -1.2168   -0.6184 C.3     1  UNL1        0.1178
     30 C          -8.0581   -1.6195   -1.3371 C.3     1  UNL1        0.1171
     31 O          -8.0140   -1.1951   -2.6616 O.3     1  UNL1       -0.3858
     32 C          -8.2752   -3.1147   -1.2677 C.3     1  UNL1        0.1192
     33 F          -8.3726   -3.4691    0.0782 F       1  UNL1       -0.2463
     34 C          -4.5900   -0.0746    0.5987 C.ar    1  UNL1       -0.0196
     35 C          -3.4923    0.4868    1.2058 C.ar    1  UNL1       -0.0536
     36 H           8.5190    0.2217   -1.9273 H       1  UNL1        0.0523
     37 H           7.6015    1.7237   -2.4598 H       1  UNL1        0.0523
     38 H           7.4413    1.0382   -0.7628 H       1  UNL1        0.0523
     39 H           7.4726   -1.7414   -1.6424 H       1  UNL1        0.0576
     40 H           5.7916   -1.9540   -2.0918 H       1  UNL1        0.0576
     41 H           7.0160   -0.5393    0.3655 H       1  UNL1        0.0502
     42 H           7.0719   -2.7932    0.6937 H       1  UNL1        0.0282
     43 H           5.3439   -3.0653    0.0909 H       1  UNL1        0.0282
     44 H           4.9282   -2.6560    2.4415 H       1  UNL1        0.0279
     45 H           6.3729   -1.6087    2.5792 H       1  UNL1        0.0279
     46 H           3.7099   -0.8282    1.8416 H       1  UNL1        0.0444
     47 H           5.1102    0.2320    2.1776 H       1  UNL1        0.0444
     48 H           1.4943   -1.3229    1.1791 H       1  UNL1        0.0638
     49 H          -0.3753    0.0030    1.8906 H       1  UNL1        0.0637
     50 H           2.6810    1.8200   -1.4734 H       1  UNL1        0.0645
     51 H          -1.7748    1.7182    2.6330 H       1  UNL1        0.0518
     52 H          -2.3445    3.4020    2.3977 H       1  UNL1        0.0518
     53 H          -4.0734    3.7136    0.6178 H       1  UNL1        0.0622
     54 H          -6.1026    2.7435   -0.5099 H       1  UNL1        0.0654
     55 H          -6.8828   -1.5863    0.4404 H       1  UNL1        0.0723
     56 H          -5.9061   -1.6551   -1.1204 H       1  UNL1        0.0723
     57 H          -8.9002   -1.1464   -0.8024 H       1  UNL1        0.0653
     58 H          -8.9362   -1.0048   -2.9626 H       1  UNL1        0.2100
     59 H          -9.1909   -3.4399   -1.7554 H       1  UNL1        0.0642
     60 H          -7.4177   -3.6084   -1.7519 H       1  UNL1        0.0642
     61 H          -4.7124   -1.1511    0.6082 H       1  UNL1        0.0654
     62 H          -2.7675   -0.1619    1.6838 H       1  UNL1        0.0622
@<TRIPOS>BOND
     1     1     2    1
     2     2     3    1
     3     3     4    1
     4     4     5    1
     5     5     6    1
     6     6     7    1
     7     7     8    1
     8     8     9    1
     9     9    10    2
    10     9    11    2
    11     9    12    1
    12    12    13   ar
    13    13    14   ar
    14    14    15   ar
    15    15    16   ar
    16    16    17   ar
    17    16    18    1
    18    18    19    2
    19    18    20    1
    20    20    21    2
    21    20    22   am
    22    22    23    1
    23    23    24    1
    24    24    25   ar
    25    25    26   ar
    26    26    27   ar
    27    27    28    1
    28    28    29    1
    29    29    30    1
    30    30    31    1
    31    30    32    1
    32    32    33    1
    33    27    34   ar
    34    34    35   ar
    35     8     4    1
    36    17    12   ar
    37    35    24   ar
    38    22    15    1
    39     1    36    1
    40     1    37    1
    41     1    38    1
    42     3    39    1
    43     3    40    1
    44     4    41    1
    45     5    42    1
    46     5    43    1
    47     6    44    1
    48     6    45    1
    49     7    46    1
    50     7    47    1
    51    13    48    1
    52    14    49    1
    53    17    50    1
    54    23    51    1
    55    23    52    1
    56    25    53    1
    57    26    54    1
    58    29    55    1
    59    29    56    1
    60    30    57    1
    61    31    58    1
    62    32    59    1
    63    32    60    1
    64    34    61    1
    65    35    62    1
