
     RDKit          3D

 62 65  0  0  0  0  0  0  0  0999 V2000
    7.5565    0.8018   -1.8338 C   0  0  0  0  0  0  0  0  0  0  0  0
    6.5589   -0.0458   -2.2803 O   0  0  0  0  0  0  0  0  0  0  0  0
    6.4711   -1.2095   -1.5798 C   0  0  0  0  0  0  0  0  0  0  0  0
    6.1780   -1.0562   -0.1384 C   0  0  2  0  0  0  0  0  0  0  0  0
    6.0467   -2.3902    0.5809 C   0  0  0  0  0  0  0  0  0  0  0  0
    5.5310   -1.8984    1.9396 C   0  0  0  0  0  0  0  0  0  0  0  0
    4.7677   -0.6410    1.5797 C   0  0  0  0  0  0  0  0  0  0  0  0
    4.9637   -0.3888    0.1874 N   0  0  0  0  0  0  0  0  0  0  0  0
    3.6043   -0.8042   -0.7190 S   0  0  0  0  0  6  0  0  0  0  0  0
    3.8177   -0.7188   -2.2043 O   0  0  0  0  0  0  0  0  0  0  0  0
    3.2247   -2.2578   -0.4625 O   0  0  0  0  0  0  0  0  0  0  0  0
    2.2423    0.1627   -0.2145 C   0  0  0  0  0  0  0  0  0  0  0  0
    1.3783   -0.3370    0.7282 C   0  0  0  0  0  0  0  0  0  0  0  0
    0.2822    0.4294    1.1469 C   0  0  0  0  0  0  0  0  0  0  0  0
    0.0298    1.6827    0.6451 C   0  0  0  0  0  0  0  0  0  0  0  0
    0.8990    2.1793   -0.3001 C   0  0  0  0  0  0  0  0  0  0  0  0
    1.9939    1.4182   -0.7206 C   0  0  0  0  0  0  0  0  0  0  0  0
    0.4091    3.4961   -0.6550 C   0  0  0  0  0  0  0  0  0  0  0  0
    0.9408    4.2694   -1.4943 O   0  0  0  0  0  0  0  0  0  0  0  0
   -0.7936    3.7728    0.1172 C   0  0  0  0  0  0  0  0  0  0  0  0
   -1.4772    4.8165    0.0635 O   0  0  0  0  0  0  0  0  0  0  0  0
   -1.0094    2.6046    0.9328 N   0  0  0  0  0  0  0  0  0  0  0  0
   -2.1235    2.4677    1.8655 C   0  0  0  0  0  0  0  0  0  0  0  0
   -3.3025    1.8565    1.2143 C   0  0  0  0  0  0  0  0  0  0  0  0
   -4.2518    2.6400    0.5932 C   0  0  0  0  0  0  0  0  0  0  0  0
   -5.3610    2.0985   -0.0223 C   0  0  0  0  0  0  0  0  0  0  0  0
   -5.5206    0.7265   -0.0127 C   0  0  0  0  0  0  0  0  0  0  0  0
   -6.6297    0.1750   -0.6278 O   0  0  0  0  0  0  0  0  0  0  0  0
   -6.7944   -1.2168   -0.6184 C   0  0  0  0  0  0  0  0  0  0  0  0
   -8.0581   -1.6195   -1.3371 C   0  0  0  0  0  0  0  0  0  0  0  0
   -8.0140   -1.1951   -2.6616 O   0  0  0  0  0  0  0  0  0  0  0  0
   -8.2752   -3.1147   -1.2677 C   0  0  0  0  0  0  0  0  0  0  0  0
   -8.3726   -3.4691    0.0782 F   0  0  0  0  0  0  0  0  0  0  0  0
   -4.5900   -0.0746    0.5987 C   0  0  0  0  0  0  0  0  0  0  0  0
   -3.4923    0.4868    1.2058 C   0  0  0  0  0  0  0  0  0  0  0  0
    8.5190    0.2217   -1.9273 H   0  0  0  0  0  0  0  0  0  0  0  0
    7.6015    1.7237   -2.4598 H   0  0  0  0  0  0  0  0  0  0  0  0
    7.4413    1.0382   -0.7628 H   0  0  0  0  0  0  0  0  0  0  0  0
    7.4726   -1.7414   -1.6424 H   0  0  0  0  0  0  0  0  0  0  0  0
    5.7916   -1.9540   -2.0918 H   0  0  0  0  0  0  0  0  0  0  0  0
    7.0160   -0.5393    0.3655 H   0  0  0  0  0  0  0  0  0  0  0  0
    7.0719   -2.7932    0.6937 H   0  0  0  0  0  0  0  0  0  0  0  0
    5.3439   -3.0653    0.0909 H   0  0  0  0  0  0  0  0  0  0  0  0
    4.9282   -2.6560    2.4415 H   0  0  0  0  0  0  0  0  0  0  0  0
    6.3729   -1.6087    2.5792 H   0  0  0  0  0  0  0  0  0  0  0  0
    3.7099   -0.8282    1.8416 H   0  0  0  0  0  0  0  0  0  0  0  0
    5.1102    0.2320    2.1776 H   0  0  0  0  0  0  0  0  0  0  0  0
    1.4943   -1.3229    1.1791 H   0  0  0  0  0  0  0  0  0  0  0  0
   -0.3753    0.0030    1.8906 H   0  0  0  0  0  0  0  0  0  0  0  0
    2.6810    1.8200   -1.4734 H   0  0  0  0  0  0  0  0  0  0  0  0
   -1.7748    1.7182    2.6330 H   0  0  0  0  0  0  0  0  0  0  0  0
   -2.3445    3.4020    2.3977 H   0  0  0  0  0  0  0  0  0  0  0  0
   -4.0734    3.7136    0.6178 H   0  0  0  0  0  0  0  0  0  0  0  0
   -6.1026    2.7435   -0.5099 H   0  0  0  0  0  0  0  0  0  0  0  0
   -6.8828   -1.5863    0.4404 H   0  0  0  0  0  0  0  0  0  0  0  0
   -5.9061   -1.6551   -1.1204 H   0  0  0  0  0  0  0  0  0  0  0  0
   -8.9002   -1.1464   -0.8024 H   0  0  0  0  0  0  0  0  0  0  0  0
   -8.9362   -1.0048   -2.9626 H   0  0  0  0  0  0  0  0  0  0  0  0
   -9.1909   -3.4399   -1.7554 H   0  0  0  0  0  0  0  0  0  0  0  0
   -7.4177   -3.6084   -1.7519 H   0  0  0  0  0  0  0  0  0  0  0  0
   -4.7124   -1.1511    0.6082 H   0  0  0  0  0  0  0  0  0  0  0  0
   -2.7675   -0.1619    1.6838 H   0  0  0  0  0  0  0  0  0  0  0  0
  1  2  1  0
  2  3  1  0
  3  4  1  0
  4  5  1  0
  5  6  1  0
  6  7  1  0
  7  8  1  0
  8  9  1  0
  9 10  2  0
  9 11  2  0
  9 12  1  0
 12 13  2  0
 13 14  1  0
 14 15  2  0
 15 16  1  0
 16 17  2  0
 16 18  1  0
 18 19  2  0
 18 20  1  0
 20 21  2  0
 20 22  1  0
 22 23  1  0
 23 24  1  0
 24 25  2  0
 25 26  1  0
 26 27  2  0
 27 28  1  0
 28 29  1  0
 29 30  1  0
 30 31  1  0
 30 32  1  0
 32 33  1  0
 27 34  1  0
 34 35  2  0
  8  4  1  0
 17 12  1  0
 35 24  1  0
 22 15  1  0
  1 36  1  0
  1 37  1  0
  1 38  1  0
  3 39  1  0
  3 40  1  0
  4 41  1  1
  5 42  1  0
  5 43  1  0
  6 44  1  0
  6 45  1  0
  7 46  1  0
  7 47  1  0
 13 48  1  0
 14 49  1  0
 17 50  1  0
 23 51  1  0
 23 52  1  0
 25 53  1  0
 26 54  1  0
 29 55  1  0
 29 56  1  0
 30 57  1  0
 31 58  1  0
 32 59  1  0
 32 60  1  0
 34 61  1  0
 35 62  1  0
M  END
$$$$
