
     RDKit          3D

 37 38  0  0  0  0  0  0  0  0999 V2000
    5.7396   -0.3696    1.8375 C   0  0  0  0  0  0  0  0  0  0  0  0
    4.5535    0.3064    2.1930 O   0  0  0  0  0  0  0  0  0  0  0  0
    3.5043    0.5355    1.3188 C   0  0  0  0  0  0  0  0  0  0  0  0
    2.3969    1.2117    1.7873 C   0  0  0  0  0  0  0  0  0  0  0  0
    1.3089    1.4700    0.9471 C   0  0  0  0  0  0  0  0  0  0  0  0
    1.2843    1.0726   -0.3636 C   0  0  0  0  0  0  0  0  0  0  0  0
   -0.0162    1.3693   -1.4626 S   0  0  0  0  0  6  0  0  0  0  0  0
    0.5393    1.8451   -2.8042 O   0  0  0  0  0  0  0  0  0  0  0  0
   -0.7524    2.6051   -0.9352 O   0  0  0  0  0  0  0  0  0  0  0  0
   -1.1365    0.0837   -1.6868 C   0  0  0  0  0  0  0  0  0  0  0  0
   -1.1444   -0.5206   -2.9581 C   0  0  0  0  0  0  0  0  0  0  0  0
   -1.9786   -1.5613   -3.2760 C   0  0  0  0  0  0  0  0  0  0  0  0
   -2.8298   -2.0102   -2.2935 C   0  0  0  0  0  0  0  0  0  0  0  0
   -2.8335   -1.4266   -1.0419 C   0  0  0  0  0  0  0  0  0  0  0  0
   -1.9862   -0.3802   -0.7410 C   0  0  0  0  0  0  0  0  0  0  0  0
   -2.0194    0.2529    0.6202 C   0  0  0  0  0  0  0  0  0  0  0  0
   -3.0723   -0.3001    1.4711 C   0  0  0  0  0  0  0  0  0  0  0  0
   -3.0062   -1.4790    1.8772 O   0  0  0  0  0  0  0  0  0  0  0  0
   -4.1872    0.4901    1.8520 N   0  0  0  0  0  0  0  0  0  0  0  0
   -5.1806    0.0185    2.6368 O   0  0  0  0  0  0  0  0  0  0  0  0
    2.4249    0.3888   -0.8035 C   0  0  0  0  0  0  0  0  0  0  0  0
    3.5024    0.1282    0.0132 C   0  0  0  0  0  0  0  0  0  0  0  0
    6.5011    0.3488    1.4604 H   0  0  0  0  0  0  0  0  0  0  0  0
    6.1484   -0.7943    2.8020 H   0  0  0  0  0  0  0  0  0  0  0  0
    5.5824   -1.1717    1.0842 H   0  0  0  0  0  0  0  0  0  0  0  0
    2.3858    1.5418    2.8297 H   0  0  0  0  0  0  0  0  0  0  0  0
    0.4529    2.0015    1.3366 H   0  0  0  0  0  0  0  0  0  0  0  0
   -0.4775   -0.1781   -3.7482 H   0  0  0  0  0  0  0  0  0  0  0  0
   -1.9925   -2.0349   -4.2517 H   0  0  0  0  0  0  0  0  0  0  0  0
   -3.4873   -2.8340   -2.5506 H   0  0  0  0  0  0  0  0  0  0  0  0
   -3.5206   -1.7923   -0.2828 H   0  0  0  0  0  0  0  0  0  0  0  0
   -1.0200    0.0023    1.0588 H   0  0  0  0  0  0  0  0  0  0  0  0
   -2.1349    1.3471    0.5392 H   0  0  0  0  0  0  0  0  0  0  0  0
   -4.2551    1.4939    1.5108 H   0  0  0  0  0  0  0  0  0  0  0  0
   -6.0773    0.1183    2.2244 H   0  0  0  0  0  0  0  0  0  0  0  0
    2.4148    0.0698   -1.8424 H   0  0  0  0  0  0  0  0  0  0  0  0
    4.3689   -0.4024   -0.3582 H   0  0  0  0  0  0  0  0  0  0  0  0
  1  2  1  0
  2  3  1  0
  3  4  2  0
  4  5  1  0
  5  6  2  0
  6  7  1  0
  7  8  2  0
  7  9  2  0
  7 10  1  0
 10 11  2  0
 11 12  1  0
 12 13  2  0
 13 14  1  0
 14 15  2  0
 15 16  1  0
 16 17  1  0
 17 18  2  0
 17 19  1  0
 19 20  1  0
  6 21  1  0
 21 22  2  0
 22  3  1  0
 15 10  1  0
  1 23  1  0
  1 24  1  0
  1 25  1  0
  4 26  1  0
  5 27  1  0
 11 28  1  0
 12 29  1  0
 13 30  1  0
 14 31  1  0
 16 32  1  0
 16 33  1  0
 19 34  1  0
 20 35  1  0
 21 36  1  0
 22 37  1  0
M  END
$$$$
