@<TRIPOS>MOLECULE
*****
 37 38 0 0 0
SMALL
GASTEIGER

@<TRIPOS>ATOM
      1 C           5.7396   -0.3696    1.8375 C.3     1  UNL1        0.0788
      2 O           4.5535    0.3064    2.1930 O.3     1  UNL1       -0.4951
      3 C           3.5043    0.5355    1.3188 C.ar    1  UNL1        0.1202
      4 C           2.3969    1.2117    1.7873 C.ar    1  UNL1       -0.0181
      5 C           1.3089    1.4700    0.9471 C.ar    1  UNL1       -0.0330
      6 C           1.2843    1.0726   -0.3636 C.ar    1  UNL1        0.0938
      7 S          -0.0162    1.3693   -1.4626 S.O2    1  UNL1        0.0253
      8 O           0.5393    1.8451   -2.8042 O.2     1  UNL1       -0.1643
      9 O          -0.7524    2.6051   -0.9352 O.2     1  UNL1       -0.1643
     10 C          -1.1365    0.0837   -1.6868 C.ar    1  UNL1        0.0972
     11 C          -1.1444   -0.5206   -2.9581 C.ar    1  UNL1       -0.0362
     12 C          -1.9786   -1.5613   -3.2760 C.ar    1  UNL1       -0.0599
     13 C          -2.8298   -2.0102   -2.2935 C.ar    1  UNL1       -0.0614
     14 C          -2.8335   -1.4266   -1.0419 C.ar    1  UNL1       -0.0563
     15 C          -1.9862   -0.3802   -0.7410 C.ar    1  UNL1       -0.0134
     16 C          -2.0194    0.2529    0.6202 C.3     1  UNL1        0.0529
     17 C          -3.0723   -0.3001    1.4711 C.2     1  UNL1        0.2398
     18 O          -3.0062   -1.4790    1.8772 O.2     1  UNL1       -0.2734
     19 N          -4.1872    0.4901    1.8520 N.am    1  UNL1       -0.1972
     20 O          -5.1806    0.0185    2.6368 O.3     1  UNL1       -0.2952
     21 C           2.4249    0.3888   -0.8035 C.ar    1  UNL1       -0.0330
     22 C           3.5024    0.1282    0.0132 C.ar    1  UNL1       -0.0181
     23 H           6.5011    0.3488    1.4604 H       1  UNL1        0.0660
     24 H           6.1484   -0.7943    2.8020 H       1  UNL1        0.0660
     25 H           5.5824   -1.1717    1.0842 H       1  UNL1        0.0660
     26 H           2.3858    1.5418    2.8297 H       1  UNL1        0.0655
     27 H           0.4529    2.0015    1.3366 H       1  UNL1        0.0638
     28 H          -0.4775   -0.1781   -3.7482 H       1  UNL1        0.0637
     29 H          -1.9925   -2.0349   -4.2517 H       1  UNL1        0.0618
     30 H          -3.4873   -2.8340   -2.5506 H       1  UNL1        0.0618
     31 H          -3.5206   -1.7923   -0.2828 H       1  UNL1        0.0621
     32 H          -1.0200    0.0023    1.0588 H       1  UNL1        0.0408
     33 H          -2.1349    1.3471    0.5392 H       1  UNL1        0.0408
     34 H          -4.2551    1.4939    1.5108 H       1  UNL1        0.1822
     35 H          -6.0773    0.1183    2.2244 H       1  UNL1        0.2414
     36 H           2.4148    0.0698   -1.8424 H       1  UNL1        0.0638
     37 H           4.3689   -0.4024   -0.3582 H       1  UNL1        0.0655
@<TRIPOS>BOND
     1     1     2    1
     2     2     3    1
     3     3     4   ar
     4     4     5   ar
     5     5     6   ar
     6     6     7    1
     7     7     8    2
     8     7     9    2
     9     7    10    1
    10    10    11   ar
    11    11    12   ar
    12    12    13   ar
    13    13    14   ar
    14    14    15   ar
    15    15    16    1
    16    16    17    1
    17    17    18    2
    18    17    19   am
    19    19    20    1
    20     6    21   ar
    21    21    22   ar
    22    22     3   ar
    23    15    10   ar
    24     1    23    1
    25     1    24    1
    26     1    25    1
    27     4    26    1
    28     5    27    1
    29    11    28    1
    30    12    29    1
    31    13    30    1
    32    14    31    1
    33    16    32    1
    34    16    33    1
    35    19    34    1
    36    20    35    1
    37    21    36    1
    38    22    37    1
