@<TRIPOS>MOLECULE
*****
 38 40 0 0 0
SMALL
GASTEIGER

@<TRIPOS>ATOM
      1 O           7.9243    0.9430    0.7967 O.2     1  UNK1       -0.2492
      2 C           6.7578    0.7061    0.4124 C.2     1  UNK1        0.3221
      3 O           5.8919    1.7701    0.2416 O.3     1  UNK1       -0.4795
      4 C           6.3131   -0.6819    0.1462 C.3     1  UNK1        0.1091
      5 N           4.9286   -0.7260   -0.2865 N.am    1  UNK1       -0.2995
      6 C           3.9226   -0.2292    0.5646 C.2     1  UNK1        0.2665
      7 O           4.3082    0.2452    1.7034 O.2     1  UNK1       -0.2684
      8 C           2.5006   -0.1907    0.3047 C.ar    1  UNK1        0.1666
      9 N           1.6622    0.3394    1.2520 N.ar    1  UNK1       -0.2462
     10 C           0.3383    0.4163    1.1005 C.ar    0  UNK0        0.0364
     11 C          -0.2851   -0.0442   -0.0469 C.ar    1  UNK1        0.0037
     12 C          -1.7297    0.0449   -0.2010 C.ar    1  UNK1       -0.0157
     13 C          -2.3071    0.2099   -1.4396 C.ar    1  UNK1       -0.0534
     14 C          -3.6731    0.2974   -1.6134 C.ar    1  UNK1       -0.0535
     15 C          -4.5162    0.2189   -0.5148 C.ar    1  UNK1       -0.0178
     16 C          -5.9021    0.3054   -0.6715 C.ar    1  UNK1       -0.0540
     17 C          -6.7317    0.2267    0.4237 C.ar    1  UNK1       -0.0612
     18 C          -6.1975    0.0623    1.6769 C.ar    1  UNK1       -0.0612
     19 C          -4.8284   -0.0211    1.8127 C.ar    1  UNK1       -0.0540
     20 C          -3.9723    0.0541    0.7372 C.ar    1  UNK1       -0.0173
     21 C          -2.5952   -0.0313    0.8866 C.ar    1  UNK1       -0.0463
     22 C           0.5408   -0.5777   -1.0045 C.ar    1  UNK1       -0.0087
     23 C           1.9301   -0.6532   -0.8343 C.ar    1  UNK1        0.1478
     24 O           2.6853   -1.2028   -1.8435 O.3     1  UNK1       -0.5044
     25 H           6.1424    2.7295    0.4086 H       1  UNK1        0.2951
     26 H           6.4122   -1.2487    1.1097 H       1  UNK1        0.0577
     27 H           6.9676   -1.1263   -0.6161 H       1  UNK1        0.0577
     28 H           4.7049   -1.1130   -1.1949 H       1  UNK1        0.1496
     29 H          -0.2404    0.8567    1.9154 H       0  UNK0        0.0836
     30 H          -1.6846    0.2753   -2.3175 H       1  UNK1        0.0624
     31 H          -4.1151    0.4285   -2.6043 H       1  UNK1        0.0624
     32 H          -6.2898    0.4344   -1.6701 H       1  UNK1        0.0624
     33 H          -7.7976    0.2924    0.3125 H       1  UNK1        0.0618
     34 H          -6.8684    0.0005    2.5455 H       1  UNK1        0.0618
     35 H          -4.4089   -0.1487    2.7851 H       1  UNK1        0.0624
     36 H          -2.1705   -0.1586    1.8536 H       1  UNK1        0.0630
     37 H           0.0773   -0.9460   -1.9135 H       1  UNK1        0.0661
     38 H           2.3054   -1.7577   -2.6003 H       1  UNK1        0.2922
@<TRIPOS>BOND
     1     1     2    2
     2     2     3    1
     3     2     4    1
     4     4     5    1
     5     5     6   am
     6     6     7    2
     7     6     8    1
     8     8     9   ar
     9     9    10   ar
    10    10    11   ar
    11    11    12    1
    12    12    13   ar
    13    13    14   ar
    14    14    15   ar
    15    15    16   ar
    16    16    17   ar
    17    17    18   ar
    18    18    19   ar
    19    19    20   ar
    20    20    21   ar
    21    11    22   ar
    22    22    23   ar
    23    23    24    1
    24    23     8   ar
    25    21    12   ar
    26    20    15   ar
    27     3    25    1
    28     4    26    1
    29     4    27    1
    30     5    28    1
    31    10    29    1
    32    13    30    1
    33    14    31    1
    34    16    32    1
    35    17    33    1
    36    18    34    1
    37    19    35    1
    38    21    36    1
    39    22    37    1
    40    24    38    1
