@<TRIPOS>MOLECULE
*****
 46 49 0 0 0
SMALL
GASTEIGER

@<TRIPOS>ATOM
      1 C           3.8397   -3.2431   -0.3552 C.3     1  UNL1       -0.0470
      2 C           3.2670   -1.9187   -0.8194 C.3     1  UNL1        0.0221
      3 N           2.7280   -1.1438    0.2535 N.ar    1  UNL1       -0.3274
      4 C           1.4829   -1.1511    0.7310 C.ar    1  UNL1        0.1181
      5 C           0.3025   -1.9392    0.2941 C.3     1  UNL1        0.0638
      6 C          -0.5530   -1.1569   -0.6510 C.ar    1  UNL1        0.1191
      7 N          -1.4855   -0.2972   -0.1495 N.ar    1  UNL1       -0.2186
      8 C          -2.2896    0.4304   -0.9502 C.ar    1  UNL1        0.1285
      9 N          -3.2599    1.3202   -0.4330 N.pl3   1  UNL1       -0.3106
     10 C          -4.0894    2.1863   -1.2326 C.3     1  UNL1        0.0370
     11 C          -5.5012    1.6386   -1.1204 C.3     1  UNL1        0.0634
     12 O          -5.6778    0.9437    0.0735 O.3     1  UNL1       -0.3767
     13 C          -5.0101    1.5208    1.1502 C.3     1  UNL1        0.0634
     14 C          -3.4995    1.4188    1.0168 C.3     1  UNL1        0.0370
     15 C          -2.1081    0.2490   -2.3003 C.ar    1  UNL1        0.0427
     16 C          -1.1681   -0.6179   -2.8163 C.ar    1  UNL1        0.2533
     17 O          -0.9969   -0.7884   -4.0468 O.2     1  UNL1       -0.2677
     18 N          -0.3947   -1.3169   -1.9734 N.ar    1  UNL1       -0.3104
     19 N           1.4667   -0.2531    1.7493 N.ar    1  UNL1       -0.2318
     20 C           2.6566    0.3026    1.9108 C.ar    1  UNL1        0.0893
     21 C           3.1037    1.2629    2.8183 C.ar    1  UNL1       -0.0342
     22 C           4.4174    1.6349    2.7244 C.ar    1  UNL1       -0.0596
     23 C           5.2717    1.1062    1.7954 C.ar    1  UNL1       -0.0597
     24 C           4.7981    0.1466    0.8993 C.ar    1  UNL1       -0.0361
     25 C           3.4790   -0.2549    0.9617 C.ar    1  UNL1        0.0688
     26 H           4.2935   -3.1375    0.6408 H       1  UNL1        0.0247
     27 H           4.6325   -3.6036   -1.0505 H       1  UNL1        0.0247
     28 H           3.0446   -4.0342   -0.3725 H       1  UNL1        0.0247
     29 H           2.5916   -2.1389   -1.6497 H       1  UNL1        0.0489
     30 H           4.1397   -1.3766   -1.2913 H       1  UNL1        0.0489
     31 H          -0.3299   -2.1179    1.1994 H       1  UNL1        0.0422
     32 H           0.5968   -2.9241   -0.1313 H       1  UNL1        0.0422
     33 H          -3.7216    2.2979   -2.2456 H       1  UNL1        0.0487
     34 H          -4.0468    3.2051   -0.7353 H       1  UNL1        0.0487
     35 H          -5.6335    0.9212   -1.9559 H       1  UNL1        0.0575
     36 H          -6.2634    2.4322   -1.2630 H       1  UNL1        0.0575
     37 H          -5.3602    2.5427    1.3286 H       1  UNL1        0.0575
     38 H          -5.2897    0.8967    2.0398 H       1  UNL1        0.0575
     39 H          -3.0861    2.4080    1.3112 H       1  UNL1        0.0487
     40 H          -3.0690    0.5829    1.5662 H       1  UNL1        0.0487
     41 H          -2.6992    0.7794   -3.0363 H       1  UNL1        0.0706
     42 H           0.3363   -1.9960   -2.3510 H       1  UNL1        0.1700
     43 H           2.4663    1.6949    3.5539 H       1  UNL1        0.0639
     44 H           4.8343    2.3808    3.4019 H       1  UNL1        0.0618
     45 H           6.3163    1.3832    1.6999 H       1  UNL1        0.0618
     46 H           5.4681   -0.2761    0.1613 H       1  UNL1        0.0639
@<TRIPOS>BOND
     1     1     2    1
     2     2     3    1
     3     3     4   ar
     4     4     5    1
     5     5     6    1
     6     6     7   ar
     7     7     8   ar
     8     8     9    1
     9     9    10    1
    10    10    11    1
    11    11    12    1
    12    12    13    1
    13    13    14    1
    14     8    15   ar
    15    15    16   ar
    16    16    17    2
    17    16    18   ar
    18     4    19   ar
    19    19    20   ar
    20    20    21   ar
    21    21    22   ar
    22    22    23   ar
    23    23    24   ar
    24    24    25   ar
    25    25     3   ar
    26    18     6   ar
    27    25    20   ar
    28    14     9    1
    29     1    26    1
    30     1    27    1
    31     1    28    1
    32     2    29    1
    33     2    30    1
    34     5    31    1
    35     5    32    1
    36    10    33    1
    37    10    34    1
    38    11    35    1
    39    11    36    1
    40    13    37    1
    41    13    38    1
    42    14    39    1
    43    14    40    1
    44    15    41    1
    45    18    42    1
    46    21    43    1
    47    22    44    1
    48    23    45    1
    49    24    46    1
