
     RDKit          3D

 46 49  0  0  0  0  0  0  0  0999 V2000
    3.8397   -3.2431   -0.3552 C   0  0  0  0  0  0  0  0  0  0  0  0
    3.2670   -1.9187   -0.8194 C   0  0  0  0  0  0  0  0  0  0  0  0
    2.7280   -1.1438    0.2535 N   0  0  0  0  0  0  0  0  0  0  0  0
    1.4829   -1.1511    0.7310 C   0  0  0  0  0  0  0  0  0  0  0  0
    0.3025   -1.9392    0.2941 C   0  0  0  0  0  0  0  0  0  0  0  0
   -0.5530   -1.1569   -0.6510 C   0  0  0  0  0  0  0  0  0  0  0  0
   -1.4855   -0.2972   -0.1495 N   0  0  0  0  0  0  0  0  0  0  0  0
   -2.2896    0.4304   -0.9502 C   0  0  0  0  0  0  0  0  0  0  0  0
   -3.2599    1.3202   -0.4330 N   0  0  0  0  0  0  0  0  0  0  0  0
   -4.0894    2.1863   -1.2326 C   0  0  0  0  0  0  0  0  0  0  0  0
   -5.5012    1.6386   -1.1204 C   0  0  0  0  0  0  0  0  0  0  0  0
   -5.6778    0.9437    0.0735 O   0  0  0  0  0  0  0  0  0  0  0  0
   -5.0101    1.5208    1.1502 C   0  0  0  0  0  0  0  0  0  0  0  0
   -3.4995    1.4188    1.0168 C   0  0  0  0  0  0  0  0  0  0  0  0
   -2.1081    0.2490   -2.3003 C   0  0  0  0  0  0  0  0  0  0  0  0
   -1.1681   -0.6179   -2.8163 C   0  0  0  0  0  0  0  0  0  0  0  0
   -0.9969   -0.7884   -4.0468 O   0  0  0  0  0  0  0  0  0  0  0  0
   -0.3947   -1.3169   -1.9734 N   0  0  0  0  0  0  0  0  0  0  0  0
    1.4667   -0.2531    1.7493 N   0  0  0  0  0  0  0  0  0  0  0  0
    2.6566    0.3026    1.9108 C   0  0  0  0  0  0  0  0  0  0  0  0
    3.1037    1.2629    2.8183 C   0  0  0  0  0  0  0  0  0  0  0  0
    4.4174    1.6349    2.7244 C   0  0  0  0  0  0  0  0  0  0  0  0
    5.2717    1.1062    1.7954 C   0  0  0  0  0  0  0  0  0  0  0  0
    4.7981    0.1466    0.8993 C   0  0  0  0  0  0  0  0  0  0  0  0
    3.4790   -0.2549    0.9617 C   0  0  0  0  0  0  0  0  0  0  0  0
    4.2935   -3.1375    0.6408 H   0  0  0  0  0  0  0  0  0  0  0  0
    4.6325   -3.6036   -1.0505 H   0  0  0  0  0  0  0  0  0  0  0  0
    3.0446   -4.0342   -0.3725 H   0  0  0  0  0  0  0  0  0  0  0  0
    2.5916   -2.1389   -1.6497 H   0  0  0  0  0  0  0  0  0  0  0  0
    4.1397   -1.3766   -1.2913 H   0  0  0  0  0  0  0  0  0  0  0  0
   -0.3299   -2.1179    1.1994 H   0  0  0  0  0  0  0  0  0  0  0  0
    0.5968   -2.9241   -0.1313 H   0  0  0  0  0  0  0  0  0  0  0  0
   -3.7216    2.2979   -2.2456 H   0  0  0  0  0  0  0  0  0  0  0  0
   -4.0468    3.2051   -0.7353 H   0  0  0  0  0  0  0  0  0  0  0  0
   -5.6335    0.9212   -1.9559 H   0  0  0  0  0  0  0  0  0  0  0  0
   -6.2634    2.4322   -1.2630 H   0  0  0  0  0  0  0  0  0  0  0  0
   -5.3602    2.5427    1.3286 H   0  0  0  0  0  0  0  0  0  0  0  0
   -5.2897    0.8967    2.0398 H   0  0  0  0  0  0  0  0  0  0  0  0
   -3.0861    2.4080    1.3112 H   0  0  0  0  0  0  0  0  0  0  0  0
   -3.0690    0.5829    1.5662 H   0  0  0  0  0  0  0  0  0  0  0  0
   -2.6992    0.7794   -3.0363 H   0  0  0  0  0  0  0  0  0  0  0  0
    0.3363   -1.9960   -2.3510 H   0  0  0  0  0  0  0  0  0  0  0  0
    2.4663    1.6949    3.5539 H   0  0  0  0  0  0  0  0  0  0  0  0
    4.8343    2.3808    3.4019 H   0  0  0  0  0  0  0  0  0  0  0  0
    6.3163    1.3832    1.6999 H   0  0  0  0  0  0  0  0  0  0  0  0
    5.4681   -0.2761    0.1613 H   0  0  0  0  0  0  0  0  0  0  0  0
  1  2  1  0
  2  3  1  0
  3  4  1  0
  4  5  1  0
  5  6  1  0
  6  7  2  0
  7  8  1  0
  8  9  1  0
  9 10  1  0
 10 11  1  0
 11 12  1  0
 12 13  1  0
 13 14  1  0
  8 15  2  0
 15 16  1  0
 16 17  2  0
 16 18  1  0
  4 19  2  0
 19 20  1  0
 20 21  2  0
 21 22  1  0
 22 23  2  0
 23 24  1  0
 24 25  2  0
 25  3  1  0
 18  6  1  0
 25 20  1  0
 14  9  1  0
  1 26  1  0
  1 27  1  0
  1 28  1  0
  2 29  1  0
  2 30  1  0
  5 31  1  0
  5 32  1  0
 10 33  1  0
 10 34  1  0
 11 35  1  0
 11 36  1  0
 13 37  1  0
 13 38  1  0
 14 39  1  0
 14 40  1  0
 15 41  1  0
 18 42  1  0
 21 43  1  0
 22 44  1  0
 23 45  1  0
 24 46  1  0
M  END
$$$$
