
     RDKit          3D

 58 63  0  0  0  0  0  0  0  0999 V2000
   -2.4922   -0.9964    1.8450 C   0  0  0  0  0  0  0  0  0  0  0  0
   -2.3194    0.2738    1.0794 C   0  0  1  0  0  0  0  0  0  0  0  0
   -3.4588    0.5347    0.1256 C   0  0  0  0  0  0  0  0  0  0  0  0
   -3.2452    0.7332   -1.0904 O   0  0  0  0  0  0  0  0  0  0  0  0
   -4.7925    0.5560    0.6070 N   0  0  0  0  0  0  0  0  0  0  0  0
   -5.9575    0.7790   -0.1464 C   0  0  0  0  0  0  0  0  0  0  0  0
   -7.1825    0.8071    0.5154 C   0  0  0  0  0  0  0  0  0  0  0  0
   -8.3678    1.0104   -0.1520 C   0  0  0  0  0  0  0  0  0  0  0  0
   -8.3762    1.1949   -1.5199 C   0  0  0  0  0  0  0  0  0  0  0  0
   -9.5523    1.3956   -2.1802 F   0  0  0  0  0  0  0  0  0  0  0  0
   -7.1967    1.1653   -2.1395 N   0  0  0  0  0  0  0  0  0  0  0  0
   -6.0132    0.9653   -1.4959 C   0  0  0  0  0  0  0  0  0  0  0  0
   -2.2308    1.4838    2.0246 C   0  0  0  0  0  0  0  0  0  0  0  0
   -1.6418    2.5292    1.1370 C   0  0  0  0  0  0  0  0  0  0  0  0
   -0.8261    1.7508    0.1227 C   0  0  0  0  0  0  0  0  0  0  0  0
   -1.0471    0.3614    0.4330 N   0  0  0  0  0  0  0  0  0  0  0  0
   -0.1508   -0.6999    0.1727 C   0  0  0  0  0  0  0  0  0  0  0  0
    1.0531   -0.7018    0.8040 N   0  0  0  0  0  0  0  0  0  0  0  0
    1.9461   -1.6872    0.5735 C   0  0  0  0  0  0  0  0  0  0  0  0
    3.2157   -1.6961    1.2424 N   0  0  0  0  0  0  0  0  0  0  0  0
    4.3526   -1.1127    0.6344 C   0  0  0  0  0  0  0  0  0  0  0  0
    4.5899    0.2542    0.4517 C   0  0  0  0  0  0  0  0  0  0  0  0
    5.8074    0.4122   -0.1570 C   0  0  0  0  0  0  0  0  0  0  0  0
    6.4618    1.6955   -0.5657 C   0  0  0  0  0  0  0  0  0  0  0  0
    7.6738    2.0371    0.3072 C   0  0  0  0  0  0  0  0  0  0  0  0
    7.8142    1.6919   -1.1278 C   0  0  0  0  0  0  0  0  0  0  0  0
    6.2966   -0.8264   -0.3390 N   0  0  0  0  0  0  0  0  0  0  0  0
    5.4445   -1.7201    0.1239 N   0  0  0  0  0  0  0  0  0  0  0  0
    1.6802   -2.7152   -0.2981 C   0  0  0  0  0  0  0  0  0  0  0  0
    2.3949   -3.8192   -0.7194 C   0  0  0  0  0  0  0  0  0  0  0  0
    1.6117   -4.4986   -1.6232 C   0  0  0  0  0  0  0  0  0  0  0  0
    0.4452   -3.7733   -1.7128 C   0  0  0  0  0  0  0  0  0  0  0  0
    0.4759   -2.6938   -0.9161 N   0  0  0  0  0  0  0  0  0  0  0  0
   -0.3951   -1.7027   -0.6679 N   0  0  0  0  0  0  0  0  0  0  0  0
   -1.4729   -1.4107    2.0371 H   0  0  0  0  0  0  0  0  0  0  0  0
   -3.0180   -0.7800    2.7960 H   0  0  0  0  0  0  0  0  0  0  0  0
   -3.0196   -1.7378    1.2144 H   0  0  0  0  0  0  0  0  0  0  0  0
   -4.8841    0.3752    1.6690 H   0  0  0  0  0  0  0  0  0  0  0  0
   -7.2081    0.6696    1.5747 H   0  0  0  0  0  0  0  0  0  0  0  0
   -9.3304    1.0360    0.3445 H   0  0  0  0  0  0  0  0  0  0  0  0
   -5.1531    0.9671   -2.1383 H   0  0  0  0  0  0  0  0  0  0  0  0
   -1.5925    1.2289    2.8951 H   0  0  0  0  0  0  0  0  0  0  0  0
   -3.2237    1.7851    2.3486 H   0  0  0  0  0  0  0  0  0  0  0  0
   -2.4066    3.1013    0.5844 H   0  0  0  0  0  0  0  0  0  0  0  0
   -1.0251    3.2827    1.6718 H   0  0  0  0  0  0  0  0  0  0  0  0
    0.2057    2.0926    0.1738 H   0  0  0  0  0  0  0  0  0  0  0  0
   -1.1975    1.9391   -0.9094 H   0  0  0  0  0  0  0  0  0  0  0  0
    3.3565   -2.1235    2.1832 H   0  0  0  0  0  0  0  0  0  0  0  0
    3.9137    1.0306    0.7499 H   0  0  0  0  0  0  0  0  0  0  0  0
    5.7756    2.5729   -0.7265 H   0  0  0  0  0  0  0  0  0  0  0  0
    7.8031    3.1032    0.5916 H   0  0  0  0  0  0  0  0  0  0  0  0
    7.9965    1.3069    1.0662 H   0  0  0  0  0  0  0  0  0  0  0  0
    8.1092    2.4736   -1.8543 H   0  0  0  0  0  0  0  0  0  0  0  0
    8.2563    0.6916   -1.3777 H   0  0  0  0  0  0  0  0  0  0  0  0
    7.2024   -1.0404   -0.7768 H   0  0  0  0  0  0  0  0  0  0  0  0
    3.3915   -4.1050   -0.4032 H   0  0  0  0  0  0  0  0  0  0  0  0
    1.8876   -5.4090   -2.1386 H   0  0  0  0  0  0  0  0  0  0  0  0
   -0.3842   -4.0381   -2.3405 H   0  0  0  0  0  0  0  0  0  0  0  0
  2  1  1  1
  2  3  1  0
  3  4  2  0
  3  5  1  0
  5  6  1  0
  6  7  2  0
  7  8  1  0
  8  9  2  0
  9 10  1  0
  9 11  1  0
 11 12  2  0
  2 13  1  0
 13 14  1  0
 14 15  1  0
 15 16  1  0
 16 17  1  0
 17 18  1  0
 18 19  2  0
 19 20  1  0
 20 21  1  0
 21 22  1  0
 22 23  2  0
 23 24  1  0
 24 25  1  0
 25 26  1  0
 23 27  1  0
 27 28  1  0
 19 29  1  0
 29 30  2  0
 30 31  1  0
 31 32  2  0
 32 33  1  0
 33 34  1  0
 16  2  1  0
 34 17  2  0
 12  6  1  0
 28 21  2  0
 33 29  1  0
 26 24  1  0
  1 35  1  0
  1 36  1  0
  1 37  1  0
  5 38  1  0
  7 39  1  0
  8 40  1  0
 12 41  1  0
 13 42  1  0
 13 43  1  0
 14 44  1  0
 14 45  1  0
 15 46  1  0
 15 47  1  0
 20 48  1  0
 22 49  1  0
 24 50  1  0
 25 51  1  0
 25 52  1  0
 26 53  1  0
 26 54  1  0
 27 55  1  0
 30 56  1  0
 31 57  1  0
 32 58  1  0
M  END
$$$$
