@<TRIPOS>MOLECULE
*****
 58 63 0 0 0
SMALL
GASTEIGER

@<TRIPOS>ATOM
      1 C          -2.4922   -0.9964    1.8450 C.3     1  UNL1       -0.0349
      2 C          -2.3194    0.2738    1.0794 C.3     1  UNL1        0.1110
      3 C          -3.4588    0.5347    0.1256 C.2     1  UNL1        0.2407
      4 O          -3.2452    0.7332   -1.0904 O.2     1  UNL1       -0.2731
      5 N          -4.7925    0.5560    0.6070 N.am    1  UNL1       -0.2825
      6 C          -5.9575    0.7790   -0.1464 C.ar    1  UNL1        0.0519
      7 C          -7.1825    0.8071    0.5154 C.ar    1  UNL1       -0.0348
      8 C          -8.3678    1.0104   -0.1520 C.ar    1  UNL1       -0.0055
      9 C          -8.3762    1.1949   -1.5199 C.ar    1  UNL1        0.2133
     10 F          -9.5523    1.3956   -2.1802 F       1  UNL1       -0.1839
     11 N          -7.1967    1.1653   -2.1395 N.ar    1  UNL1       -0.2258
     12 C          -6.0132    0.9653   -1.4959 C.ar    1  UNL1        0.0518
     13 C          -2.2308    1.4838    2.0246 C.3     1  UNL1       -0.0217
     14 C          -1.6418    2.5292    1.1370 C.3     1  UNL1       -0.0347
     15 C          -0.8261    1.7508    0.1227 C.3     1  UNL1        0.0160
     16 N          -1.0471    0.3614    0.4330 N.pl3   1  UNL1       -0.2844
     17 C          -0.1508   -0.6999    0.1727 C.ar    1  UNL1        0.2385
     18 N           1.0531   -0.7018    0.8040 N.ar    1  UNL1       -0.1959
     19 C           1.9461   -1.6872    0.5735 C.ar    1  UNL1        0.1533
     20 N           3.2157   -1.6961    1.2424 N.pl3   1  UNL1       -0.2812
     21 C           4.3526   -1.1127    0.6344 C.ar    1  UNL1        0.1459
     22 C           4.5899    0.2542    0.4517 C.ar    1  UNL1        0.0011
     23 C           5.8074    0.4122   -0.1570 C.ar    1  UNL1        0.0410
     24 C           6.4618    1.6955   -0.5657 C.3     1  UNL1        0.0009
     25 C           7.6738    2.0371    0.3072 C.3     1  UNL1       -0.0442
     26 C           7.8142    1.6919   -1.1278 C.3     1  UNL1       -0.0442
     27 N           6.2966   -0.8264   -0.3390 N.ar    1  UNL1       -0.2795
     28 N           5.4445   -1.7201    0.1239 N.ar    1  UNL1       -0.1584
     29 C           1.6802   -2.7152   -0.2981 C.ar    1  UNL1        0.1055
     30 C           2.3949   -3.8192   -0.7194 C.ar    1  UNL1       -0.0315
     31 C           1.6117   -4.4986   -1.6232 C.ar    1  UNL1       -0.0415
     32 C           0.4452   -3.7733   -1.7128 C.ar    1  UNL1        0.0300
     33 N           0.4759   -2.6938   -0.9161 N.ar    1  UNL1       -0.2334
     34 N          -0.3951   -1.7027   -0.6679 N.ar    1  UNL1       -0.1301
     35 H          -1.4729   -1.4107    2.0371 H       1  UNL1        0.0255
     36 H          -3.0180   -0.7800    2.7960 H       1  UNL1        0.0255
     37 H          -3.0196   -1.7378    1.2144 H       1  UNL1        0.0255
     38 H          -4.8841    0.3752    1.6690 H       1  UNL1        0.1549
     39 H          -7.2081    0.6696    1.5747 H       1  UNL1        0.0638
     40 H          -9.3304    1.0360    0.3445 H       1  UNL1        0.0663
     41 H          -5.1531    0.9671   -2.1383 H       1  UNL1        0.0849
     42 H          -1.5925    1.2289    2.8951 H       1  UNL1        0.0291
     43 H          -3.2237    1.7851    2.3486 H       1  UNL1        0.0291
     44 H          -2.4066    3.1013    0.5844 H       1  UNL1        0.0281
     45 H          -1.0251    3.2827    1.6718 H       1  UNL1        0.0281
     46 H           0.2057    2.0926    0.1738 H       1  UNL1        0.0465
     47 H          -1.1975    1.9391   -0.9094 H       1  UNL1        0.0465
     48 H           3.3565   -2.1235    2.1832 H       1  UNL1        0.1551
     49 H           3.9137    1.0306    0.7499 H       1  UNL1        0.0670
     50 H           5.7756    2.5729   -0.7265 H       1  UNL1        0.0364
     51 H           7.8031    3.1032    0.5916 H       1  UNL1        0.0272
     52 H           7.9965    1.3069    1.0662 H       1  UNL1        0.0272
     53 H           8.1092    2.4736   -1.8543 H       1  UNL1        0.0272
     54 H           8.2563    0.6916   -1.3777 H       1  UNL1        0.0272
     55 H           7.2024   -1.0404   -0.7768 H       1  UNL1        0.1886
     56 H           3.3915   -4.1050   -0.4032 H       1  UNL1        0.0640
     57 H           1.8876   -5.4090   -2.1386 H       1  UNL1        0.0633
     58 H          -0.3842   -4.0381   -2.3405 H       1  UNL1        0.0830
@<TRIPOS>BOND
     1     2     1    1
     2     2     3    1
     3     3     4    2
     4     3     5   am
     5     5     6    1
     6     6     7   ar
     7     7     8   ar
     8     8     9   ar
     9     9    10    1
    10     9    11   ar
    11    11    12   ar
    12     2    13    1
    13    13    14    1
    14    14    15    1
    15    15    16    1
    16    16    17    1
    17    17    18   ar
    18    18    19   ar
    19    19    20    1
    20    20    21    1
    21    21    22   ar
    22    22    23   ar
    23    23    24    1
    24    24    25    1
    25    25    26    1
    26    23    27   ar
    27    27    28   ar
    28    19    29   ar
    29    29    30   ar
    30    30    31   ar
    31    31    32   ar
    32    32    33   ar
    33    33    34   ar
    34    16     2    1
    35    34    17   ar
    36    12     6   ar
    37    28    21   ar
    38    33    29   ar
    39    26    24    1
    40     1    35    1
    41     1    36    1
    42     1    37    1
    43     5    38    1
    44     7    39    1
    45     8    40    1
    46    12    41    1
    47    13    42    1
    48    13    43    1
    49    14    44    1
    50    14    45    1
    51    15    46    1
    52    15    47    1
    53    20    48    1
    54    22    49    1
    55    24    50    1
    56    25    51    1
    57    25    52    1
    58    26    53    1
    59    26    54    1
    60    27    55    1
    61    30    56    1
    62    31    57    1
    63    32    58    1
