@<TRIPOS>MOLECULE
*****
 39 40 0 0 0
SMALL
GASTEIGER

@<TRIPOS>ATOM
      1 CA          4.0223    1.3617    0.7572 C.3     1  ASP1        0.0887
      2 CB          5.1549    0.5317    1.2601 C.3     1  ASP1        0.0697
      3 CG          5.9590   -0.0567    0.1566 C.2     1  ASP1        0.3069
      4 OD1         7.0488   -0.8572    0.4479 O.3     1  ASP1       -0.4806
      5 OD2         5.8222    0.0458   -1.0975 O.2     1  ASP1       -0.2509
      6 N           3.0841    0.6325   -0.0606 N.am    1  ASP1       -0.3014
      7 C           1.6903    0.6007    0.2568 C.2     0  UNK0        0.2461
      8 O           1.3945    1.2463    1.2750 O.2     0  UNK0       -0.2701
      9 C           0.7692   -0.1461   -0.5909 C.ar    0  UNK0        0.0553
     10 C           1.0906   -0.8646   -1.7197 C.ar    0  UNK0        0.0397
     11 N           0.1585   -1.5200   -2.4318 N.ar    0  UNK0       -0.2619
     12 C          -1.1316   -1.5207   -2.0982 C.ar    0  UNK0        0.0353
     13 C          -1.4647   -0.8021   -0.9661 C.ar    0  UNK0        0.0009
     14 C          -0.5614   -0.1032   -0.1834 C.ar    0  UNK0       -0.0390
     15 C          -2.8831   -0.7685   -0.5491 C.ar    0  UNK0       -0.0164
     16 C          -3.3518    0.3750    0.1010 C.ar    0  UNK0       -0.0532
     17 C          -4.6558    0.5092    0.5314 C.ar    0  UNK0       -0.0472
     18 C          -5.5384   -0.5325    0.3105 C.ar    0  UNK0        0.0589
     19 C          -5.0879   -1.6651   -0.3295 C.ar    0  UNK0       -0.0472
     20 C          -3.7759   -1.8164   -0.7699 C.ar    0  UNK0       -0.0532
     21 C          -6.9246   -0.4545    0.7387 C.2     0  UNK0        0.3368
     22 O          -7.3826    0.6905    1.3853 O.3     0  UNK0       -0.4771
     23 O          -7.8404   -1.3171    0.6089 O.2     0  UNK0       -0.2451
     24 C           4.6243    2.3967   -0.1621 C.2     1  ASP1        0.1409
     25 O           5.4441    3.0537    0.4895 O.2     1  ASP1       -0.2991
     26 HA          3.5017    1.8388    1.5841 H       1  ASP1        0.0580
     27 HB1         4.8364   -0.2413    2.0013 H       1  ASP1        0.0400
     28 HB2         5.8240    1.2113    1.8274 H       1  ASP1        0.0400
     29 HD1         7.9353   -0.8012   -0.0753 H       1  ASP1        0.2951
     30 H           3.4963    0.1413   -0.8841 H       1  ASP1        0.1497
     31 H           2.1234   -0.8727   -1.9991 H       0  UNK0        0.0837
     32 H          -1.9151   -2.0426   -2.6542 H       0  UNK0        0.0836
     33 H          -0.8870    0.4405    0.6918 H       0  UNK0        0.0632
     34 H          -2.7274    1.2399    0.3155 H       0  UNK0        0.0624
     35 H          -5.0147    1.3971    1.0349 H       0  UNK0        0.0626
     36 H          -5.7469   -2.5015   -0.5211 H       0  UNK0        0.0626
     37 H          -3.4039   -2.6853   -1.2685 H       0  UNK0        0.0624
     38 H          -8.3215    1.0521    1.2854 H       0  UNK0        0.2954
     39 H           4.6349    2.8045   -1.1646 H       1  ASP1        0.1046
@<TRIPOS>BOND
     1     1     2    1
     2     2     3    1
     3     3     4    1
     4     3     5    2
     5     1     6    1
     6     6     7   am
     7     7     8    2
     8     7     9    1
     9     9    10   ar
    10    10    11   ar
    11    11    12   ar
    12    12    13   ar
    13    13    14   ar
    14    13    15    1
    15    15    16   ar
    16    16    17   ar
    17    17    18   ar
    18    18    19   ar
    19    19    20   ar
    20    18    21    1
    21    21    22    1
    22    21    23    2
    23     1    24    1
    24    24    25    2
    25    14     9   ar
    26    20    15   ar
    27     1    26    1
    28     2    27    1
    29     2    28    1
    30     4    29    1
    31     6    30    1
    32    10    31    1
    33    12    32    1
    34    14    33    1
    35    16    34    1
    36    17    35    1
    37    19    36    1
    38    20    37    1
    39    22    38    1
    40    24    39    1
