
     RDKit          3D

 39 40  0  0  0  0  0  0  0  0999 V2000
    4.0223    1.3617    0.7572 C   0  0  2  0  0  0  0  0  0  0  0  0
    5.1549    0.5317    1.2601 C   0  0  0  0  0  0  0  0  0  0  0  0
    5.9590   -0.0567    0.1566 C   0  0  0  0  0  0  0  0  0  0  0  0
    7.0488   -0.8572    0.4479 O   0  0  0  0  0  0  0  0  0  0  0  0
    5.8222    0.0458   -1.0975 O   0  0  0  0  0  0  0  0  0  0  0  0
    3.0841    0.6325   -0.0606 N   0  0  0  0  0  0  0  0  0  0  0  0
    1.6903    0.6007    0.2568 C   0  0  0  0  0  0  0  0  0  0  0  0
    1.3945    1.2463    1.2750 O   0  0  0  0  0  0  0  0  0  0  0  0
    0.7692   -0.1461   -0.5909 C   0  0  0  0  0  0  0  0  0  0  0  0
    1.0906   -0.8646   -1.7197 C   0  0  0  0  0  0  0  0  0  0  0  0
    0.1585   -1.5200   -2.4318 N   0  0  0  0  0  0  0  0  0  0  0  0
   -1.1316   -1.5207   -2.0982 C   0  0  0  0  0  0  0  0  0  0  0  0
   -1.4647   -0.8021   -0.9661 C   0  0  0  0  0  0  0  0  0  0  0  0
   -0.5614   -0.1032   -0.1834 C   0  0  0  0  0  0  0  0  0  0  0  0
   -2.8831   -0.7685   -0.5491 C   0  0  0  0  0  0  0  0  0  0  0  0
   -3.3518    0.3750    0.1010 C   0  0  0  0  0  0  0  0  0  0  0  0
   -4.6558    0.5092    0.5314 C   0  0  0  0  0  0  0  0  0  0  0  0
   -5.5384   -0.5325    0.3105 C   0  0  0  0  0  0  0  0  0  0  0  0
   -5.0879   -1.6651   -0.3295 C   0  0  0  0  0  0  0  0  0  0  0  0
   -3.7759   -1.8164   -0.7699 C   0  0  0  0  0  0  0  0  0  0  0  0
   -6.9246   -0.4545    0.7387 C   0  0  0  0  0  0  0  0  0  0  0  0
   -7.3826    0.6905    1.3853 O   0  0  0  0  0  0  0  0  0  0  0  0
   -7.8404   -1.3171    0.6089 O   0  0  0  0  0  0  0  0  0  0  0  0
    4.6243    2.3967   -0.1621 C   0  0  0  0  0  0  0  0  0  0  0  0
    5.4441    3.0537    0.4895 O   0  0  0  0  0  0  0  0  0  0  0  0
    3.5017    1.8388    1.5841 H   0  0  0  0  0  0  0  0  0  0  0  0
    4.8364   -0.2413    2.0013 H   0  0  0  0  0  0  0  0  0  0  0  0
    5.8240    1.2113    1.8274 H   0  0  0  0  0  0  0  0  0  0  0  0
    7.9353   -0.8012   -0.0753 H   0  0  0  0  0  0  0  0  0  0  0  0
    3.4963    0.1413   -0.8841 H   0  0  0  0  0  0  0  0  0  0  0  0
    2.1234   -0.8727   -1.9991 H   0  0  0  0  0  0  0  0  0  0  0  0
   -1.9151   -2.0426   -2.6542 H   0  0  0  0  0  0  0  0  0  0  0  0
   -0.8870    0.4405    0.6918 H   0  0  0  0  0  0  0  0  0  0  0  0
   -2.7274    1.2399    0.3155 H   0  0  0  0  0  0  0  0  0  0  0  0
   -5.0147    1.3971    1.0349 H   0  0  0  0  0  0  0  0  0  0  0  0
   -5.7469   -2.5015   -0.5211 H   0  0  0  0  0  0  0  0  0  0  0  0
   -3.4039   -2.6853   -1.2685 H   0  0  0  0  0  0  0  0  0  0  0  0
   -8.3215    1.0521    1.2854 H   0  0  0  0  0  0  0  0  0  0  0  0
    4.6349    2.8045   -1.1646 H   0  0  0  0  0  0  0  0  0  0  0  0
  1  2  1  0
  2  3  1  0
  3  4  1  0
  3  5  2  0
  1  6  1  0
  6  7  1  0
  7  8  2  0
  7  9  1  0
  9 10  2  0
 10 11  1  0
 11 12  2  0
 12 13  1  0
 13 14  2  0
 13 15  1  0
 15 16  2  0
 16 17  1  0
 17 18  2  0
 18 19  1  0
 19 20  2  0
 18 21  1  0
 21 22  1  0
 21 23  2  0
  1 24  1  0
 24 25  2  0
 14  9  1  0
 20 15  1  0
  1 26  1  1
  2 27  1  0
  2 28  1  0
  4 29  1  0
  6 30  1  0
 10 31  1  0
 12 32  1  0
 14 33  1  0
 16 34  1  0
 17 35  1  0
 19 36  1  0
 20 37  1  0
 22 38  1  0
 24 39  1  0
M  END
$$$$
