@<TRIPOS>MOLECULE
*****
 21 21 0 0 0
SMALL
GASTEIGER

@<TRIPOS>ATOM
      1 C           3.3098   -0.1186    0.0542 C.3     1  UNL1       -0.0649
      2 C           1.8879   -0.5303   -0.3131 C.3     1  UNL1       -0.0506
      3 C           0.9589    0.4223    0.3818 C.3     1  UNL1       -0.0125
      4 C          -0.4570    0.1623    0.1308 C.ar    1  UNL1        0.0231
      5 C          -0.9640   -0.8565   -0.6674 C.ar    1  UNL1        0.0220
      6 C          -2.3365   -0.9519   -0.7909 C.ar    1  UNL1        0.2522
      7 O          -2.7540   -1.8901   -1.5241 O.2     1  UNL1       -0.2678
      8 N          -3.2087   -0.1226   -0.1883 N.ar    1  UNL1       -0.3028
      9 C          -2.6737    0.8614    0.5843 C.ar    1  UNL1        0.1581
     10 S          -3.7151    1.8796    1.3252 S.2     1  UNL1       -0.0130
     11 N          -1.3446    0.9938    0.7345 N.ar    1  UNL1       -0.3387
     12 H           4.0626   -0.7221   -0.4593 H       1  UNL1        0.0230
     13 H           3.4252    0.9167   -0.3295 H       1  UNL1        0.0230
     14 H           3.4605   -0.0592    1.1505 H       1  UNL1        0.0230
     15 H           1.7099   -1.5819   -0.0574 H       1  UNL1        0.0266
     16 H           1.8162   -0.3213   -1.4057 H       1  UNL1        0.0266
     17 H           1.1519    0.4126    1.4706 H       1  UNL1        0.0327
     18 H           1.1926    1.4492   -0.0063 H       1  UNL1        0.0327
     19 H          -0.2626   -1.5086   -1.1406 H       1  UNL1        0.0689
     20 H          -4.2446   -0.2089   -0.2924 H       1  UNL1        0.1708
     21 H          -1.0148    1.7739    1.3435 H       1  UNL1        0.1675
@<TRIPOS>BOND
     1     1     2    1
     2     2     3    1
     3     3     4    1
     4     4     5   ar
     5     5     6   ar
     6     6     7    2
     7     6     8   ar
     8     8     9   ar
     9     9    10    2
    10     9    11   ar
    11    11     4   ar
    12     1    12    1
    13     1    13    1
    14     1    14    1
    15     2    15    1
    16     2    16    1
    17     3    17    1
    18     3    18    1
    19     5    19    1
    20     8    20    1
    21    11    21    1
