
     RDKit          3D

 21 21  0  0  0  0  0  0  0  0999 V2000
    3.3098   -0.1186    0.0542 C   0  0  0  0  0  0  0  0  0  0  0  0
    1.8879   -0.5303   -0.3131 C   0  0  0  0  0  0  0  0  0  0  0  0
    0.9589    0.4223    0.3818 C   0  0  0  0  0  0  0  0  0  0  0  0
   -0.4570    0.1623    0.1308 C   0  0  0  0  0  0  0  0  0  0  0  0
   -0.9640   -0.8565   -0.6674 C   0  0  0  0  0  0  0  0  0  0  0  0
   -2.3365   -0.9519   -0.7909 C   0  0  0  0  0  0  0  0  0  0  0  0
   -2.7540   -1.8901   -1.5241 O   0  0  0  0  0  0  0  0  0  0  0  0
   -3.2087   -0.1226   -0.1883 N   0  0  0  0  0  0  0  0  0  0  0  0
   -2.6737    0.8614    0.5843 C   0  0  0  0  0  0  0  0  0  0  0  0
   -3.7151    1.8796    1.3252 S   0  0  0  0  0  0  0  0  0  0  0  0
   -1.3446    0.9938    0.7345 N   0  0  0  0  0  0  0  0  0  0  0  0
    4.0626   -0.7221   -0.4593 H   0  0  0  0  0  0  0  0  0  0  0  0
    3.4252    0.9167   -0.3295 H   0  0  0  0  0  0  0  0  0  0  0  0
    3.4605   -0.0592    1.1505 H   0  0  0  0  0  0  0  0  0  0  0  0
    1.7099   -1.5819   -0.0574 H   0  0  0  0  0  0  0  0  0  0  0  0
    1.8162   -0.3213   -1.4057 H   0  0  0  0  0  0  0  0  0  0  0  0
    1.1519    0.4126    1.4706 H   0  0  0  0  0  0  0  0  0  0  0  0
    1.1926    1.4492   -0.0063 H   0  0  0  0  0  0  0  0  0  0  0  0
   -0.2626   -1.5086   -1.1406 H   0  0  0  0  0  0  0  0  0  0  0  0
   -4.2446   -0.2089   -0.2924 H   0  0  0  0  0  0  0  0  0  0  0  0
   -1.0148    1.7739    1.3435 H   0  0  0  0  0  0  0  0  0  0  0  0
  1  2  1  0
  2  3  1  0
  3  4  1  0
  4  5  2  0
  5  6  1  0
  6  7  2  0
  6  8  1  0
  8  9  1  0
  9 10  2  0
  9 11  1  0
 11  4  1  0
  1 12  1  0
  1 13  1  0
  1 14  1  0
  2 15  1  0
  2 16  1  0
  3 17  1  0
  3 18  1  0
  5 19  1  0
  8 20  1  0
 11 21  1  0
M  END
$$$$
