
     RDKit          3D

 41 43  0  0  0  0  0  0  0  0999 V2000
    6.3295   -1.5282    0.5531 C   0  0  0  0  0  0  0  0  0  0  0  0
    5.1997   -0.7254    0.1427 N   0  0  0  0  0  0  0  0  0  0  0  0
    4.5001    0.1322    1.0661 C   0  0  0  0  0  0  0  0  0  0  0  0
    4.7763   -0.7886   -1.2010 C   0  0  0  0  0  0  0  0  0  0  0  0
    5.3518   -1.5130   -2.0226 O   0  0  0  0  0  0  0  0  0  0  0  0
    3.6666   -0.0070   -1.6265 N   0  0  0  0  0  0  0  0  0  0  0  0
    3.1955    0.0039   -2.8561 N   0  0  0  0  0  0  0  0  0  0  0  0
    2.1845    0.8152   -2.9193 N   0  0  0  0  0  0  0  0  0  0  0  0
    1.9995    1.3395   -1.7022 C   0  0  0  0  0  0  0  0  0  0  0  0
    0.9229    2.3309   -1.3526 C   0  0  0  0  0  0  0  0  0  0  0  0
   -0.2899    1.6063   -0.9180 C   0  0  0  0  0  0  0  0  0  0  0  0
   -1.2101    1.2726   -1.9067 C   0  0  0  0  0  0  0  0  0  0  0  0
   -2.3372    0.6015   -1.5164 C   0  0  0  0  0  0  0  0  0  0  0  0
   -2.6108    0.2403   -0.2121 C   0  0  0  0  0  0  0  0  0  0  0  0
   -3.8143   -0.4725    0.1817 C   0  0  0  0  0  0  0  0  0  0  0  0
   -4.2595   -1.5520   -0.5423 C   0  0  0  0  0  0  0  0  0  0  0  0
   -5.4170   -2.2467   -0.1733 C   0  0  0  0  0  0  0  0  0  0  0  0
   -6.1243   -1.8455    0.9327 C   0  0  0  0  0  0  0  0  0  0  0  0
   -5.6968   -0.7644    1.6754 C   0  0  0  0  0  0  0  0  0  0  0  0
   -4.5483   -0.1002    1.2825 C   0  0  0  0  0  0  0  0  0  0  0  0
   -4.1465    0.9800    2.0490 O   0  0  0  0  0  0  0  0  0  0  0  0
   -1.6756    0.5874    0.7440 C   0  0  0  0  0  0  0  0  0  0  0  0
   -0.5100    1.2704    0.4083 C   0  0  0  0  0  0  0  0  0  0  0  0
    2.9339    0.8152   -0.9067 N   0  0  0  0  0  0  0  0  0  0  0  0
    6.9651   -1.7587   -0.3136 H   0  0  0  0  0  0  0  0  0  0  0  0
    6.8748   -0.9361    1.3412 H   0  0  0  0  0  0  0  0  0  0  0  0
    5.9136   -2.4774    0.9938 H   0  0  0  0  0  0  0  0  0  0  0  0
    4.5456    1.2095    0.7880 H   0  0  0  0  0  0  0  0  0  0  0  0
    5.0325    0.0738    2.0452 H   0  0  0  0  0  0  0  0  0  0  0  0
    3.4337   -0.1875    1.1843 H   0  0  0  0  0  0  0  0  0  0  0  0
    0.7185    3.0021   -2.2292 H   0  0  0  0  0  0  0  0  0  0  0  0
    1.2759    2.9901   -0.5396 H   0  0  0  0  0  0  0  0  0  0  0  0
   -1.0189    1.5472   -2.9535 H   0  0  0  0  0  0  0  0  0  0  0  0
   -3.0752    0.3268   -2.2665 H   0  0  0  0  0  0  0  0  0  0  0  0
   -3.7404   -1.9100   -1.4218 H   0  0  0  0  0  0  0  0  0  0  0  0
   -5.7512   -3.0986   -0.7612 H   0  0  0  0  0  0  0  0  0  0  0  0
   -7.0133   -2.4043    1.1891 H   0  0  0  0  0  0  0  0  0  0  0  0
   -6.2788   -0.4755    2.5415 H   0  0  0  0  0  0  0  0  0  0  0  0
   -4.7292    1.7494    2.3065 H   0  0  0  0  0  0  0  0  0  0  0  0
   -1.8051    0.3464    1.7890 H   0  0  0  0  0  0  0  0  0  0  0  0
    0.2322    1.5507    1.1375 H   0  0  0  0  0  0  0  0  0  0  0  0
  1  2  1  0
  2  3  1  0
  2  4  1  0
  4  5  2  0
  4  6  1  0
  6  7  1  0
  7  8  2  0
  8  9  1  0
  9 10  1  0
 10 11  1  0
 11 12  2  0
 12 13  1  0
 13 14  2  0
 14 15  1  0
 15 16  2  0
 16 17  1  0
 17 18  2  0
 18 19  1  0
 19 20  2  0
 20 21  1  0
 14 22  1  0
 22 23  2  0
  9 24  2  0
 24  6  1  0
 23 11  1  0
 20 15  1  0
  1 25  1  0
  1 26  1  0
  1 27  1  0
  3 28  1  0
  3 29  1  0
  3 30  1  0
 10 31  1  0
 10 32  1  0
 12 33  1  0
 13 34  1  0
 16 35  1  0
 17 36  1  0
 18 37  1  0
 19 38  1  0
 21 39  1  0
 22 40  1  0
 23 41  1  0
M  END
$$$$
