@<TRIPOS>MOLECULE
*****
 41 43 0 0 0
SMALL
GASTEIGER

@<TRIPOS>ATOM
      1 C           6.3295   -1.5282    0.5531 C.3     1  UNL1        0.0046
      2 N           5.1997   -0.7254    0.1427 N.am    1  UNL1       -0.2869
      3 C           4.5001    0.1322    1.0661 C.3     1  UNL1        0.0046
      4 C           4.7763   -0.7886   -1.2010 C.2     1  UNL1        0.3553
      5 O           5.3518   -1.5130   -2.0226 O.2     1  UNL1       -0.2459
      6 N           3.6666   -0.0070   -1.6265 N.ar    1  UNL1       -0.0764
      7 N           3.1955    0.0039   -2.8561 N.ar    1  UNL1       -0.0369
      8 N           2.1845    0.8152   -2.9193 N.ar    1  UNL1       -0.1122
      9 C           1.9995    1.3395   -1.7022 C.ar    1  UNL1        0.1794
     10 C           0.9229    2.3309   -1.3526 C.3     1  UNL1        0.0361
     11 C          -0.2899    1.6063   -0.9180 C.ar    1  UNL1       -0.0399
     12 C          -1.2101    1.2726   -1.9067 C.ar    1  UNL1       -0.0576
     13 C          -2.3372    0.6015   -1.5164 C.ar    1  UNL1       -0.0536
     14 C          -2.6108    0.2403   -0.2121 C.ar    1  UNL1       -0.0144
     15 C          -3.8143   -0.4725    0.1817 C.ar    1  UNL1        0.0236
     16 C          -4.2595   -1.5520   -0.5423 C.ar    1  UNL1       -0.0505
     17 C          -5.4170   -2.2467   -0.1733 C.ar    1  UNL1       -0.0610
     18 C          -6.1243   -1.8455    0.9327 C.ar    1  UNL1       -0.0583
     19 C          -5.6968   -0.7644    1.6754 C.ar    1  UNL1       -0.0196
     20 C          -4.5483   -0.1002    1.2825 C.ar    1  UNL1        0.1245
     21 O          -4.1465    0.9800    2.0490 O.3     1  UNL1       -0.5062
     22 C          -1.6756    0.5874    0.7440 C.ar    1  UNL1       -0.0536
     23 C          -0.5100    1.2704    0.4083 C.ar    1  UNL1       -0.0576
     24 N           2.9339    0.8152   -0.9067 N.ar    1  UNL1       -0.1262
     25 H           6.9651   -1.7587   -0.3136 H       1  UNL1        0.0429
     26 H           6.8748   -0.9361    1.3412 H       1  UNL1        0.0429
     27 H           5.9136   -2.4774    0.9938 H       1  UNL1        0.0429
     28 H           4.5456    1.2095    0.7880 H       1  UNL1        0.0429
     29 H           5.0325    0.0738    2.0452 H       1  UNL1        0.0429
     30 H           3.4337   -0.1875    1.1843 H       1  UNL1        0.0429
     31 H           0.7185    3.0021   -2.2292 H       1  UNL1        0.0393
     32 H           1.2759    2.9901   -0.5396 H       1  UNL1        0.0393
     33 H          -1.0189    1.5472   -2.9535 H       1  UNL1        0.0621
     34 H          -3.0752    0.3268   -2.2665 H       1  UNL1        0.0624
     35 H          -3.7404   -1.9100   -1.4218 H       1  UNL1        0.0625
     36 H          -5.7512   -3.0986   -0.7612 H       1  UNL1        0.0618
     37 H          -7.0133   -2.4043    1.1891 H       1  UNL1        0.0619
     38 H          -6.2788   -0.4755    2.5415 H       1  UNL1        0.0654
     39 H          -4.7292    1.7494    2.3065 H       1  UNL1        0.2922
     40 H          -1.8051    0.3464    1.7890 H       1  UNL1        0.0624
     41 H           0.2322    1.5507    1.1375 H       1  UNL1        0.0621
@<TRIPOS>BOND
     1     1     2    1
     2     2     3    1
     3     2     4   am
     4     4     5    2
     5     4     6   am
     6     6     7   ar
     7     7     8   ar
     8     8     9   ar
     9     9    10    1
    10    10    11    1
    11    11    12   ar
    12    12    13   ar
    13    13    14   ar
    14    14    15    1
    15    15    16   ar
    16    16    17   ar
    17    17    18   ar
    18    18    19   ar
    19    19    20   ar
    20    20    21    1
    21    14    22   ar
    22    22    23   ar
    23     9    24   ar
    24    24     6   ar
    25    23    11   ar
    26    20    15   ar
    27     1    25    1
    28     1    26    1
    29     1    27    1
    30     3    28    1
    31     3    29    1
    32     3    30    1
    33    10    31    1
    34    10    32    1
    35    12    33    1
    36    13    34    1
    37    16    35    1
    38    17    36    1
    39    18    37    1
    40    19    38    1
    41    21    39    1
    42    22    40    1
    43    23    41    1
