
     RDKit          3D

 54 58  0  0  0  0  0  0  0  0999 V2000
   -2.0720    1.5576   -0.5907 C   0  0  0  0  0  0  0  0  0  0  0  0
   -1.3155    0.2233   -0.5022 C   0  0  2  0  0  0  0  0  0  0  0  0
    0.0498    0.5793   -0.0674 C   0  0  0  0  0  0  0  0  0  0  0  0
    1.2287    0.3474   -0.6858 C   0  0  0  0  0  0  0  0  0  0  0  0
    2.4596    0.8243   -0.3665 C   0  0  0  0  0  0  0  0  0  0  0  0
    3.7359    0.5297   -1.0000 C   0  0  0  0  0  0  0  0  0  0  0  0
    4.8888    0.7410   -0.4511 C   0  0  0  0  0  0  0  0  0  0  0  0
    4.7723    1.2622    0.8598 F   0  0  0  0  0  0  0  0  0  0  0  0
    6.2451    0.5846   -0.9021 C   0  0  0  0  0  0  0  0  0  0  0  0
    6.7888   -0.1472   -1.8829 C   0  0  0  0  0  0  0  0  0  0  0  0
    8.0420   -0.1385   -2.3709 C   0  0  0  0  0  0  0  0  0  0  0  0
    8.9167    0.8541   -1.7002 C   0  0  0  0  0  0  0  0  0  0  0  0
   10.1137    0.8915   -2.4447 C   0  0  0  0  0  0  0  0  0  0  0  0
   11.3049    0.9101   -3.1838 N   0  0  0  0  0  0  0  0  0  0  0  0
    8.4445    1.5518   -0.7665 C   0  0  0  0  0  0  0  0  0  0  0  0
    7.1413    1.5219   -0.2674 N   0  0  0  0  0  0  0  0  0  0  0  0
    2.4926    1.6708    0.7594 C   0  0  0  0  0  0  0  0  0  0  0  0
    1.3440    1.9515    1.4627 C   0  0  0  0  0  0  0  0  0  0  0  0
    0.1586    1.4301    1.0817 C   0  0  0  0  0  0  0  0  0  0  0  0
   -0.9868    1.6907    1.7691 F   0  0  0  0  0  0  0  0  0  0  0  0
   -1.4375   -0.4407   -1.7512 N   0  0  0  0  0  0  0  0  0  0  0  0
   -2.6577   -0.5548   -2.2005 C   0  0  0  0  0  0  0  0  0  0  0  0
   -2.9851   -1.1360   -3.3985 N   0  0  0  0  0  0  0  0  0  0  0  0
   -3.9512   -0.0433   -1.0367 S   0  0  0  0  0  0  0  0  0  0  0  0
   -3.3321   -0.7974    0.5664 C   0  0  1  0  0  0  0  0  0  0  0  0
   -4.2687   -0.8377    1.7087 C   0  0  0  0  0  0  0  0  0  0  0  0
   -3.9679   -0.1391    2.7473 O   0  0  0  0  0  0  0  0  0  0  0  0
   -5.4778   -1.5798    1.7367 N   0  0  0  0  0  0  0  0  0  0  0  0
   -6.3908   -1.5609    2.8208 C   0  0  0  0  0  0  0  0  0  0  0  0
   -7.6632   -0.6980    2.4393 C   0  0  0  0  0  0  0  0  0  0  0  0
   -7.7600   -2.1302    2.7288 C   0  0  0  0  0  0  0  0  0  0  0  0
   -2.5070   -2.0054    0.2770 C   0  0  0  0  0  0  0  0  0  0  0  0
   -1.8931   -0.6259    0.6682 C   0  0  1  0  0  0  0  0  0  0  0  0
   -1.3253    2.4212   -0.4454 H   0  0  0  0  0  0  0  0  0  0  0  0
   -2.5023    1.7805   -1.5717 H   0  0  0  0  0  0  0  0  0  0  0  0
   -2.7833    1.6703    0.2080 H   0  0  0  0  0  0  0  0  0  0  0  0
    1.1611   -0.3270   -1.5779 H   0  0  0  0  0  0  0  0  0  0  0  0
    3.7258    0.0778   -1.9798 H   0  0  0  0  0  0  0  0  0  0  0  0
    6.0687   -0.8623   -2.3894 H   0  0  0  0  0  0  0  0  0  0  0  0
    8.4061   -0.7749   -3.1277 H   0  0  0  0  0  0  0  0  0  0  0  0
    9.1200    2.3019   -0.2310 H   0  0  0  0  0  0  0  0  0  0  0  0
    3.4183    2.2043    0.9899 H   0  0  0  0  0  0  0  0  0  0  0  0
    1.4388    2.6218    2.3259 H   0  0  0  0  0  0  0  0  0  0  0  0
   -2.4142   -1.2118   -4.2874 H   0  0  0  0  0  0  0  0  0  0  0  0
   -3.9776   -1.5614   -3.4641 H   0  0  0  0  0  0  0  0  0  0  0  0
   -5.7315   -2.2031    0.8805 H   0  0  0  0  0  0  0  0  0  0  0  0
   -6.0184   -1.2864    3.8440 H   0  0  0  0  0  0  0  0  0  0  0  0
   -7.6806   -0.3613    1.3724 H   0  0  0  0  0  0  0  0  0  0  0  0
   -7.8991    0.1112    3.1602 H   0  0  0  0  0  0  0  0  0  0  0  0
   -7.9822   -2.8699    1.9492 H   0  0  0  0  0  0  0  0  0  0  0  0
   -8.3002   -2.3360    3.7077 H   0  0  0  0  0  0  0  0  0  0  0  0
   -2.3160   -2.2545   -0.8034 H   0  0  0  0  0  0  0  0  0  0  0  0
   -2.5139   -2.8191    0.9743 H   0  0  0  0  0  0  0  0  0  0  0  0
   -1.3551   -0.6086    1.5966 H   0  0  0  0  0  0  0  0  0  0  0  0
  2  1  1  6
  2  3  1  0
  3  4  2  0
  4  5  1  0
  5  6  1  0
  6  7  2  0
  7  8  1  0
  7  9  1  0
  9 10  2  0
 10 11  1  0
 11 12  2  0
 12 13  1  0
 13 14  3  0
 12 15  1  0
 15 16  2  0
  5 17  2  0
 17 18  1  0
 18 19  2  0
 19 20  1  0
  2 21  1  0
 21 22  2  0
 22 23  1  0
 22 24  1  0
 24 25  1  0
 25 26  1  1
 26 27  2  0
 26 28  1  0
 28 29  1  0
 29 30  1  0
 30 31  1  0
 25 32  1  0
 32 33  1  0
 33  2  1  0
 19  3  1  0
 33 25  1  0
 16  9  1  0
 31 29  1  0
  1 34  1  0
  1 35  1  0
  1 36  1  0
  4 37  1  0
  6 38  1  0
 10 39  1  0
 11 40  1  0
 15 41  1  0
 17 42  1  0
 18 43  1  0
 23 44  1  0
 23 45  1  0
 28 46  1  0
 29 47  1  0
 30 48  1  0
 30 49  1  0
 31 50  1  0
 31 51  1  0
 32 52  1  0
 32 53  1  0
 33 54  1  1
M  END
$$$$
