@<TRIPOS>MOLECULE
*****
 54 58 0 0 0
SMALL
GASTEIGER

@<TRIPOS>ATOM
      1 C          -2.0720    1.5576   -0.5907 C.3     1  UNL1       -0.0351
      2 C          -1.3155    0.2233   -0.5022 C.3     1  UNL1        0.0935
      3 C           0.0498    0.5793   -0.0674 C.ar    1  UNL1        0.0158
      4 C           1.2287    0.3474   -0.6858 C.ar    1  UNL1       -0.0463
      5 C           2.4596    0.8243   -0.3665 C.ar    1  UNL1       -0.0217
      6 C           3.7359    0.5297   -1.0000 C.2     1  UNL1       -0.0172
      7 C           4.8888    0.7410   -0.4511 C.2     1  UNL1        0.1492
      8 F           4.7723    1.2622    0.8598 F       1  UNL1       -0.2032
      9 C           6.2451    0.5846   -0.9021 C.ar    1  UNL1        0.0990
     10 C           6.7888   -0.1472   -1.8829 C.ar    1  UNL1       -0.0322
     11 C           8.0420   -0.1385   -2.3709 C.ar    1  UNL1       -0.0408
     12 C           8.9167    0.8541   -1.7002 C.ar    1  UNL1        0.0699
     13 C          10.1137    0.8915   -2.4447 C.1     1  UNL1        0.1007
     14 N          11.3049    0.9101   -3.1838 N.1     1  UNL1       -0.1908
     15 C           8.4445    1.5518   -0.7665 C.ar    1  UNL1        0.0457
     16 N           7.1413    1.5219   -0.2674 N.ar    1  UNL1       -0.2514
     17 C           2.4926    1.6708    0.7594 C.ar    1  UNL1       -0.0518
     18 C           1.3440    1.9515    1.4627 C.ar    1  UNL1       -0.0255
     19 C           0.1586    1.4301    1.0817 C.ar    1  UNL1        0.1289
     20 F          -0.9868    1.6907    1.7691 F       1  UNL1       -0.2051
     21 N          -1.4375   -0.4407   -1.7512 N.2     1  UNL1       -0.2521
     22 C          -2.6577   -0.5548   -2.2005 C.2     1  UNL1        0.1485
     23 N          -2.9851   -1.1360   -3.3985 N.pl3   1  UNL1       -0.3380
     24 S          -3.9512   -0.0433   -1.0367 S.3     1  UNL1       -0.0746
     25 C          -3.3321   -0.7974    0.5664 C.3     1  UNL1        0.1052
     26 C          -4.2687   -0.8377    1.7087 C.2     1  UNL1        0.2301
     27 O          -3.9679   -0.1391    2.7473 O.2     1  UNL1       -0.2743
     28 N          -5.4778   -1.5798    1.7367 N.am    1  UNL1       -0.3113
     29 C          -6.3908   -1.5609    2.8208 C.3     1  UNL1        0.0233
     30 C          -7.6632   -0.6980    2.4393 C.3     1  UNL1       -0.0328
     31 C          -7.7600   -2.1302    2.7288 C.3     1  UNL1       -0.0328
     32 C          -2.5070   -2.0054    0.2770 C.3     1  UNL1       -0.0220
     33 C          -1.8931   -0.6259    0.6682 C.3     1  UNL1        0.0134
     34 H          -1.3253    2.4212   -0.4454 H       1  UNL1        0.0256
     35 H          -2.5023    1.7805   -1.5717 H       1  UNL1        0.0256
     36 H          -2.7833    1.6703    0.2080 H       1  UNL1        0.0256
     37 H           1.1611   -0.3270   -1.5779 H       1  UNL1        0.0628
     38 H           3.7258    0.0778   -1.9798 H       1  UNL1        0.0653
     39 H           6.0687   -0.8623   -2.3894 H       1  UNL1        0.0640
     40 H           8.4061   -0.7749   -3.1277 H       1  UNL1        0.0631
     41 H           9.1200    2.3019   -0.2310 H       1  UNL1        0.0843
     42 H           3.4183    2.2043    0.9899 H       1  UNL1        0.0624
     43 H           1.4388    2.6218    2.3259 H       1  UNL1        0.0646
     44 H          -2.4142   -1.2118   -4.2874 H       1  UNL1        0.1442
     45 H          -3.9776   -1.5614   -3.4641 H       1  UNL1        0.1442
     46 H          -5.7315   -2.2031    0.8805 H       1  UNL1        0.1490
     47 H          -6.0184   -1.2864    3.8440 H       1  UNL1        0.0498
     48 H          -7.6806   -0.3613    1.3724 H       1  UNL1        0.0284
     49 H          -7.8991    0.1112    3.1602 H       1  UNL1        0.0284
     50 H          -7.9822   -2.8699    1.9492 H       1  UNL1        0.0284
     51 H          -8.3002   -2.3360    3.7077 H       1  UNL1        0.0284
     52 H          -2.3160   -2.2545   -0.8034 H       1  UNL1        0.0287
     53 H          -2.5139   -2.8191    0.9743 H       1  UNL1        0.0287
     54 H          -1.3551   -0.6086    1.5966 H       1  UNL1        0.0346
@<TRIPOS>BOND
     1     2     1    1
     2     2     3    1
     3     3     4   ar
     4     4     5   ar
     5     5     6    1
     6     6     7    2
     7     7     8    1
     8     7     9    1
     9     9    10   ar
    10    10    11   ar
    11    11    12   ar
    12    12    13    1
    13    13    14    3
    14    12    15   ar
    15    15    16   ar
    16     5    17   ar
    17    17    18   ar
    18    18    19   ar
    19    19    20    1
    20     2    21    1
    21    21    22    2
    22    22    23    1
    23    22    24    1
    24    24    25    1
    25    25    26    1
    26    26    27    2
    27    26    28   am
    28    28    29    1
    29    29    30    1
    30    30    31    1
    31    25    32    1
    32    32    33    1
    33    33     2    1
    34    19     3   ar
    35    33    25    1
    36    16     9   ar
    37    31    29    1
    38     1    34    1
    39     1    35    1
    40     1    36    1
    41     4    37    1
    42     6    38    1
    43    10    39    1
    44    11    40    1
    45    15    41    1
    46    17    42    1
    47    18    43    1
    48    23    44    1
    49    23    45    1
    50    28    46    1
    51    29    47    1
    52    30    48    1
    53    30    49    1
    54    31    50    1
    55    31    51    1
    56    32    52    1
    57    32    53    1
    58    33    54    1
