@<TRIPOS>MOLECULE
*****
 31 32 0 0 0
SMALL
GASTEIGER

@<TRIPOS>ATOM
      1 C           1.8732   -2.0485   -0.2151 C.3     1  UNL1       -0.0486
      2 C           0.8111   -0.9832   -0.5377 C.3     1  UNL1        0.0543
      3 C           0.6090   -1.0840   -2.0323 C.3     1  UNL1       -0.0486
      4 C          -0.4085   -1.3674    0.1834 C.2     1  UNL1        0.1745
      5 O          -0.4878   -2.4537    0.8573 O.2     1  UNL1       -0.2911
      6 C          -1.6210   -0.5930    0.2172 C.ar    1  UNL1        0.0363
      7 C          -2.7323   -1.0306    0.9193 C.ar    1  UNL1        0.0380
      8 N          -3.8993   -0.3183    0.9729 N.ar    1  UNL1       -0.2626
      9 C          -4.0489    0.8608    0.3449 C.ar    1  UNL1        0.0276
     10 C          -2.9655    1.3580   -0.3807 C.ar    1  UNL1       -0.0429
     11 C          -1.8050    0.6196   -0.4164 C.ar    1  UNL1       -0.0483
     12 C           1.3704    0.3130   -0.0941 C.ar    1  UNL1       -0.0162
     13 C           1.3823    0.4011    1.3045 C.ar    1  UNL1       -0.0548
     14 C           1.8763    1.5532    1.9175 C.ar    1  UNL1       -0.0433
     15 C           2.3448    2.5871    1.1505 C.ar    1  UNL1        0.0276
     16 N           2.3163    2.4643   -0.1729 N.ar    1  UNL1       -0.2630
     17 C           1.8591    1.3940   -0.8345 C.ar    1  UNL1        0.0317
     18 H           1.9068   -2.2637    0.8567 H       1  UNL1        0.0242
     19 H           1.5320   -2.9748   -0.7427 H       1  UNL1        0.0242
     20 H           2.8307   -1.7641   -0.6703 H       1  UNL1        0.0242
     21 H           0.3919   -0.1192   -2.5270 H       1  UNL1        0.0242
     22 H           1.4439   -1.6125   -2.5366 H       1  UNL1        0.0242
     23 H          -0.2801   -1.7609   -2.1825 H       1  UNL1        0.0242
     24 H          -2.7418   -1.9644    1.4681 H       1  UNL1        0.0836
     25 H          -4.9739    1.4101    0.3963 H       1  UNL1        0.0829
     26 H          -3.0526    2.3107   -0.9016 H       1  UNL1        0.0633
     27 H          -1.0120    1.0413   -0.9802 H       1  UNL1        0.0625
     28 H           1.0383   -0.3521    2.0009 H       1  UNL1        0.0621
     29 H           1.9030    1.6614    2.9998 H       1  UNL1        0.0633
     30 H           2.7429    3.5098    1.5115 H       1  UNL1        0.0829
     31 H           1.7968    1.2061   -1.8761 H       1  UNL1        0.0832
@<TRIPOS>BOND
     1     1     2    1
     2     2     3    1
     3     2     4    1
     4     4     5    2
     5     4     6    1
     6     6     7   ar
     7     7     8   ar
     8     8     9   ar
     9     9    10   ar
    10    10    11   ar
    11     2    12    1
    12    12    13   ar
    13    13    14   ar
    14    14    15   ar
    15    15    16   ar
    16    16    17   ar
    17    11     6   ar
    18    17    12   ar
    19     1    18    1
    20     1    19    1
    21     1    20    1
    22     3    21    1
    23     3    22    1
    24     3    23    1
    25     7    24    1
    26     9    25    1
    27    10    26    1
    28    11    27    1
    29    13    28    1
    30    14    29    1
    31    15    30    1
    32    17    31    1
