
     RDKit          3D

 60 63  0  0  0  0  0  0  0  0999 V2000
    5.4895    4.2887   -0.1588 C   0  0  0  0  0  0  0  0  0  0  0  0
    5.7408    2.9661   -0.7031 N   0  0  0  0  0  0  0  0  0  0  0  0
    6.0079    1.8685    0.1425 C   0  0  0  0  0  0  0  0  0  0  0  0
    7.2021    1.9487    0.8139 N   0  0  0  0  0  0  0  0  0  0  0  0
    7.5786    0.9770    1.6617 C   0  0  0  0  0  0  0  0  0  0  0  0
    6.7276   -0.0420    1.7979 N   0  0  0  0  0  0  0  0  0  0  0  0
    5.5495   -0.1691    1.1665 C   0  0  0  0  0  0  0  0  0  0  0  0
    4.7358   -1.3461    1.4559 C   0  0  0  0  0  0  0  0  0  0  0  0
    5.1685   -2.1875    2.4981 C   0  0  0  0  0  0  0  0  0  0  0  0
    4.4198   -3.3068    2.7822 C   0  0  0  0  0  0  0  0  0  0  0  0
    3.2860   -3.5592    2.0436 C   0  0  0  0  0  0  0  0  0  0  0  0
    2.9035   -2.7325    1.0543 N   0  0  0  0  0  0  0  0  0  0  0  0
    3.6186   -1.6112    0.7406 C   0  0  0  0  0  0  0  0  0  0  0  0
    3.2032   -0.7758   -0.2928 O   0  0  0  0  0  0  0  0  0  0  0  0
    2.0209   -1.1460   -0.9315 C   0  0  0  0  0  0  0  0  0  0  0  0
    0.8444   -0.4344   -0.8909 C   0  0  0  0  0  0  0  0  0  0  0  0
   -0.2951   -0.8384   -1.5299 C   0  0  0  0  0  0  0  0  0  0  0  0
   -1.4958   -0.0665   -1.4966 N   0  0  0  0  0  0  0  0  0  0  0  0
   -2.4772   -0.1687   -0.5156 C   0  0  0  0  0  0  0  0  0  0  0  0
   -2.2809   -1.0045    0.4319 O   0  0  0  0  0  0  0  0  0  0  0  0
   -3.7305    0.5988   -0.4677 C   0  0  0  0  0  0  0  0  0  0  0  0
   -4.0032    1.4815   -1.4888 C   0  0  0  0  0  0  0  0  0  0  0  0
   -5.1901    2.2059   -1.4711 C   0  0  0  0  0  0  0  0  0  0  0  0
   -6.0646    2.0183   -0.4269 C   0  0  0  0  0  0  0  0  0  0  0  0
   -5.7837    1.1431    0.5771 C   0  0  0  0  0  0  0  0  0  0  0  0
   -6.7633    0.9689    1.6889 C   0  0  0  0  0  0  0  0  0  0  0  0
   -7.0672    2.3454    2.2499 C   0  0  0  0  0  0  0  0  0  0  0  0
   -8.0643    0.4341    1.1002 C   0  0  0  0  0  0  0  0  0  0  0  0
   -4.6232    0.4310    0.5670 C   0  0  0  0  0  0  0  0  0  0  0  0
   -0.2326   -2.0279   -2.2461 C   0  0  0  0  0  0  0  0  0  0  0  0
    0.9135   -2.7843   -2.3268 C   0  0  0  0  0  0  0  0  0  0  0  0
    0.9012   -4.0613   -3.1094 C   0  0  0  0  0  0  0  0  0  0  0  0
    1.7704   -4.9088   -2.4286 F   0  0  0  0  0  0  0  0  0  0  0  0
   -0.3693   -4.6045   -3.0262 F   0  0  0  0  0  0  0  0  0  0  0  0
    1.2690   -3.8848   -4.4071 F   0  0  0  0  0  0  0  0  0  0  0  0
    2.0300   -2.3349   -1.6673 C   0  0  0  0  0  0  0  0  0  0  0  0
    5.1853    0.8117    0.3183 N   0  0  0  0  0  0  0  0  0  0  0  0
    5.0518    4.2807    0.8546 H   0  0  0  0  0  0  0  0  0  0  0  0
    6.4441    4.8907   -0.1556 H   0  0  0  0  0  0  0  0  0  0  0  0
    4.7896    4.7995   -0.8503 H   0  0  0  0  0  0  0  0  0  0  0  0
    5.7193    2.8356   -1.7297 H   0  0  0  0  0  0  0  0  0  0  0  0
    8.4984    0.9769    2.2155 H   0  0  0  0  0  0  0  0  0  0  0  0
    6.0575   -1.9579    3.0541 H   0  0  0  0  0  0  0  0  0  0  0  0
    4.7354   -3.9813    3.5910 H   0  0  0  0  0  0  0  0  0  0  0  0
    2.7359   -4.4675    2.3197 H   0  0  0  0  0  0  0  0  0  0  0  0
    0.8757    0.4937   -0.2999 H   0  0  0  0  0  0  0  0  0  0  0  0
   -1.6545    0.6398   -2.2780 H   0  0  0  0  0  0  0  0  0  0  0  0
   -3.3323    1.6482   -2.3207 H   0  0  0  0  0  0  0  0  0  0  0  0
   -5.4298    2.9146   -2.2742 H   0  0  0  0  0  0  0  0  0  0  0  0
   -6.9817    2.6095   -0.4706 H   0  0  0  0  0  0  0  0  0  0  0  0
   -6.3784    0.2579    2.4308 H   0  0  0  0  0  0  0  0  0  0  0  0
   -7.5365    2.9286    1.4348 H   0  0  0  0  0  0  0  0  0  0  0  0
   -7.8027    2.3101    3.0811 H   0  0  0  0  0  0  0  0  0  0  0  0
   -6.1230    2.8560    2.5961 H   0  0  0  0  0  0  0  0  0  0  0  0
   -7.9389   -0.5737    0.6533 H   0  0  0  0  0  0  0  0  0  0  0  0
   -8.8126    0.4179    1.9091 H   0  0  0  0  0  0  0  0  0  0  0  0
   -8.4347    1.1316    0.3118 H   0  0  0  0  0  0  0  0  0  0  0  0
   -4.3767   -0.2711    1.3540 H   0  0  0  0  0  0  0  0  0  0  0  0
   -1.1745   -2.3069   -2.7374 H   0  0  0  0  0  0  0  0  0  0  0  0
    2.9430   -2.9256   -1.7221 H   0  0  0  0  0  0  0  0  0  0  0  0
  1  2  1  0
  2  3  1  0
  3  4  2  0
  4  5  1  0
  5  6  2  0
  6  7  1  0
  7  8  1  0
  8  9  2  0
  9 10  1  0
 10 11  2  0
 11 12  1  0
 12 13  2  0
 13 14  1  0
 14 15  1  0
 15 16  2  0
 16 17  1  0
 17 18  1  0
 18 19  1  0
 19 20  2  0
 19 21  1  0
 21 22  2  0
 22 23  1  0
 23 24  2  0
 24 25  1  0
 25 26  1  0
 26 27  1  0
 26 28  1  0
 25 29  2  0
 17 30  2  0
 30 31  1  0
 31 32  1  0
 32 33  1  0
 32 34  1  0
 32 35  1  0
 31 36  2  0
  7 37  2  0
 37  3  1  0
 13  8  1  0
 36 15  1  0
 29 21  1  0
  1 38  1  0
  1 39  1  0
  1 40  1  0
  2 41  1  0
  5 42  1  0
  9 43  1  0
 10 44  1  0
 11 45  1  0
 16 46  1  0
 18 47  1  0
 22 48  1  0
 23 49  1  0
 24 50  1  0
 26 51  1  0
 27 52  1  0
 27 53  1  0
 27 54  1  0
 28 55  1  0
 28 56  1  0
 28 57  1  0
 29 58  1  0
 30 59  1  0
 36 60  1  0
M  END
$$$$
