@<TRIPOS>MOLECULE
*****
 60 63 0 0 0
SMALL
GASTEIGER

@<TRIPOS>ATOM
      1 C           5.4895    4.2887   -0.1588 C.3     1  UNL1        0.0003
      2 N           5.7408    2.9661   -0.7031 N.pl3   1  UNL1       -0.3164
      3 C           6.0079    1.8685    0.1425 C.ar    1  UNL1        0.2183
      4 N           7.2021    1.9487    0.8139 N.ar    1  UNL1       -0.2030
      5 C           7.5786    0.9770    1.6617 C.ar    1  UNL1        0.1219
      6 N           6.7276   -0.0420    1.7979 N.ar    1  UNL1       -0.2157
      7 C           5.5495   -0.1691    1.1665 C.ar    1  UNL1        0.1700
      8 C           4.7358   -1.3461    1.4559 C.ar    1  UNL1        0.0811
      9 C           5.1685   -2.1875    2.4981 C.ar    1  UNL1       -0.0445
     10 C           4.4198   -3.3068    2.7822 C.ar    1  UNL1       -0.0427
     11 C           3.2860   -3.5592    2.0436 C.ar    1  UNL1        0.0314
     12 N           2.9035   -2.7325    1.0543 N.ar    1  UNL1       -0.2204
     13 C           3.6186   -1.6112    0.7406 C.ar    1  UNL1        0.2312
     14 O           3.2032   -0.7758   -0.2928 O.3     1  UNL1       -0.4372
     15 C           2.0209   -1.1460   -0.9315 C.ar    1  UNL1        0.1327
     16 C           0.8444   -0.4344   -0.8909 C.ar    1  UNL1        0.0020
     17 C          -0.2951   -0.8384   -1.5299 C.ar    1  UNL1        0.0377
     18 N          -1.4958   -0.0665   -1.4966 N.am    1  UNL1       -0.2814
     19 C          -2.4772   -0.1687   -0.5156 C.2     1  UNL1        0.2483
     20 O          -2.2809   -1.0045    0.4319 O.2     1  UNL1       -0.2699
     21 C          -3.7305    0.5988   -0.4677 C.ar    1  UNL1        0.0373
     22 C          -4.0032    1.4815   -1.4888 C.ar    1  UNL1       -0.0496
     23 C          -5.1901    2.2059   -1.4711 C.ar    1  UNL1       -0.0608
     24 C          -6.0646    2.0183   -0.4269 C.ar    1  UNL1       -0.0583
     25 C          -5.7837    1.1431    0.5771 C.ar    1  UNL1       -0.0441
     26 C          -6.7633    0.9689    1.6889 C.3     1  UNL1       -0.0215
     27 C          -7.0672    2.3454    2.2499 C.3     1  UNL1       -0.0586
     28 C          -8.0643    0.4341    1.1002 C.3     1  UNL1       -0.0586
     29 C          -4.6232    0.4310    0.5670 C.ar    1  UNL1       -0.0462
     30 C          -0.2326   -2.0279   -2.2461 C.ar    1  UNL1       -0.0286
     31 C           0.9135   -2.7843   -2.3268 C.ar    1  UNL1        0.0600
     32 C           0.9012   -4.0613   -3.1094 C.3     1  UNL1        0.4176
     33 F           1.7704   -4.9088   -2.4286 F       1  UNL1       -0.1659
     34 F          -0.3693   -4.6045   -3.0262 F       1  UNL1       -0.1659
     35 F           1.2690   -3.8848   -4.4071 F       1  UNL1       -0.1659
     36 C           2.0300   -2.3349   -1.6673 C.ar    1  UNL1       -0.0075
     37 N           5.1853    0.8117    0.3183 N.ar    1  UNL1       -0.1946
     38 H           5.0518    4.2807    0.8546 H       1  UNL1        0.0426
     39 H           6.4441    4.8907   -0.1556 H       1  UNL1        0.0426
     40 H           4.7896    4.7995   -0.8503 H       1  UNL1        0.0426
     41 H           5.7193    2.8356   -1.7297 H       1  UNL1        0.1486
     42 H           8.4984    0.9769    2.2155 H       1  UNL1        0.1049
     43 H           6.0575   -1.9579    3.0541 H       1  UNL1        0.0627
     44 H           4.7354   -3.9813    3.5910 H       1  UNL1        0.0633
     45 H           2.7359   -4.4675    2.3197 H       1  UNL1        0.0831
     46 H           0.8757    0.4937   -0.2999 H       1  UNL1        0.0673
     47 H          -1.6545    0.6398   -2.2780 H       1  UNL1        0.1551
     48 H          -3.3323    1.6482   -2.3207 H       1  UNL1        0.0625
     49 H          -5.4298    2.9146   -2.2742 H       1  UNL1        0.0618
     50 H          -6.9817    2.6095   -0.4706 H       1  UNL1        0.0620
     51 H          -6.3784    0.2579    2.4308 H       1  UNL1        0.0343
     52 H          -7.5365    2.9286    1.4348 H       1  UNL1        0.0235
     53 H          -7.8027    2.3101    3.0811 H       1  UNL1        0.0235
     54 H          -6.1230    2.8560    2.5961 H       1  UNL1        0.0235
     55 H          -7.9389   -0.5737    0.6533 H       1  UNL1        0.0235
     56 H          -8.8126    0.4179    1.9091 H       1  UNL1        0.0235
     57 H          -8.4347    1.1316    0.3118 H       1  UNL1        0.0235
     58 H          -4.3767   -0.2711    1.3540 H       1  UNL1        0.0628
     59 H          -1.1745   -2.3069   -2.7374 H       1  UNL1        0.0642
     60 H           2.9430   -2.9256   -1.7221 H       1  UNL1        0.0660
@<TRIPOS>BOND
     1     1     2    1
     2     2     3    1
     3     3     4   ar
     4     4     5   ar
     5     5     6   ar
     6     6     7   ar
     7     7     8    1
     8     8     9   ar
     9     9    10   ar
    10    10    11   ar
    11    11    12   ar
    12    12    13   ar
    13    13    14    1
    14    14    15    1
    15    15    16   ar
    16    16    17   ar
    17    17    18    1
    18    18    19   am
    19    19    20    2
    20    19    21    1
    21    21    22   ar
    22    22    23   ar
    23    23    24   ar
    24    24    25   ar
    25    25    26    1
    26    26    27    1
    27    26    28    1
    28    25    29   ar
    29    17    30   ar
    30    30    31   ar
    31    31    32    1
    32    32    33    1
    33    32    34    1
    34    32    35    1
    35    31    36   ar
    36     7    37   ar
    37    37     3   ar
    38    13     8   ar
    39    36    15   ar
    40    29    21   ar
    41     1    38    1
    42     1    39    1
    43     1    40    1
    44     2    41    1
    45     5    42    1
    46     9    43    1
    47    10    44    1
    48    11    45    1
    49    16    46    1
    50    18    47    1
    51    22    48    1
    52    23    49    1
    53    24    50    1
    54    26    51    1
    55    27    52    1
    56    27    53    1
    57    27    54    1
    58    28    55    1
    59    28    56    1
    60    28    57    1
    61    29    58    1
    62    30    59    1
    63    36    60    1
