
     RDKit          3D

 45 46  0  0  0  0  0  0  0  0999 V2000
    7.6767   -0.5173   -0.5682 C   0  0  0  0  0  0  0  0  0  0  0  0
    6.4839    0.4267   -0.4318 C   0  0  0  0  0  0  0  0  0  0  0  0
    5.2163   -0.2802   -0.7703 C   0  0  0  0  0  0  0  0  0  0  0  0
    4.0431    0.6386   -0.6510 C   0  0  0  0  0  0  0  0  0  0  0  0
    3.9433    1.1527    0.7632 C   0  0  0  0  0  0  0  0  0  0  0  0
    2.7916    2.0300    0.8790 N   0  0  0  0  0  0  0  0  0  0  0  0
    1.4379    1.5415    0.7841 C   0  0  0  0  0  0  0  0  0  0  0  0
    1.2161    0.2791    0.9170 N   0  0  0  0  0  0  0  0  0  0  0  0
    0.3055    2.3986    0.5486 N   0  0  0  0  0  0  0  0  0  0  0  0
   -0.9181    1.9183    1.0236 N   0  0  0  0  0  0  0  0  0  0  0  0
   -1.7267    1.1725    0.3923 C   0  0  0  0  0  0  0  0  0  0  0  0
   -2.9791    0.7348    1.0001 C   0  0  0  0  0  0  0  0  0  0  0  0
   -3.3844    1.0887    2.2885 C   0  0  0  0  0  0  0  0  0  0  0  0
   -4.5870    0.4870    2.4791 N   0  0  0  0  0  0  0  0  0  0  0  0
   -4.9035   -0.1998    1.3667 C   0  0  0  0  0  0  0  0  0  0  0  0
   -3.9297   -0.0854    0.3925 C   0  0  0  0  0  0  0  0  0  0  0  0
   -4.0405   -0.7014   -0.8221 C   0  0  0  0  0  0  0  0  0  0  0  0
   -5.1466   -1.4813   -1.1442 C   0  0  0  0  0  0  0  0  0  0  0  0
   -5.2131   -2.0809   -2.3787 O   0  0  0  0  0  0  0  0  0  0  0  0
   -6.3706   -2.8714   -2.6603 C   0  0  0  0  0  0  0  0  0  0  0  0
   -6.0869   -1.5684   -0.1526 C   0  0  0  0  0  0  0  0  0  0  0  0
   -6.0316   -0.9720    1.0889 C   0  0  0  0  0  0  0  0  0  0  0  0
    7.5575   -1.0181   -1.5375 H   0  0  0  0  0  0  0  0  0  0  0  0
    7.6903   -1.1859    0.3136 H   0  0  0  0  0  0  0  0  0  0  0  0
    8.5927    0.0956   -0.5137 H   0  0  0  0  0  0  0  0  0  0  0  0
    6.5145    0.7749    0.6065 H   0  0  0  0  0  0  0  0  0  0  0  0
    6.6572    1.2516   -1.1323 H   0  0  0  0  0  0  0  0  0  0  0  0
    5.0772   -1.1720   -0.0992 H   0  0  0  0  0  0  0  0  0  0  0  0
    5.2134   -0.6711   -1.8157 H   0  0  0  0  0  0  0  0  0  0  0  0
    3.0963    0.1205   -0.9519 H   0  0  0  0  0  0  0  0  0  0  0  0
    4.1596    1.5327   -1.3022 H   0  0  0  0  0  0  0  0  0  0  0  0
    4.8326    1.7874    0.9909 H   0  0  0  0  0  0  0  0  0  0  0  0
    3.8225    0.3413    1.4883 H   0  0  0  0  0  0  0  0  0  0  0  0
    2.8824    3.0731    1.0377 H   0  0  0  0  0  0  0  0  0  0  0  0
    1.9772   -0.4069    1.0912 H   0  0  0  0  0  0  0  0  0  0  0  0
    0.5491    3.2995    0.0368 H   0  0  0  0  0  0  0  0  0  0  0  0
   -1.4597    0.8735   -0.6068 H   0  0  0  0  0  0  0  0  0  0  0  0
   -2.8055    1.7192    2.9473 H   0  0  0  0  0  0  0  0  0  0  0  0
   -5.1135    0.5915    3.3706 H   0  0  0  0  0  0  0  0  0  0  0  0
   -3.2331   -0.5735   -1.5571 H   0  0  0  0  0  0  0  0  0  0  0  0
   -6.3537   -3.8137   -2.0446 H   0  0  0  0  0  0  0  0  0  0  0  0
   -7.2945   -2.3358   -2.3971 H   0  0  0  0  0  0  0  0  0  0  0  0
   -6.3612   -3.1870   -3.7246 H   0  0  0  0  0  0  0  0  0  0  0  0
   -6.9714   -2.1681   -0.3573 H   0  0  0  0  0  0  0  0  0  0  0  0
   -6.8266   -1.0984    1.8128 H   0  0  0  0  0  0  0  0  0  0  0  0
  1  2  1  0
  2  3  1  0
  3  4  1  0
  4  5  1  0
  5  6  1  0
  6  7  1  0
  7  8  2  3
  7  9  1  0
  9 10  1  0
 10 11  2  0
 11 12  1  0
 12 13  2  0
 13 14  1  0
 14 15  1  0
 15 16  2  0
 16 17  1  0
 17 18  2  0
 18 19  1  0
 19 20  1  0
 18 21  1  0
 21 22  2  0
 16 12  1  0
 22 15  1  0
  1 23  1  0
  1 24  1  0
  1 25  1  0
  2 26  1  0
  2 27  1  0
  3 28  1  0
  3 29  1  0
  4 30  1  0
  4 31  1  0
  5 32  1  0
  5 33  1  0
  6 34  1  0
  8 35  1  0
  9 36  1  0
 11 37  1  0
 13 38  1  0
 14 39  1  0
 17 40  1  0
 20 41  1  0
 20 42  1  0
 20 43  1  0
 21 44  1  0
 22 45  1  0
M  END
$$$$
