
     RDKit          3D

 51 54  0  0  0  0  0  0  0  0999 V2000
    5.1286   -2.5442   -2.6793 O   0  0  0  0  0  0  0  0  0  0  0  0
    5.1634   -1.8416   -1.3449 S   0  0  0  0  0  6  0  0  0  0  0  0
    5.7909   -2.8199   -0.3754 O   0  0  0  0  0  0  0  0  0  0  0  0
    6.1387   -0.4553   -1.4729 N   0  0  0  0  0  0  0  0  0  0  0  0
    7.1950   -0.2724   -0.4844 C   0  0  0  0  0  0  0  0  0  0  0  0
    7.6738   -0.7572    0.4486 N   0  0  0  0  0  0  0  0  0  0  0  0
    8.6590   -0.3806    1.2018 C   0  0  0  0  0  0  0  0  0  0  0  0
    9.2328   -1.3111    2.6140 Cl  0  0  0  0  0  0  0  0  0  0  0  0
    9.2530    0.8475    0.8061 C   0  0  0  0  0  0  0  0  0  0  0  0
    8.2650    1.2772   -0.6346 S   0  0  0  0  0  0  0  0  0  0  0  0
    3.5098   -1.5009   -0.8822 C   0  0  0  0  0  0  0  0  0  0  0  0
    2.4573   -1.8944   -1.6793 C   0  0  0  0  0  0  0  0  0  0  0  0
    1.1671   -1.6682   -1.3495 C   0  0  0  0  0  0  0  0  0  0  0  0
   -0.1387   -2.1830   -2.3685 Cl  0  0  0  0  0  0  0  0  0  0  0  0
    0.8046   -0.9932   -0.1280 C   0  0  0  0  0  0  0  0  0  0  0  0
   -0.5464   -0.8694    0.0863 N   0  0  0  0  0  0  0  0  0  0  0  0
   -1.8996   -0.7454    0.3010 C   0  0  0  0  0  0  0  0  0  0  0  0
   -2.3623    0.6593    0.4014 C   0  0  1  0  0  0  0  0  0  0  0  0
   -2.0410    1.3971   -0.8408 N   0  0  0  0  0  0  0  0  0  0  0  0
   -1.8162    2.7829   -0.4092 C   0  0  0  0  0  0  0  0  0  0  0  0
   -2.5507    3.0931    0.8507 C   0  0  0  0  0  0  0  0  0  0  0  0
   -3.8512    2.3463    0.9563 C   0  0  0  0  0  0  0  0  0  0  0  0
   -3.7367    1.0015    0.7045 C   0  0  0  0  0  0  0  0  0  0  0  0
   -4.9657    0.2298    0.7192 C   0  0  0  0  0  0  0  0  0  0  0  0
   -6.2106    0.8916    0.7448 C   0  0  0  0  0  0  0  0  0  0  0  0
   -7.4184    0.2785    0.8027 C   0  0  0  0  0  0  0  0  0  0  0  0
   -7.4654   -1.0923    0.8406 C   0  0  0  0  0  0  0  0  0  0  0  0
   -8.6648   -1.7223    0.8982 F   0  0  0  0  0  0  0  0  0  0  0  0
   -6.2840   -1.7930    0.8177 C   0  0  0  0  0  0  0  0  0  0  0  0
   -5.0434   -1.1358    0.7574 C   0  0  0  0  0  0  0  0  0  0  0  0
    1.8822   -0.6219    0.6259 C   0  0  0  0  0  0  0  0  0  0  0  0
    3.2099   -0.8557    0.2848 C   0  0  0  0  0  0  0  0  0  0  0  0
    4.2128   -0.4479    1.1073 F   0  0  0  0  0  0  0  0  0  0  0  0
    5.9981    0.2558   -2.2331 H   0  0  0  0  0  0  0  0  0  0  0  0
   10.1032    1.4147    1.2501 H   0  0  0  0  0  0  0  0  0  0  0  0
    2.7246   -2.4120   -2.6133 H   0  0  0  0  0  0  0  0  0  0  0  0
   -0.3422   -0.1870    1.2493 H   0  0  0  0  0  0  0  0  0  0  0  0
   -2.1616   -1.2788    1.2659 H   0  0  0  0  0  0  0  0  0  0  0  0
   -2.4965   -1.2861   -0.5221 H   0  0  0  0  0  0  0  0  0  0  0  0
   -1.6823    1.1683    1.1742 H   0  0  0  0  0  0  0  0  0  0  0  0
   -1.1670    1.0133   -1.2682 H   0  0  0  0  0  0  0  0  0  0  0  0
   -2.0901    3.4850   -1.1987 H   0  0  0  0  0  0  0  0  0  0  0  0
   -0.7172    2.8294   -0.1693 H   0  0  0  0  0  0  0  0  0  0  0  0
   -2.8674    4.1803    0.7727 H   0  0  0  0  0  0  0  0  0  0  0  0
   -1.9586    3.0581    1.7774 H   0  0  0  0  0  0  0  0  0  0  0  0
   -4.7549    2.8081    1.2137 H   0  0  0  0  0  0  0  0  0  0  0  0
   -6.2213    1.9698    0.6959 H   0  0  0  0  0  0  0  0  0  0  0  0
   -8.3623    0.8312    0.8179 H   0  0  0  0  0  0  0  0  0  0  0  0
   -6.2798   -2.8852    0.8446 H   0  0  0  0  0  0  0  0  0  0  0  0
   -4.1802   -1.7703    0.7594 H   0  0  0  0  0  0  0  0  0  0  0  0
    1.7066   -0.0938    1.5874 H   0  0  0  0  0  0  0  0  0  0  0  0
  1  2  2  0
  2  3  2  0
  2  4  1  0
  4  5  1  0
  5  6  2  0
  6  7  1  0
  7  8  1  0
  7  9  2  0
  9 10  1  0
  2 11  1  0
 11 12  2  0
 12 13  1  0
 13 14  1  0
 13 15  2  0
 15 16  1  0
 16 17  1  0
 17 18  1  0
 18 19  1  0
 19 20  1  0
 20 21  1  0
 21 22  1  0
 22 23  2  0
 23 24  1  0
 24 25  2  0
 25 26  1  0
 26 27  2  0
 27 28  1  0
 27 29  1  0
 29 30  2  0
 15 31  1  0
 31 32  2  0
 32 33  1  0
 10  5  1  0
 32 11  1  0
 23 18  1  0
 30 24  1  0
  4 34  1  0
  9 35  1  0
 12 36  1  0
 16 37  1  0
 17 38  1  0
 17 39  1  0
 18 40  1  1
 19 41  1  0
 20 42  1  0
 20 43  1  0
 21 44  1  0
 21 45  1  0
 22 46  1  0
 25 47  1  0
 26 48  1  0
 29 49  1  0
 30 50  1  0
 31 51  1  0
M  END
$$$$
