@<TRIPOS>MOLECULE
*****
 51 54 0 0 0
SMALL
GASTEIGER

@<TRIPOS>ATOM
      1 O           5.1286   -2.5442   -2.6793 O.2     1  UNL1       -0.1498
      2 S           5.1634   -1.8416   -1.3449 S.O2    1  UNL1        0.0766
      3 O           5.7909   -2.8199   -0.3754 O.2     1  UNL1       -0.1498
      4 N           6.1387   -0.4553   -1.4729 N.pl3   1  UNL1       -0.1936
      5 C           7.1950   -0.2724   -0.4844 C.ar    1  UNL1        0.1788
      6 N           7.6738   -0.7572    0.4486 N.ar    1  UNL1       -0.2121
      7 C           8.6590   -0.3806    1.2018 C.ar    1  UNL1        0.1385
      8 CL          9.2328   -1.3111    2.6140 Cl      1  UNL1       -0.0614
      9 C           9.2530    0.8475    0.8061 C.ar    1  UNL1        0.0158
     10 S           8.2650    1.2772   -0.6346 S.2     1  UNL1       -0.0579
     11 C           3.5098   -1.5009   -0.8822 C.ar    1  UNL1        0.1450
     12 C           2.4573   -1.8944   -1.6793 C.ar    1  UNL1       -0.0121
     13 C           1.1671   -1.6682   -1.3495 C.ar    1  UNL1        0.0638
     14 CL         -0.1387   -2.1830   -2.3685 Cl      1  UNL1       -0.0816
     15 C           0.8046   -0.9932   -0.1280 C.ar    1  UNL1        0.0486
     16 N          -0.5464   -0.8694    0.0863 N.pl3   1  UNL1       -0.3408
     17 C          -1.8996   -0.7454    0.3010 C.3     1  UNL1        0.0287
     18 C          -2.3623    0.6593    0.4014 C.3     1  UNL1        0.0487
     19 N          -2.0410    1.3971   -0.8408 N.3     1  UNL1       -0.3078
     20 C          -1.8162    2.7829   -0.4092 C.3     1  UNL1       -0.0001
     21 C          -2.5507    3.0931    0.8507 C.3     1  UNL1       -0.0215
     22 C          -3.8512    2.3463    0.9563 C.2     1  UNL1       -0.0775
     23 C          -3.7367    1.0015    0.7045 C.2     1  UNL1       -0.0257
     24 C          -4.9657    0.2298    0.7192 C.ar    1  UNL1       -0.0204
     25 C          -6.2106    0.8916    0.7448 C.ar    1  UNL1       -0.0516
     26 C          -7.4184    0.2785    0.8027 C.ar    1  UNL1       -0.0259
     27 C          -7.4654   -1.0923    0.8406 C.ar    1  UNL1        0.1234
     28 F          -8.6648   -1.7223    0.8982 F       1  UNL1       -0.2055
     29 C          -6.2840   -1.7930    0.8177 C.ar    1  UNL1       -0.0259
     30 C          -5.0434   -1.1358    0.7574 C.ar    1  UNL1       -0.0516
     31 C           1.8822   -0.6219    0.6259 C.ar    1  UNL1       -0.0022
     32 C           3.2099   -0.8557    0.2848 C.ar    1  UNL1        0.1517
     33 F           4.2128   -0.4479    1.1073 F       1  UNL1       -0.2034
     34 H           5.9981    0.2558   -2.2331 H       1  UNL1        0.1758
     35 H          10.1032    1.4147    1.2501 H       1  UNL1        0.0725
     36 H           2.7246   -2.4120   -2.6133 H       1  UNL1        0.0653
     37 H          -0.3422   -0.1870    1.2493 H       1  UNL1        0.1462
     38 H          -2.1616   -1.2788    1.2659 H       1  UNL1        0.0480
     39 H          -2.4965   -1.2861   -0.5221 H       1  UNL1        0.0480
     40 H          -1.6823    1.1683    1.1742 H       1  UNL1        0.0526
     41 H          -1.1670    1.0133   -1.2682 H       1  UNL1        0.1226
     42 H          -2.0901    3.4850   -1.1987 H       1  UNL1        0.0427
     43 H          -0.7172    2.8294   -0.1693 H       1  UNL1        0.0427
     44 H          -2.8674    4.1803    0.7727 H       1  UNL1        0.0320
     45 H          -1.9586    3.0581    1.7774 H       1  UNL1        0.0320
     46 H          -4.7549    2.8081    1.2137 H       1  UNL1        0.0576
     47 H          -6.2213    1.9698    0.6959 H       1  UNL1        0.0624
     48 H          -8.3623    0.8312    0.8179 H       1  UNL1        0.0646
     49 H          -6.2798   -2.8852    0.8446 H       1  UNL1        0.0646
     50 H          -4.1802   -1.7703    0.7594 H       1  UNL1        0.0624
     51 H           1.7066   -0.0938    1.5874 H       1  UNL1        0.0666
@<TRIPOS>BOND
     1     1     2    2
     2     2     3    2
     3     2     4    1
     4     4     5    1
     5     5     6   ar
     6     6     7   ar
     7     7     8    1
     8     7     9   ar
     9     9    10   ar
    10     2    11    1
    11    11    12   ar
    12    12    13   ar
    13    13    14    1
    14    13    15   ar
    15    15    16    1
    16    16    17    1
    17    17    18    1
    18    18    19    1
    19    19    20    1
    20    20    21    1
    21    21    22    1
    22    22    23    2
    23    23    24    1
    24    24    25   ar
    25    25    26   ar
    26    26    27   ar
    27    27    28    1
    28    27    29   ar
    29    29    30   ar
    30    15    31   ar
    31    31    32   ar
    32    32    33    1
    33    10     5   ar
    34    32    11   ar
    35    23    18    1
    36    30    24   ar
    37     4    34    1
    38     9    35    1
    39    12    36    1
    40    16    37    1
    41    17    38    1
    42    17    39    1
    43    18    40    1
    44    19    41    1
    45    20    42    1
    46    20    43    1
    47    21    44    1
    48    21    45    1
    49    22    46    1
    50    25    47    1
    51    26    48    1
    52    29    49    1
    53    30    50    1
    54    31    51    1
