
     RDKit          3D

 58 61  0  0  0  0  0  0  0  0999 V2000
    7.3743   -2.8000   -2.0003 C   0  0  0  0  0  0  0  0  0  0  0  0
    7.7130   -1.5901   -1.3526 O   0  0  0  0  0  0  0  0  0  0  0  0
    6.7622   -0.7591   -0.7798 C   0  0  0  0  0  0  0  0  0  0  0  0
    5.4181   -1.0489   -0.7983 C   0  0  0  0  0  0  0  0  0  0  0  0
    4.5177   -0.1812   -0.2102 C   0  0  0  0  0  0  0  0  0  0  0  0
    3.1497   -0.4427   -0.2100 C   0  0  0  0  0  0  0  0  0  0  0  0
    2.2480    0.4208    0.3760 C   0  0  0  0  0  0  0  0  0  0  0  0
    0.8363    0.0885    0.3414 C   0  0  0  0  0  0  0  0  0  0  0  0
    0.4116   -1.1951    0.6339 C   0  0  0  0  0  0  0  0  0  0  0  0
   -0.9198   -1.5541    0.6135 C   0  0  0  0  0  0  0  0  0  0  0  0
   -1.8901   -0.6251    0.2940 C   0  0  0  0  0  0  0  0  0  0  0  0
   -3.3262   -0.9324    0.2521 C   0  0  0  0  0  0  0  0  0  0  0  0
   -4.0040   -0.7349    1.4878 N   0  0  0  0  0  0  0  0  0  0  0  0
   -3.9293    0.6380    1.9626 C   0  0  0  0  0  0  0  0  0  0  0  0
   -5.3756   -1.1828    1.3734 C   0  0  0  0  0  0  0  0  0  0  0  0
   -6.1331   -0.4555    0.3293 C   0  0  0  0  0  0  0  0  0  0  0  0
   -6.8336    0.6999    0.6042 C   0  0  0  0  0  0  0  0  0  0  0  0
   -7.5148    1.3202   -0.4209 C   0  0  0  0  0  0  0  0  0  0  0  0
   -7.5366    0.8437   -1.7283 C   0  0  0  0  0  0  0  0  0  0  0  0
   -8.2516    1.5158   -2.7502 N   0  0  0  0  0  4  0  0  0  0  0  0
   -8.8966    2.5566   -2.5563 O   0  0  0  0  0  0  0  0  0  0  0  0
   -8.2293    0.9909   -4.0126 O   0  0  0  0  0  1  0  0  0  0  0  0
   -6.8341   -0.3056   -1.9801 C   0  0  0  0  0  0  0  0  0  0  0  0
   -6.1356   -0.9508   -0.9524 C   0  0  0  0  0  0  0  0  0  0  0  0
   -1.4801    0.6543    0.0013 C   0  0  0  0  0  0  0  0  0  0  0  0
   -0.1464    1.0092    0.0230 C   0  0  0  0  0  0  0  0  0  0  0  0
    2.7586    1.5591    0.9646 C   0  0  0  0  0  0  0  0  0  0  0  0
    1.9423    2.3625    1.5073 O   0  0  0  0  0  0  0  0  0  0  0  0
    4.0532    1.7964    0.9587 O   0  0  0  0  0  0  0  0  0  0  0  0
    4.9300    0.9902    0.4078 C   0  0  0  0  0  0  0  0  0  0  0  0
    6.2842    1.2450    0.4054 C   0  0  0  0  0  0  0  0  0  0  0  0
    7.2138    0.4020   -0.1719 C   0  0  0  0  0  0  0  0  0  0  0  0
    8.5595    0.6862   -0.1568 O   0  0  0  0  0  0  0  0  0  0  0  0
    9.0750    1.8412    0.4407 C   0  0  0  0  0  0  0  0  0  0  0  0
    6.4305   -2.6817   -2.5799 H   0  0  0  0  0  0  0  0  0  0  0  0
    8.1590   -3.0978   -2.7244 H   0  0  0  0  0  0  0  0  0  0  0  0
    7.2158   -3.6381   -1.2983 H   0  0  0  0  0  0  0  0  0  0  0  0
    5.0521   -1.9472   -1.2668 H   0  0  0  0  0  0  0  0  0  0  0  0
    2.8290   -1.3546   -0.6910 H   0  0  0  0  0  0  0  0  0  0  0  0
    1.1613   -1.9473    0.8895 H   0  0  0  0  0  0  0  0  0  0  0  0
   -1.2675   -2.5532    0.8397 H   0  0  0  0  0  0  0  0  0  0  0  0
   -3.4710   -1.9566   -0.0846 H   0  0  0  0  0  0  0  0  0  0  0  0
   -3.8057   -0.2701   -0.5214 H   0  0  0  0  0  0  0  0  0  0  0  0
   -2.8873    0.9000    2.2352 H   0  0  0  0  0  0  0  0  0  0  0  0
   -4.5348    0.7829    2.8746 H   0  0  0  0  0  0  0  0  0  0  0  0
   -4.3051    1.3537    1.2136 H   0  0  0  0  0  0  0  0  0  0  0  0
   -5.8848   -1.0687    2.3713 H   0  0  0  0  0  0  0  0  0  0  0  0
   -5.3387   -2.2748    1.1832 H   0  0  0  0  0  0  0  0  0  0  0  0
   -6.8500    1.1180    1.6149 H   0  0  0  0  0  0  0  0  0  0  0  0
   -8.0714    2.2260   -0.2336 H   0  0  0  0  0  0  0  0  0  0  0  0
   -6.8226   -0.7117   -2.9790 H   0  0  0  0  0  0  0  0  0  0  0  0
   -5.6094   -1.8507   -1.2415 H   0  0  0  0  0  0  0  0  0  0  0  0
   -2.2067    1.4301   -0.2585 H   0  0  0  0  0  0  0  0  0  0  0  0
    0.1718    2.0176   -0.2081 H   0  0  0  0  0  0  0  0  0  0  0  0
    6.5905    2.1728    0.8970 H   0  0  0  0  0  0  0  0  0  0  0  0
    8.4355    2.7189    0.2199 H   0  0  0  0  0  0  0  0  0  0  0  0
    9.1087    1.6683    1.5523 H   0  0  0  0  0  0  0  0  0  0  0  0
   10.0898    2.1021    0.0483 H   0  0  0  0  0  0  0  0  0  0  0  0
  1  2  1  0
  2  3  1  0
  3  4  2  0
  4  5  1  0
  5  6  1  0
  6  7  2  0
  7  8  1  0
  8  9  2  0
  9 10  1  0
 10 11  2  0
 11 12  1  0
 12 13  1  0
 13 14  1  0
 13 15  1  0
 15 16  1  0
 16 17  2  0
 17 18  1  0
 18 19  2  0
 19 20  1  0
 20 21  2  0
 20 22  1  0
 19 23  1  0
 23 24  2  0
 11 25  1  0
 25 26  2  0
  7 27  1  0
 27 28  2  0
 27 29  1  0
 29 30  1  0
 30 31  1  0
 31 32  2  0
 32 33  1  0
 33 34  1  0
 32  3  1  0
 30  5  2  0
 26  8  1  0
 24 16  1  0
  1 35  1  0
  1 36  1  0
  1 37  1  0
  4 38  1  0
  6 39  1  0
  9 40  1  0
 10 41  1  0
 12 42  1  0
 12 43  1  0
 14 44  1  0
 14 45  1  0
 14 46  1  0
 15 47  1  0
 15 48  1  0
 17 49  1  0
 18 50  1  0
 23 51  1  0
 24 52  1  0
 25 53  1  0
 26 54  1  0
 31 55  1  0
 34 56  1  0
 34 57  1  0
 34 58  1  0
M  CHG  2  20   1  22  -1
M  END
$$$$
