@<TRIPOS>MOLECULE
*****
 58 61 0 0 0
SMALL
GASTEIGER

@<TRIPOS>ATOM
      1 C           7.3743   -2.8000   -2.0003 C.3     1  UNL1        0.0790
      2 O           7.7130   -1.5901   -1.3526 O.3     1  UNL1       -0.4914
      3 C           6.7622   -0.7591   -0.7798 C.ar    1  UNL1        0.1623
      4 C           5.4181   -1.0489   -0.7983 C.ar    1  UNL1       -0.0056
      5 C           4.5177   -0.1812   -0.2102 C.ar    1  UNL1        0.0219
      6 C           3.1497   -0.4427   -0.2100 C.ar    1  UNL1       -0.0364
      7 C           2.2480    0.4208    0.3760 C.ar    1  UNL1        0.0672
      8 C           0.8363    0.0885    0.3414 C.ar    1  UNL1       -0.0110
      9 C           0.4116   -1.1951    0.6339 C.ar    1  UNL1       -0.0535
     10 C          -0.9198   -1.5541    0.6135 C.ar    1  UNL1       -0.0568
     11 C          -1.8901   -0.6251    0.2940 C.ar    1  UNL1       -0.0333
     12 C          -3.3262   -0.9324    0.2521 C.3     1  UNL1        0.0241
     13 N          -4.0040   -0.7349    1.4878 N.3     1  UNL1       -0.2970
     14 C          -3.9293    0.6380    1.9626 C.3     1  UNL1       -0.0121
     15 C          -5.3756   -1.1828    1.3734 C.3     1  UNL1        0.0241
     16 C          -6.1331   -0.4555    0.3293 C.ar    1  UNL1       -0.0329
     17 C          -6.8336    0.6999    0.6042 C.ar    1  UNL1       -0.0509
     18 C          -7.5148    1.3202   -0.4209 C.ar    1  UNL1        0.0159
     19 C          -7.5366    0.8437   -1.7283 C.ar    1  UNL1        0.2732
     20 N          -8.2516    1.5158   -2.7502 N.pl3   1  UNL1        0.0796
     21 O          -8.8966    2.5566   -2.5563 O.2     1  UNL1        0.0414
     22 O          -8.2293    0.9909   -4.0126 O.co2   1  UNL1       -0.5760
     23 C          -6.8341   -0.3056   -1.9801 C.ar    1  UNL1        0.0159
     24 C          -6.1356   -0.9508   -0.9524 C.ar    1  UNL1       -0.0509
     25 C          -1.4801    0.6543    0.0013 C.ar    1  UNL1       -0.0568
     26 C          -0.1464    1.0092    0.0230 C.ar    1  UNL1       -0.0535
     27 C           2.7586    1.5591    0.9646 C.ar    1  UNL1        0.3451
     28 O           1.9423    2.3625    1.5073 O.2     1  UNL1       -0.2445
     29 O           4.0532    1.7964    0.9587 O.2     1  UNL1       -0.4216
     30 C           4.9300    0.9902    0.4078 C.ar    1  UNL1        0.1428
     31 C           6.2842    1.2450    0.4054 C.ar    1  UNL1        0.0267
     32 C           7.2138    0.4020   -0.1719 C.ar    1  UNL1        0.1650
     33 O           8.5595    0.6862   -0.1568 O.3     1  UNL1       -0.4913
     34 C           9.0750    1.8412    0.4407 C.3     1  UNL1        0.0790
     35 H           6.4305   -2.6817   -2.5799 H       1  UNL1        0.0660
     36 H           8.1590   -3.0978   -2.7244 H       1  UNL1        0.0660
     37 H           7.2158   -3.6381   -1.2983 H       1  UNL1        0.0660
     38 H           5.0521   -1.9472   -1.2668 H       1  UNL1        0.0662
     39 H           2.8290   -1.3546   -0.6910 H       1  UNL1        0.0633
     40 H           1.1613   -1.9473    0.8895 H       1  UNL1        0.0624
     41 H          -1.2675   -2.5532    0.8397 H       1  UNL1        0.0621
     42 H          -3.4710   -1.9566   -0.0846 H       1  UNL1        0.0476
     43 H          -3.8057   -0.2701   -0.5214 H       1  UNL1        0.0476
     44 H          -2.8873    0.9000    2.2352 H       1  UNL1        0.0391
     45 H          -4.5348    0.7829    2.8746 H       1  UNL1        0.0391
     46 H          -4.3051    1.3537    1.2136 H       1  UNL1        0.0391
     47 H          -5.8848   -1.0687    2.3713 H       1  UNL1        0.0476
     48 H          -5.3387   -2.2748    1.1832 H       1  UNL1        0.0476
     49 H          -6.8500    1.1180    1.6149 H       1  UNL1        0.0623
     50 H          -8.0714    2.2260   -0.2336 H       1  UNL1        0.0685
     51 H          -6.8226   -0.7117   -2.9790 H       1  UNL1        0.0685
     52 H          -5.6094   -1.8507   -1.2415 H       1  UNL1        0.0623
     53 H          -2.2067    1.4301   -0.2585 H       1  UNL1        0.0621
     54 H           0.1718    2.0176   -0.2081 H       1  UNL1        0.0624
     55 H           6.5905    2.1728    0.8970 H       1  UNL1        0.0692
     56 H           8.4355    2.7189    0.2199 H       1  UNL1        0.0660
     57 H           9.1087    1.6683    1.5523 H       1  UNL1        0.0660
     58 H          10.0898    2.1021    0.0483 H       1  UNL1        0.0660
@<TRIPOS>UNITY_ATOM_ATTR
20 1
charge 1
22 1
charge -1
@<TRIPOS>BOND
     1     1     2    1
     2     2     3    1
     3     3     4   ar
     4     4     5   ar
     5     5     6   ar
     6     6     7   ar
     7     7     8    1
     8     8     9   ar
     9     9    10   ar
    10    10    11   ar
    11    11    12    1
    12    12    13    1
    13    13    14    1
    14    13    15    1
    15    15    16    1
    16    16    17   ar
    17    17    18   ar
    18    18    19   ar
    19    19    20    1
    20    20    21    2
    21    20    22    1
    22    19    23   ar
    23    23    24   ar
    24    11    25   ar
    25    25    26   ar
    26     7    27   ar
    27    27    28    2
    28    27    29   ar
    29    29    30   ar
    30    30    31   ar
    31    31    32   ar
    32    32    33    1
    33    33    34    1
    34    32     3   ar
    35    30     5   ar
    36    26     8   ar
    37    24    16   ar
    38     1    35    1
    39     1    36    1
    40     1    37    1
    41     4    38    1
    42     6    39    1
    43     9    40    1
    44    10    41    1
    45    12    42    1
    46    12    43    1
    47    14    44    1
    48    14    45    1
    49    14    46    1
    50    15    47    1
    51    15    48    1
    52    17    49    1
    53    18    50    1
    54    23    51    1
    55    24    52    1
    56    25    53    1
    57    26    54    1
    58    31    55    1
    59    34    56    1
    60    34    57    1
    61    34    58    1
