@<TRIPOS>MOLECULE
*****
 58 61 0 0 0
SMALL
GASTEIGER

@<TRIPOS>ATOM
      1 N           2.2294   -1.1800    2.6600 N.pl3   1  UNL1       -0.3565
      2 C           3.3553   -0.5485    2.0221 C.ar    1  UNL1        0.0461
      3 C           4.4297   -0.1432    2.7597 C.ar    1  UNL1       -0.0387
      4 C           5.4973    0.4616    2.1257 C.ar    1  UNL1       -0.0522
      5 C           5.4509    0.6439    0.7424 C.ar    1  UNL1       -0.0160
      6 C           6.5919    1.2901    0.0859 C.ar    1  UNL1       -0.0178
      7 C           7.8807    1.1500    0.5518 C.ar    1  UNL1       -0.0540
      8 C           8.9649    1.7533   -0.0497 C.ar    1  UNL1       -0.0612
      9 C           8.7448    2.5309   -1.1678 C.ar    1  UNL1       -0.0617
     10 C           7.4633    2.7042   -1.6780 C.ar    1  UNL1       -0.0612
     11 C           6.4136    2.0792   -1.0393 C.ar    1  UNL1       -0.0540
     12 C           4.3657    0.2287    0.0347 C.ar    1  UNL1       -0.0310
     13 C           3.2836   -0.3790    0.6430 C.ar    1  UNL1        0.0551
     14 N           2.1403   -0.8177   -0.0872 N.am    1  UNL1       -0.2799
     15 C           1.0264    0.0248   -0.3407 C.2     1  UNL1        0.2483
     16 O           1.1288    1.2040    0.1315 O.2     1  UNL1       -0.2699
     17 C          -0.1517   -0.3677   -1.0676 C.ar    1  UNL1        0.0370
     18 C          -1.1344    0.5587   -1.3208 C.ar    1  UNL1       -0.0493
     19 C          -2.3114    0.2651   -2.0112 C.ar    1  UNL1       -0.0564
     20 C          -2.5247   -1.0173   -2.4748 C.ar    1  UNL1       -0.0302
     21 C          -3.7488   -1.4090   -3.2106 C.3     1  UNL1        0.0400
     22 N          -4.8032   -1.9266   -2.3798 N.am    1  UNL1       -0.2770
     23 C          -5.6709   -1.1620   -1.5618 C.2     1  UNL1        0.4008
     24 O          -5.5091    0.0711   -1.5584 O.2     1  UNL1       -0.2265
     25 O          -6.6623   -1.6894   -0.7868 O.3     1  UNL1       -0.4456
     26 C          -7.5609   -1.0140    0.0481 C.3     1  UNL1        0.1205
     27 C          -6.9860   -0.2448    1.1374 C.ar    1  UNL1        0.0078
     28 C          -6.7134   -0.8263    2.3533 C.ar    1  UNL1       -0.0525
     29 C          -6.1785   -0.1168    3.4093 C.ar    1  UNL1       -0.0432
     30 C          -5.9063    1.2226    3.2434 C.ar    1  UNL1        0.0276
     31 N          -6.1742    1.7859    2.0551 N.ar    1  UNL1       -0.2629
     32 C          -6.7015    1.0882    1.0137 C.ar    1  UNL1        0.0339
     33 C          -1.5341   -1.9528   -2.2202 C.ar    1  UNL1       -0.0564
     34 C          -0.3699   -1.6498   -1.5342 C.ar    1  UNL1       -0.0493
     35 H           1.6072   -1.8538    2.1321 H       1  UNL1        0.1424
     36 H           2.0235   -0.9666    3.6681 H       1  UNL1        0.1424
     37 H           4.4614   -0.2884    3.8416 H       1  UNL1        0.0637
     38 H           6.3619    0.7961    2.6638 H       1  UNL1        0.0624
     39 H           8.0775    0.5328    1.4431 H       1  UNL1        0.0624
     40 H           9.9776    1.6397    0.3216 H       1  UNL1        0.0618
     41 H           9.5577    3.0165   -1.6641 H       1  UNL1        0.0618
     42 H           7.3307    3.3242   -2.5602 H       1  UNL1        0.0618
     43 H           5.4100    2.2014   -1.4197 H       1  UNL1        0.0624
     44 H           4.3519    0.3809   -1.0385 H       1  UNL1        0.0643
     45 H           2.1279   -1.7872   -0.4441 H       1  UNL1        0.1552
     46 H          -0.9743    1.5833   -0.9553 H       1  UNL1        0.0625
     47 H          -3.0580    1.0108   -2.2001 H       1  UNL1        0.0621
     48 H          -4.1229   -0.5172   -3.7708 H       1  UNL1        0.0513
     49 H          -3.4663   -2.1398   -4.0009 H       1  UNL1        0.0513
     50 H          -4.9433   -2.9781   -2.3804 H       1  UNL1        0.1523
     51 H          -8.2228   -0.4024   -0.6232 H       1  UNL1        0.0750
     52 H          -8.2736   -1.8176    0.4211 H       1  UNL1        0.0750
     53 H          -6.9174   -1.8843    2.5187 H       1  UNL1        0.0622
     54 H          -5.9742   -0.6043    4.3601 H       1  UNL1        0.0633
     55 H          -5.4771    1.8197    4.0701 H       1  UNL1        0.0829
     56 H          -6.8737    1.6759    0.1163 H       1  UNL1        0.0833
     57 H          -1.6913   -2.9588   -2.5788 H       1  UNL1        0.0621
     58 H           0.3823   -2.4002   -1.3519 H       1  UNL1        0.0625
@<TRIPOS>BOND
     1     1     2    1
     2     2     3   ar
     3     3     4   ar
     4     4     5   ar
     5     5     6    1
     6     6     7   ar
     7     7     8   ar
     8     8     9   ar
     9     9    10   ar
    10    10    11   ar
    11     5    12   ar
    12    12    13   ar
    13    13    14    1
    14    14    15   am
    15    15    16    2
    16    15    17    1
    17    17    18   ar
    18    18    19   ar
    19    19    20   ar
    20    20    21    1
    21    21    22    1
    22    22    23   am
    23    23    24    2
    24    23    25    1
    25    25    26    1
    26    26    27    1
    27    27    28   ar
    28    28    29   ar
    29    29    30   ar
    30    30    31   ar
    31    31    32   ar
    32    20    33   ar
    33    33    34   ar
    34    13     2   ar
    35    34    17   ar
    36    11     6   ar
    37    32    27   ar
    38     1    35    1
    39     1    36    1
    40     3    37    1
    41     4    38    1
    42     7    39    1
    43     8    40    1
    44     9    41    1
    45    10    42    1
    46    11    43    1
    47    12    44    1
    48    14    45    1
    49    18    46    1
    50    19    47    1
    51    21    48    1
    52    21    49    1
    53    22    50    1
    54    26    51    1
    55    26    52    1
    56    28    53    1
    57    29    54    1
    58    30    55    1
    59    32    56    1
    60    33    57    1
    61    34    58    1
