
     RDKit          3D

 58 61  0  0  0  0  0  0  0  0999 V2000
    2.2294   -1.1800    2.6600 N   0  0  0  0  0  0  0  0  0  0  0  0
    3.3553   -0.5485    2.0221 C   0  0  0  0  0  0  0  0  0  0  0  0
    4.4297   -0.1432    2.7597 C   0  0  0  0  0  0  0  0  0  0  0  0
    5.4973    0.4616    2.1257 C   0  0  0  0  0  0  0  0  0  0  0  0
    5.4509    0.6439    0.7424 C   0  0  0  0  0  0  0  0  0  0  0  0
    6.5919    1.2901    0.0859 C   0  0  0  0  0  0  0  0  0  0  0  0
    7.8807    1.1500    0.5518 C   0  0  0  0  0  0  0  0  0  0  0  0
    8.9649    1.7533   -0.0497 C   0  0  0  0  0  0  0  0  0  0  0  0
    8.7448    2.5309   -1.1678 C   0  0  0  0  0  0  0  0  0  0  0  0
    7.4633    2.7042   -1.6780 C   0  0  0  0  0  0  0  0  0  0  0  0
    6.4136    2.0792   -1.0393 C   0  0  0  0  0  0  0  0  0  0  0  0
    4.3657    0.2287    0.0347 C   0  0  0  0  0  0  0  0  0  0  0  0
    3.2836   -0.3790    0.6430 C   0  0  0  0  0  0  0  0  0  0  0  0
    2.1403   -0.8177   -0.0872 N   0  0  0  0  0  0  0  0  0  0  0  0
    1.0264    0.0248   -0.3407 C   0  0  0  0  0  0  0  0  0  0  0  0
    1.1288    1.2040    0.1315 O   0  0  0  0  0  0  0  0  0  0  0  0
   -0.1517   -0.3677   -1.0676 C   0  0  0  0  0  0  0  0  0  0  0  0
   -1.1344    0.5587   -1.3208 C   0  0  0  0  0  0  0  0  0  0  0  0
   -2.3114    0.2651   -2.0112 C   0  0  0  0  0  0  0  0  0  0  0  0
   -2.5247   -1.0173   -2.4748 C   0  0  0  0  0  0  0  0  0  0  0  0
   -3.7488   -1.4090   -3.2106 C   0  0  0  0  0  0  0  0  0  0  0  0
   -4.8032   -1.9266   -2.3798 N   0  0  0  0  0  0  0  0  0  0  0  0
   -5.6709   -1.1620   -1.5618 C   0  0  0  0  0  0  0  0  0  0  0  0
   -5.5091    0.0711   -1.5584 O   0  0  0  0  0  0  0  0  0  0  0  0
   -6.6623   -1.6894   -0.7868 O   0  0  0  0  0  0  0  0  0  0  0  0
   -7.5609   -1.0140    0.0481 C   0  0  0  0  0  0  0  0  0  0  0  0
   -6.9860   -0.2448    1.1374 C   0  0  0  0  0  0  0  0  0  0  0  0
   -6.7134   -0.8263    2.3533 C   0  0  0  0  0  0  0  0  0  0  0  0
   -6.1785   -0.1168    3.4093 C   0  0  0  0  0  0  0  0  0  0  0  0
   -5.9063    1.2226    3.2434 C   0  0  0  0  0  0  0  0  0  0  0  0
   -6.1742    1.7859    2.0551 N   0  0  0  0  0  0  0  0  0  0  0  0
   -6.7015    1.0882    1.0137 C   0  0  0  0  0  0  0  0  0  0  0  0
   -1.5341   -1.9528   -2.2202 C   0  0  0  0  0  0  0  0  0  0  0  0
   -0.3699   -1.6498   -1.5342 C   0  0  0  0  0  0  0  0  0  0  0  0
    1.6072   -1.8538    2.1321 H   0  0  0  0  0  0  0  0  0  0  0  0
    2.0235   -0.9666    3.6681 H   0  0  0  0  0  0  0  0  0  0  0  0
    4.4614   -0.2884    3.8416 H   0  0  0  0  0  0  0  0  0  0  0  0
    6.3619    0.7961    2.6638 H   0  0  0  0  0  0  0  0  0  0  0  0
    8.0775    0.5328    1.4431 H   0  0  0  0  0  0  0  0  0  0  0  0
    9.9776    1.6397    0.3216 H   0  0  0  0  0  0  0  0  0  0  0  0
    9.5577    3.0165   -1.6641 H   0  0  0  0  0  0  0  0  0  0  0  0
    7.3307    3.3242   -2.5602 H   0  0  0  0  0  0  0  0  0  0  0  0
    5.4100    2.2014   -1.4197 H   0  0  0  0  0  0  0  0  0  0  0  0
    4.3519    0.3809   -1.0385 H   0  0  0  0  0  0  0  0  0  0  0  0
    2.1279   -1.7872   -0.4441 H   0  0  0  0  0  0  0  0  0  0  0  0
   -0.9743    1.5833   -0.9553 H   0  0  0  0  0  0  0  0  0  0  0  0
   -3.0580    1.0108   -2.2001 H   0  0  0  0  0  0  0  0  0  0  0  0
   -4.1229   -0.5172   -3.7708 H   0  0  0  0  0  0  0  0  0  0  0  0
   -3.4663   -2.1398   -4.0009 H   0  0  0  0  0  0  0  0  0  0  0  0
   -4.9433   -2.9781   -2.3804 H   0  0  0  0  0  0  0  0  0  0  0  0
   -8.2228   -0.4024   -0.6232 H   0  0  0  0  0  0  0  0  0  0  0  0
   -8.2736   -1.8176    0.4211 H   0  0  0  0  0  0  0  0  0  0  0  0
   -6.9174   -1.8843    2.5187 H   0  0  0  0  0  0  0  0  0  0  0  0
   -5.9742   -0.6043    4.3601 H   0  0  0  0  0  0  0  0  0  0  0  0
   -5.4771    1.8197    4.0701 H   0  0  0  0  0  0  0  0  0  0  0  0
   -6.8737    1.6759    0.1163 H   0  0  0  0  0  0  0  0  0  0  0  0
   -1.6913   -2.9588   -2.5788 H   0  0  0  0  0  0  0  0  0  0  0  0
    0.3823   -2.4002   -1.3519 H   0  0  0  0  0  0  0  0  0  0  0  0
  1  2  1  0
  2  3  2  0
  3  4  1  0
  4  5  2  0
  5  6  1  0
  6  7  2  0
  7  8  1  0
  8  9  2  0
  9 10  1  0
 10 11  2  0
  5 12  1  0
 12 13  2  0
 13 14  1  0
 14 15  1  0
 15 16  2  0
 15 17  1  0
 17 18  2  0
 18 19  1  0
 19 20  2  0
 20 21  1  0
 21 22  1  0
 22 23  1  0
 23 24  2  0
 23 25  1  0
 25 26  1  0
 26 27  1  0
 27 28  2  0
 28 29  1  0
 29 30  2  0
 30 31  1  0
 31 32  2  0
 20 33  1  0
 33 34  2  0
 13  2  1  0
 34 17  1  0
 11  6  1  0
 32 27  1  0
  1 35  1  0
  1 36  1  0
  3 37  1  0
  4 38  1  0
  7 39  1  0
  8 40  1  0
  9 41  1  0
 10 42  1  0
 11 43  1  0
 12 44  1  0
 14 45  1  0
 18 46  1  0
 19 47  1  0
 21 48  1  0
 21 49  1  0
 22 50  1  0
 26 51  1  0
 26 52  1  0
 28 53  1  0
 29 54  1  0
 30 55  1  0
 32 56  1  0
 33 57  1  0
 34 58  1  0
M  END
$$$$
