@<TRIPOS>MOLECULE
*****
 41 42 0 0 0
SMALL
GASTEIGER

@<TRIPOS>ATOM
      1 C           0.9106   -0.0573   -1.2710 C.3     1  UNL1       -0.0203
      2 C           1.4155    0.2425    0.0812 C.ar    1  UNL1        0.0709
      3 C           2.7299    0.6917    0.2995 C.ar    1  UNL1        0.0638
      4 C           3.7990    0.8916   -0.6675 C.3     1  UNL1       -0.0129
      5 C           4.6550   -0.3385   -0.8886 C.3     1  UNL1       -0.0584
      6 C           4.7597    1.9865   -0.2535 C.3     1  UNL1       -0.0584
      7 C           2.7781    0.9003    1.6344 C.ar    1  UNL1        0.3625
      8 O           3.7403    1.3128    2.3675 O.2     1  UNL1       -0.2429
      9 O           1.6320    0.6068    2.1275 O.2     1  UNL1       -0.3260
     10 N           0.7494    0.1925    1.2133 N.ar    1  UNL1       -0.1250
     11 C          -0.5566   -0.1143    1.6235 C.2     1  UNL1        0.3503
     12 O          -0.7855    0.2259    2.9133 O.2     1  UNL1       -0.2463
     13 N          -1.6793   -0.6731    1.0686 N.am    1  UNL1       -0.2808
     14 C          -2.9021   -0.6957    1.9719 C.3     1  UNL1        0.0164
     15 C          -3.9733    0.1300    1.3039 C.3     1  UNL1       -0.0368
     16 C          -4.2685   -0.4638   -0.0466 C.3     1  UNL1       -0.0476
     17 C          -2.9825   -0.3773   -0.8794 C.3     1  UNL1       -0.0279
     18 C          -3.2691   -0.8102   -2.2833 C.3     1  UNL1       -0.0610
     19 C          -1.9904   -1.2978   -0.1758 C.3     1  UNL1        0.0190
     20 H           1.6075    0.3499   -2.0591 H       1  UNL1        0.0293
     21 H           0.9209   -1.1397   -1.4749 H       1  UNL1        0.0293
     22 H          -0.1006    0.3295   -1.4095 H       1  UNL1        0.0293
     23 H           3.4176    1.1878   -1.6688 H       1  UNL1        0.0346
     24 H           5.0989   -0.6765    0.0690 H       1  UNL1        0.0235
     25 H           5.5144   -0.0101   -1.5197 H       1  UNL1        0.0235
     26 H           4.1423   -1.1300   -1.4452 H       1  UNL1        0.0235
     27 H           5.5449    2.0412   -1.0619 H       1  UNL1        0.0235
     28 H           4.2916    2.9611   -0.1265 H       1  UNL1        0.0235
     29 H           5.2967    1.7052    0.6681 H       1  UNL1        0.0235
     30 H          -3.2164   -1.7367    2.0727 H       1  UNL1        0.0465
     31 H          -2.6517   -0.2409    2.9381 H       1  UNL1        0.0465
     32 H          -3.5816    1.1683    1.1560 H       1  UNL1        0.0280
     33 H          -4.8354    0.1536    1.9712 H       1  UNL1        0.0280
     34 H          -5.0984    0.0602   -0.5638 H       1  UNL1        0.0269
     35 H          -4.5475   -1.5285    0.1174 H       1  UNL1        0.0269
     36 H          -2.6344    0.6649   -0.8545 H       1  UNL1        0.0313
     37 H          -4.3329   -0.5577   -2.5094 H       1  UNL1        0.0233
     38 H          -2.6547   -0.1836   -2.9714 H       1  UNL1        0.0233
     39 H          -3.0916   -1.8851   -2.3846 H       1  UNL1        0.0233
     40 H          -2.6559   -2.2100    0.1073 H       1  UNL1        0.0468
     41 H          -1.1960   -1.6757   -0.7922 H       1  UNL1        0.0468
@<TRIPOS>BOND
     1     1     2    1
     2     2     3   ar
     3     3     4    1
     4     4     5    1
     5     4     6    1
     6     3     7   ar
     7     7     8    2
     8     7     9   ar
     9     9    10   ar
    10    10    11   am
    11    11    12    2
    12    11    13   am
    13    13    14    1
    14    14    15    1
    15    15    16    1
    16    16    17    1
    17    17    18    1
    18    17    19    1
    19    10     2   ar
    20    19    13    1
    21     1    20    1
    22     1    21    1
    23     1    22    1
    24     4    23    1
    25     5    24    1
    26     5    25    1
    27     5    26    1
    28     6    27    1
    29     6    28    1
    30     6    29    1
    31    14    30    1
    32    14    31    1
    33    15    32    1
    34    15    33    1
    35    16    34    1
    36    16    35    1
    37    17    36    1
    38    18    37    1
    39    18    38    1
    40    18    39    1
    41    19    40    1
    42    19    41    1
