
     RDKit          3D

 41 42  0  0  0  0  0  0  0  0999 V2000
    0.9106   -0.0573   -1.2710 C   0  0  0  0  0  0  0  0  0  0  0  0
    1.4155    0.2425    0.0812 C   0  0  0  0  0  0  0  0  0  0  0  0
    2.7299    0.6917    0.2995 C   0  0  0  0  0  0  0  0  0  0  0  0
    3.7990    0.8916   -0.6675 C   0  0  0  0  0  0  0  0  0  0  0  0
    4.6550   -0.3385   -0.8886 C   0  0  0  0  0  0  0  0  0  0  0  0
    4.7597    1.9865   -0.2535 C   0  0  0  0  0  0  0  0  0  0  0  0
    2.7781    0.9003    1.6344 C   0  0  0  0  0  0  0  0  0  0  0  0
    3.7403    1.3128    2.3675 O   0  0  0  0  0  0  0  0  0  0  0  0
    1.6320    0.6068    2.1275 O   0  0  0  0  0  0  0  0  0  0  0  0
    0.7494    0.1925    1.2133 N   0  0  0  0  0  0  0  0  0  0  0  0
   -0.5566   -0.1143    1.6235 C   0  0  0  0  0  0  0  0  0  0  0  0
   -0.7855    0.2259    2.9133 O   0  0  0  0  0  0  0  0  0  0  0  0
   -1.6793   -0.6731    1.0686 N   0  0  0  0  0  0  0  0  0  0  0  0
   -2.9021   -0.6957    1.9719 C   0  0  0  0  0  0  0  0  0  0  0  0
   -3.9733    0.1300    1.3039 C   0  0  0  0  0  0  0  0  0  0  0  0
   -4.2685   -0.4638   -0.0466 C   0  0  0  0  0  0  0  0  0  0  0  0
   -2.9825   -0.3773   -0.8794 C   0  0  2  0  0  0  0  0  0  0  0  0
   -3.2691   -0.8102   -2.2833 C   0  0  0  0  0  0  0  0  0  0  0  0
   -1.9904   -1.2978   -0.1758 C   0  0  0  0  0  0  0  0  0  0  0  0
    1.6075    0.3499   -2.0591 H   0  0  0  0  0  0  0  0  0  0  0  0
    0.9209   -1.1397   -1.4749 H   0  0  0  0  0  0  0  0  0  0  0  0
   -0.1006    0.3295   -1.4095 H   0  0  0  0  0  0  0  0  0  0  0  0
    3.4176    1.1878   -1.6688 H   0  0  0  0  0  0  0  0  0  0  0  0
    5.0989   -0.6765    0.0690 H   0  0  0  0  0  0  0  0  0  0  0  0
    5.5144   -0.0101   -1.5197 H   0  0  0  0  0  0  0  0  0  0  0  0
    4.1423   -1.1300   -1.4452 H   0  0  0  0  0  0  0  0  0  0  0  0
    5.5449    2.0412   -1.0619 H   0  0  0  0  0  0  0  0  0  0  0  0
    4.2916    2.9611   -0.1265 H   0  0  0  0  0  0  0  0  0  0  0  0
    5.2967    1.7052    0.6681 H   0  0  0  0  0  0  0  0  0  0  0  0
   -3.2164   -1.7367    2.0727 H   0  0  0  0  0  0  0  0  0  0  0  0
   -2.6517   -0.2409    2.9381 H   0  0  0  0  0  0  0  0  0  0  0  0
   -3.5816    1.1683    1.1560 H   0  0  0  0  0  0  0  0  0  0  0  0
   -4.8354    0.1536    1.9712 H   0  0  0  0  0  0  0  0  0  0  0  0
   -5.0984    0.0602   -0.5638 H   0  0  0  0  0  0  0  0  0  0  0  0
   -4.5475   -1.5285    0.1174 H   0  0  0  0  0  0  0  0  0  0  0  0
   -2.6344    0.6649   -0.8545 H   0  0  0  0  0  0  0  0  0  0  0  0
   -4.3329   -0.5577   -2.5094 H   0  0  0  0  0  0  0  0  0  0  0  0
   -2.6547   -0.1836   -2.9714 H   0  0  0  0  0  0  0  0  0  0  0  0
   -3.0916   -1.8851   -2.3846 H   0  0  0  0  0  0  0  0  0  0  0  0
   -2.6559   -2.2100    0.1073 H   0  0  0  0  0  0  0  0  0  0  0  0
   -1.1960   -1.6757   -0.7922 H   0  0  0  0  0  0  0  0  0  0  0  0
  1  2  1  0
  2  3  2  0
  3  4  1  0
  4  5  1  0
  4  6  1  0
  3  7  1  0
  7  8  2  0
  7  9  1  0
  9 10  1  0
 10 11  1  0
 11 12  2  0
 11 13  1  0
 13 14  1  0
 14 15  1  0
 15 16  1  0
 16 17  1  0
 17 18  1  0
 17 19  1  0
 10  2  1  0
 19 13  1  0
  1 20  1  0
  1 21  1  0
  1 22  1  0
  4 23  1  0
  5 24  1  0
  5 25  1  0
  5 26  1  0
  6 27  1  0
  6 28  1  0
  6 29  1  0
 14 30  1  0
 14 31  1  0
 15 32  1  0
 15 33  1  0
 16 34  1  0
 16 35  1  0
 17 36  1  6
 18 37  1  0
 18 38  1  0
 18 39  1  0
 19 40  1  0
 19 41  1  0
M  END
$$$$
