@<TRIPOS>MOLECULE
*****
 57 60 0 0 0
SMALL
GASTEIGER

@<TRIPOS>ATOM
      1 C           5.3630   -1.8059    3.0451 C.3     1  UNL1        0.0790
      2 O           5.8435   -1.0924    1.9191 O.3     1  UNL1       -0.4914
      3 C           4.9941   -0.2249    1.2511 C.ar    1  UNL1        0.1618
      4 C           3.6883   -0.0144    1.6273 C.ar    1  UNL1       -0.0124
      5 C           2.9045    0.8858    0.8862 C.ar    1  UNL1       -0.0325
      6 C           3.4017    1.5609   -0.2013 C.ar    1  UNL1        0.0246
      7 C           4.7234    1.3256   -0.5538 C.ar    1  UNL1       -0.0056
      8 C           5.5191    0.4449    0.1575 C.ar    1  UNL1        0.1622
      9 O           6.8383    0.2198   -0.2062 O.3     1  UNL1       -0.4914
     10 C           7.3402    0.9205   -1.3262 C.3     1  UNL1        0.0790
     11 C           2.3582    2.4218   -0.7824 C.2     1  UNL1        0.1669
     12 O           2.5142    3.4302   -1.4713 O.2     1  UNL1       -0.2917
     13 C           1.0827    1.7448   -0.3132 C.3     1  UNL1        0.0264
     14 C           0.8023    0.5356   -1.1541 C.3     1  UNL1       -0.0399
     15 C          -0.4372   -0.1408   -0.7132 C.3     1  UNL1       -0.0381
     16 C          -0.7462   -1.3859   -1.5425 C.3     1  UNL1       -0.0373
     17 C          -1.9948   -2.0570   -1.0639 C.3     1  UNL1       -0.0005
     18 N          -3.0966   -1.1845   -0.8527 N.3     1  UNL1       -0.2981
     19 C          -4.2279   -1.8766   -0.2893 C.3     1  UNL1        0.0254
     20 C          -5.3556   -0.9453   -0.0736 C.ar    1  UNL1       -0.0151
     21 C          -5.6456   -0.5009    1.1914 C.ar    1  UNL1       -0.0560
     22 C          -6.7122    0.3822    1.4046 C.ar    1  UNL1       -0.0614
     23 C          -7.4756    0.8088    0.3422 C.ar    1  UNL1       -0.0604
     24 C          -7.1830    0.3629   -0.9201 C.ar    1  UNL1       -0.0431
     25 C          -6.1226   -0.5146   -1.1280 C.ar    1  UNL1        0.0454
     26 CL         -5.7489   -1.0864   -2.7507 Cl      1  UNL1       -0.0832
     27 C          -2.7991    0.0497   -0.2223 C.3     1  UNL1       -0.0005
     28 C          -1.6418    0.7495   -0.9278 C.3     1  UNL1       -0.0373
     29 C           1.4975    1.3054    1.0711 C.3     1  UNL1       -0.0170
     30 H           6.0317   -2.6384    3.3271 H       1  UNL1        0.0660
     31 H           4.3445   -2.2287    2.8717 H       1  UNL1        0.0660
     32 H           5.2999   -1.1354    3.9408 H       1  UNL1        0.0660
     33 H           3.2740   -0.5374    2.4834 H       1  UNL1        0.0658
     34 H           5.1286    1.8640   -1.4245 H       1  UNL1        0.0662
     35 H           6.6886    0.7348   -2.2238 H       1  UNL1        0.0660
     36 H           7.3341    2.0135   -1.1597 H       1  UNL1        0.0660
     37 H           8.3780    0.5956   -1.5520 H       1  UNL1        0.0660
     38 H           0.3012    2.5057   -0.3085 H       1  UNL1        0.0384
     39 H           0.7100    0.7832   -2.2381 H       1  UNL1        0.0275
     40 H           1.6347   -0.2131   -1.0949 H       1  UNL1        0.0275
     41 H          -0.3962   -0.4683    0.3309 H       1  UNL1        0.0302
     42 H           0.1027   -2.0909   -1.5534 H       1  UNL1        0.0280
     43 H          -0.9158   -1.0653   -2.5923 H       1  UNL1        0.0280
     44 H          -1.7412   -2.5109   -0.0591 H       1  UNL1        0.0427
     45 H          -2.2677   -2.9244   -1.6946 H       1  UNL1        0.0427
     46 H          -3.8872   -2.2825    0.6999 H       1  UNL1        0.0476
     47 H          -4.5223   -2.6987   -0.9777 H       1  UNL1        0.0476
     48 H          -5.0746   -0.8103    2.0429 H       1  UNL1        0.0621
     49 H          -6.9458    0.7367    2.4047 H       1  UNL1        0.0618
     50 H          -8.3139    1.5039    0.5142 H       1  UNL1        0.0618
     51 H          -7.7859    0.6990   -1.7635 H       1  UNL1        0.0632
     52 H          -2.4290   -0.1279    0.8298 H       1  UNL1        0.0427
     53 H          -3.6277    0.7487   -0.1362 H       1  UNL1        0.0427
     54 H          -1.4884    1.7568   -0.5698 H       1  UNL1        0.0280
     55 H          -1.8858    0.6941   -2.0202 H       1  UNL1        0.0280
     56 H           1.5002    2.2485    1.6903 H       1  UNL1        0.0320
     57 H           0.8695    0.5290    1.5158 H       1  UNL1        0.0320
@<TRIPOS>BOND
     1     1     2    1
     2     2     3    1
     3     3     4   ar
     4     4     5   ar
     5     5     6   ar
     6     6     7   ar
     7     7     8   ar
     8     8     9    1
     9     9    10    1
    10     6    11    1
    11    11    12    2
    12    11    13    1
    13    13    14    1
    14    14    15    1
    15    15    16    1
    16    16    17    1
    17    17    18    1
    18    18    19    1
    19    19    20    1
    20    20    21   ar
    21    21    22   ar
    22    22    23   ar
    23    23    24   ar
    24    24    25   ar
    25    25    26    1
    26    18    27    1
    27    27    28    1
    28    13    29    1
    29     8     3   ar
    30    28    15    1
    31    29     5    1
    32    25    20   ar
    33     1    30    1
    34     1    31    1
    35     1    32    1
    36     4    33    1
    37     7    34    1
    38    10    35    1
    39    10    36    1
    40    10    37    1
    41    13    38    1
    42    14    39    1
    43    14    40    1
    44    15    41    1
    45    16    42    1
    46    16    43    1
    47    17    44    1
    48    17    45    1
    49    19    46    1
    50    19    47    1
    51    21    48    1
    52    22    49    1
    53    23    50    1
    54    24    51    1
    55    27    52    1
    56    27    53    1
    57    28    54    1
    58    28    55    1
    59    29    56    1
    60    29    57    1
