
     RDKit          3D

 57 60  0  0  0  0  0  0  0  0999 V2000
    5.3630   -1.8059    3.0451 C   0  0  0  0  0  0  0  0  0  0  0  0
    5.8435   -1.0924    1.9191 O   0  0  0  0  0  0  0  0  0  0  0  0
    4.9941   -0.2249    1.2511 C   0  0  0  0  0  0  0  0  0  0  0  0
    3.6883   -0.0144    1.6273 C   0  0  0  0  0  0  0  0  0  0  0  0
    2.9045    0.8858    0.8862 C   0  0  0  0  0  0  0  0  0  0  0  0
    3.4017    1.5609   -0.2013 C   0  0  0  0  0  0  0  0  0  0  0  0
    4.7234    1.3256   -0.5538 C   0  0  0  0  0  0  0  0  0  0  0  0
    5.5191    0.4449    0.1575 C   0  0  0  0  0  0  0  0  0  0  0  0
    6.8383    0.2198   -0.2062 O   0  0  0  0  0  0  0  0  0  0  0  0
    7.3402    0.9205   -1.3262 C   0  0  0  0  0  0  0  0  0  0  0  0
    2.3582    2.4218   -0.7824 C   0  0  0  0  0  0  0  0  0  0  0  0
    2.5142    3.4302   -1.4713 O   0  0  0  0  0  0  0  0  0  0  0  0
    1.0827    1.7448   -0.3132 C   0  0  0  0  0  0  0  0  0  0  0  0
    0.8023    0.5356   -1.1541 C   0  0  0  0  0  0  0  0  0  0  0  0
   -0.4372   -0.1408   -0.7132 C   0  0  0  0  0  0  0  0  0  0  0  0
   -0.7462   -1.3859   -1.5425 C   0  0  0  0  0  0  0  0  0  0  0  0
   -1.9948   -2.0570   -1.0639 C   0  0  0  0  0  0  0  0  0  0  0  0
   -3.0966   -1.1845   -0.8527 N   0  0  0  0  0  0  0  0  0  0  0  0
   -4.2279   -1.8766   -0.2893 C   0  0  0  0  0  0  0  0  0  0  0  0
   -5.3556   -0.9453   -0.0736 C   0  0  0  0  0  0  0  0  0  0  0  0
   -5.6456   -0.5009    1.1914 C   0  0  0  0  0  0  0  0  0  0  0  0
   -6.7122    0.3822    1.4046 C   0  0  0  0  0  0  0  0  0  0  0  0
   -7.4756    0.8088    0.3422 C   0  0  0  0  0  0  0  0  0  0  0  0
   -7.1830    0.3629   -0.9201 C   0  0  0  0  0  0  0  0  0  0  0  0
   -6.1226   -0.5146   -1.1280 C   0  0  0  0  0  0  0  0  0  0  0  0
   -5.7489   -1.0864   -2.7507 Cl  0  0  0  0  0  0  0  0  0  0  0  0
   -2.7991    0.0497   -0.2223 C   0  0  0  0  0  0  0  0  0  0  0  0
   -1.6418    0.7495   -0.9278 C   0  0  0  0  0  0  0  0  0  0  0  0
    1.4975    1.3054    1.0711 C   0  0  0  0  0  0  0  0  0  0  0  0
    6.0317   -2.6384    3.3271 H   0  0  0  0  0  0  0  0  0  0  0  0
    4.3445   -2.2287    2.8717 H   0  0  0  0  0  0  0  0  0  0  0  0
    5.2999   -1.1354    3.9408 H   0  0  0  0  0  0  0  0  0  0  0  0
    3.2740   -0.5374    2.4834 H   0  0  0  0  0  0  0  0  0  0  0  0
    5.1286    1.8640   -1.4245 H   0  0  0  0  0  0  0  0  0  0  0  0
    6.6886    0.7348   -2.2238 H   0  0  0  0  0  0  0  0  0  0  0  0
    7.3341    2.0135   -1.1597 H   0  0  0  0  0  0  0  0  0  0  0  0
    8.3780    0.5956   -1.5520 H   0  0  0  0  0  0  0  0  0  0  0  0
    0.3012    2.5057   -0.3085 H   0  0  0  0  0  0  0  0  0  0  0  0
    0.7100    0.7832   -2.2381 H   0  0  0  0  0  0  0  0  0  0  0  0
    1.6347   -0.2131   -1.0949 H   0  0  0  0  0  0  0  0  0  0  0  0
   -0.3962   -0.4683    0.3309 H   0  0  0  0  0  0  0  0  0  0  0  0
    0.1027   -2.0909   -1.5534 H   0  0  0  0  0  0  0  0  0  0  0  0
   -0.9158   -1.0653   -2.5923 H   0  0  0  0  0  0  0  0  0  0  0  0
   -1.7412   -2.5109   -0.0591 H   0  0  0  0  0  0  0  0  0  0  0  0
   -2.2677   -2.9244   -1.6946 H   0  0  0  0  0  0  0  0  0  0  0  0
   -3.8872   -2.2825    0.6999 H   0  0  0  0  0  0  0  0  0  0  0  0
   -4.5223   -2.6987   -0.9777 H   0  0  0  0  0  0  0  0  0  0  0  0
   -5.0746   -0.8103    2.0429 H   0  0  0  0  0  0  0  0  0  0  0  0
   -6.9458    0.7367    2.4047 H   0  0  0  0  0  0  0  0  0  0  0  0
   -8.3139    1.5039    0.5142 H   0  0  0  0  0  0  0  0  0  0  0  0
   -7.7859    0.6990   -1.7635 H   0  0  0  0  0  0  0  0  0  0  0  0
   -2.4290   -0.1279    0.8298 H   0  0  0  0  0  0  0  0  0  0  0  0
   -3.6277    0.7487   -0.1362 H   0  0  0  0  0  0  0  0  0  0  0  0
   -1.4884    1.7568   -0.5698 H   0  0  0  0  0  0  0  0  0  0  0  0
   -1.8858    0.6941   -2.0202 H   0  0  0  0  0  0  0  0  0  0  0  0
    1.5002    2.2485    1.6903 H   0  0  0  0  0  0  0  0  0  0  0  0
    0.8695    0.5290    1.5158 H   0  0  0  0  0  0  0  0  0  0  0  0
  1  2  1  0
  2  3  1  0
  3  4  2  0
  4  5  1  0
  5  6  2  0
  6  7  1  0
  7  8  2  0
  8  9  1  0
  9 10  1  0
  6 11  1  0
 11 12  2  0
 11 13  1  0
 13 14  1  0
 14 15  1  0
 15 16  1  0
 16 17  1  0
 17 18  1  0
 18 19  1  0
 19 20  1  0
 20 21  2  0
 21 22  1  0
 22 23  2  0
 23 24  1  0
 24 25  2  0
 25 26  1  0
 18 27  1  0
 27 28  1  0
 13 29  1  0
  8  3  1  0
 28 15  1  0
 29  5  1  0
 25 20  1  0
  1 30  1  0
  1 31  1  0
  1 32  1  0
  4 33  1  0
  7 34  1  0
 10 35  1  0
 10 36  1  0
 10 37  1  0
 13 38  1  0
 14 39  1  0
 14 40  1  0
 15 41  1  0
 16 42  1  0
 16 43  1  0
 17 44  1  0
 17 45  1  0
 19 46  1  0
 19 47  1  0
 21 48  1  0
 22 49  1  0
 23 50  1  0
 24 51  1  0
 27 52  1  0
 27 53  1  0
 28 54  1  0
 28 55  1  0
 29 56  1  0
 29 57  1  0
M  END
$$$$
