@<TRIPOS>MOLECULE
*****
 61 65 0 0 0
SMALL
GASTEIGER

@<TRIPOS>ATOM
      1 C          -3.9903    4.4653    2.8001 C.3     1  UNL1       -0.0372
      2 C          -4.3495    3.6706    1.5900 C.3     1  UNL1        0.0716
      3 C          -3.3436    2.5257    1.3597 C.3     1  UNL1        0.0408
      4 N          -3.7782    1.8241    0.1799 N.am    1  UNL1       -0.2957
      5 C          -3.2487    0.5883   -0.2145 C.2     1  UNL1        0.2326
      6 O          -3.7305    0.1127   -1.3070 O.2     1  UNL1       -0.2741
      7 C          -2.2201   -0.2017    0.5083 C.3     1  UNL1        0.1054
      8 C          -0.8256    0.2392    0.5624 C.3     1  UNL1       -0.0220
      9 C          -1.2642   -0.9119   -0.3242 C.3     1  UNL1        0.0134
     10 C          -0.9163   -2.3119   -0.1044 C.3     1  UNL1        0.0935
     11 C          -1.2963   -2.9846   -1.4865 C.3     1  UNL1       -0.0351
     12 C           0.5144   -2.6120    0.0032 C.ar    1  UNL1        0.0158
     13 C           1.5883   -1.7524   -0.0043 C.ar    1  UNL1       -0.0463
     14 C           2.8788   -2.1581   -0.0975 C.ar    1  UNL1       -0.0217
     15 C           4.0636   -1.3202   -0.2117 C.2     1  UNL1       -0.0172
     16 C           4.0247   -0.1406   -0.7780 C.2     1  UNL1        0.1492
     17 F           2.8979    0.3596   -1.2640 F       1  UNL1       -0.2032
     18 C           5.2886    0.6002   -1.0483 C.ar    1  UNL1        0.0990
     19 C           6.4820    0.0886   -0.7105 C.ar    1  UNL1       -0.0322
     20 C           7.6685    0.6737   -1.1648 C.ar    1  UNL1       -0.0408
     21 C           7.6162    1.7617   -1.9530 C.ar    1  UNL1        0.0699
     22 C           8.7208    2.2908   -2.6753 C.1     1  UNL1        0.1007
     23 N           9.6418    2.7289   -3.2908 N.1     1  UNL1       -0.1908
     24 C           6.3458    2.3080   -2.2935 C.ar    1  UNL1        0.0457
     25 N           5.2622    1.6869   -1.8143 N.ar    1  UNL1       -0.2514
     26 C           3.1828   -3.5298   -0.1851 C.ar    1  UNL1       -0.0518
     27 C           2.1209   -4.4230   -0.1712 C.ar    1  UNL1       -0.0255
     28 C           0.8591   -3.9708   -0.0849 C.ar    1  UNL1        0.1289
     29 F          -0.1304   -4.8861   -0.0382 F       1  UNL1       -0.2051
     30 N          -1.7162   -3.0228    0.8297 N.2     1  UNL1       -0.2521
     31 C          -2.5204   -2.7830    1.7132 C.2     1  UNL1        0.1485
     32 N          -3.2180   -3.6859    2.5527 N.pl3   1  UNL1       -0.3380
     33 S          -2.9089   -1.0308    1.9701 S.3     1  UNL1       -0.0746
     34 C          -4.8344    2.4341   -0.6064 C.3     1  UNL1        0.0382
     35 C          -6.0226    2.5972    0.3595 C.3     1  UNL1        0.0638
     36 O          -5.6573    3.2753    1.4877 O.3     1  UNL1       -0.3737
     37 H          -3.1439    5.1511    2.6124 H       1  UNL1        0.0255
     38 H          -4.8447    5.1108    3.0770 H       1  UNL1        0.0255
     39 H          -3.7108    3.8494    3.6667 H       1  UNL1        0.0255
     40 H          -4.1637    4.3541    0.7026 H       1  UNL1        0.0609
     41 H          -2.3592    3.0218    1.2178 H       1  UNL1        0.0490
     42 H          -3.3450    1.8577    2.2419 H       1  UNL1        0.0490
     43 H          -0.3200    0.0401    1.5323 H       1  UNL1        0.0287
     44 H          -0.5102    1.2040    0.1064 H       1  UNL1        0.0287
     45 H          -1.2943   -0.5420   -1.4360 H       1  UNL1        0.0346
     46 H          -1.2331   -2.1819   -2.2745 H       1  UNL1        0.0256
     47 H          -2.3285   -3.3091   -1.4123 H       1  UNL1        0.0256
     48 H          -0.5510   -3.7253   -1.7805 H       1  UNL1        0.0256
     49 H           1.3677   -0.6872    0.0748 H       1  UNL1        0.0628
     50 H           4.9879   -1.6877    0.1806 H       1  UNL1        0.0653
     51 H           6.6625   -0.7918   -0.0780 H       1  UNL1        0.0640
     52 H           8.6412    0.2629   -0.8966 H       1  UNL1        0.0631
     53 H           6.3277    3.1944   -2.9246 H       1  UNL1        0.0843
     54 H           4.1808   -3.9148   -0.2586 H       1  UNL1        0.0624
     55 H           2.3590   -5.4746   -0.2382 H       1  UNL1        0.0646
     56 H          -2.9598   -3.7361    3.5719 H       1  UNL1        0.1442
     57 H          -3.9611   -4.2912    2.1917 H       1  UNL1        0.1442
     58 H          -5.1729    1.6795   -1.3623 H       1  UNL1        0.0487
     59 H          -4.5890    3.4041   -1.0147 H       1  UNL1        0.0487
     60 H          -6.7963    3.1404   -0.1838 H       1  UNL1        0.0575
     61 H          -6.4281    1.5660    0.5495 H       1  UNL1        0.0575
@<TRIPOS>BOND
     1     1     2    1
     2     2     3    1
     3     3     4    1
     4     4     5   am
     5     5     6    2
     6     7     5    1
     7     7     8    1
     8     8     9    1
     9     9    10    1
    10    10    11    1
    11    10    12    1
    12    12    13   ar
    13    13    14   ar
    14    14    15    1
    15    15    16    2
    16    16    17    1
    17    16    18    1
    18    18    19   ar
    19    19    20   ar
    20    20    21   ar
    21    21    22    1
    22    22    23    3
    23    21    24   ar
    24    24    25   ar
    25    14    26   ar
    26    26    27   ar
    27    27    28   ar
    28    28    29    1
    29    10    30    1
    30    30    31    2
    31    31    32    1
    32    31    33    1
    33     4    34    1
    34    34    35    1
    35    35    36    1
    36    36     2    1
    37     9     7    1
    38    28    12   ar
    39    33     7    1
    40    25    18   ar
    41     1    37    1
    42     1    38    1
    43     1    39    1
    44     2    40    1
    45     3    41    1
    46     3    42    1
    47     8    43    1
    48     8    44    1
    49     9    45    1
    50    11    46    1
    51    11    47    1
    52    11    48    1
    53    13    49    1
    54    15    50    1
    55    19    51    1
    56    20    52    1
    57    24    53    1
    58    26    54    1
    59    27    55    1
    60    32    56    1
    61    32    57    1
    62    34    58    1
    63    34    59    1
    64    35    60    1
    65    35    61    1
