
     RDKit          3D

 61 65  0  0  0  0  0  0  0  0999 V2000
   -3.9903    4.4653    2.8001 C   0  0  0  0  0  0  0  0  0  0  0  0
   -4.3495    3.6706    1.5900 C   0  0  1  0  0  0  0  0  0  0  0  0
   -3.3436    2.5257    1.3597 C   0  0  0  0  0  0  0  0  0  0  0  0
   -3.7782    1.8241    0.1799 N   0  0  0  0  0  0  0  0  0  0  0  0
   -3.2487    0.5883   -0.2145 C   0  0  0  0  0  0  0  0  0  0  0  0
   -3.7305    0.1127   -1.3070 O   0  0  0  0  0  0  0  0  0  0  0  0
   -2.2201   -0.2017    0.5083 C   0  0  2  0  0  0  0  0  0  0  0  0
   -0.8256    0.2392    0.5624 C   0  0  0  0  0  0  0  0  0  0  0  0
   -1.2642   -0.9119   -0.3242 C   0  0  1  0  0  0  0  0  0  0  0  0
   -0.9163   -2.3119   -0.1044 C   0  0  1  0  0  0  0  0  0  0  0  0
   -1.2963   -2.9846   -1.4865 C   0  0  0  0  0  0  0  0  0  0  0  0
    0.5144   -2.6120    0.0032 C   0  0  0  0  0  0  0  0  0  0  0  0
    1.5883   -1.7524   -0.0043 C   0  0  0  0  0  0  0  0  0  0  0  0
    2.8788   -2.1581   -0.0975 C   0  0  0  0  0  0  0  0  0  0  0  0
    4.0636   -1.3202   -0.2117 C   0  0  0  0  0  0  0  0  0  0  0  0
    4.0247   -0.1406   -0.7780 C   0  0  0  0  0  0  0  0  0  0  0  0
    2.8979    0.3596   -1.2640 F   0  0  0  0  0  0  0  0  0  0  0  0
    5.2886    0.6002   -1.0483 C   0  0  0  0  0  0  0  0  0  0  0  0
    6.4820    0.0886   -0.7105 C   0  0  0  0  0  0  0  0  0  0  0  0
    7.6685    0.6737   -1.1648 C   0  0  0  0  0  0  0  0  0  0  0  0
    7.6162    1.7617   -1.9530 C   0  0  0  0  0  0  0  0  0  0  0  0
    8.7208    2.2908   -2.6753 C   0  0  0  0  0  0  0  0  0  0  0  0
    9.6418    2.7289   -3.2908 N   0  0  0  0  0  0  0  0  0  0  0  0
    6.3458    2.3080   -2.2935 C   0  0  0  0  0  0  0  0  0  0  0  0
    5.2622    1.6869   -1.8143 N   0  0  0  0  0  0  0  0  0  0  0  0
    3.1828   -3.5298   -0.1851 C   0  0  0  0  0  0  0  0  0  0  0  0
    2.1209   -4.4230   -0.1712 C   0  0  0  0  0  0  0  0  0  0  0  0
    0.8591   -3.9708   -0.0849 C   0  0  0  0  0  0  0  0  0  0  0  0
   -0.1304   -4.8861   -0.0382 F   0  0  0  0  0  0  0  0  0  0  0  0
   -1.7162   -3.0228    0.8297 N   0  0  0  0  0  0  0  0  0  0  0  0
   -2.5204   -2.7830    1.7132 C   0  0  0  0  0  0  0  0  0  0  0  0
   -3.2180   -3.6859    2.5527 N   0  0  0  0  0  0  0  0  0  0  0  0
   -2.9089   -1.0308    1.9701 S   0  0  0  0  0  0  0  0  0  0  0  0
   -4.8344    2.4341   -0.6064 C   0  0  0  0  0  0  0  0  0  0  0  0
   -6.0226    2.5972    0.3595 C   0  0  0  0  0  0  0  0  0  0  0  0
   -5.6573    3.2753    1.4877 O   0  0  0  0  0  0  0  0  0  0  0  0
   -3.1439    5.1511    2.6124 H   0  0  0  0  0  0  0  0  0  0  0  0
   -4.8447    5.1108    3.0770 H   0  0  0  0  0  0  0  0  0  0  0  0
   -3.7108    3.8494    3.6667 H   0  0  0  0  0  0  0  0  0  0  0  0
   -4.1637    4.3541    0.7026 H   0  0  0  0  0  0  0  0  0  0  0  0
   -2.3592    3.0218    1.2178 H   0  0  0  0  0  0  0  0  0  0  0  0
   -3.3450    1.8577    2.2419 H   0  0  0  0  0  0  0  0  0  0  0  0
   -0.3200    0.0401    1.5323 H   0  0  0  0  0  0  0  0  0  0  0  0
   -0.5102    1.2040    0.1064 H   0  0  0  0  0  0  0  0  0  0  0  0
   -1.2943   -0.5420   -1.4360 H   0  0  0  0  0  0  0  0  0  0  0  0
   -1.2331   -2.1819   -2.2745 H   0  0  0  0  0  0  0  0  0  0  0  0
   -2.3285   -3.3091   -1.4123 H   0  0  0  0  0  0  0  0  0  0  0  0
   -0.5510   -3.7253   -1.7805 H   0  0  0  0  0  0  0  0  0  0  0  0
    1.3677   -0.6872    0.0748 H   0  0  0  0  0  0  0  0  0  0  0  0
    4.9879   -1.6877    0.1806 H   0  0  0  0  0  0  0  0  0  0  0  0
    6.6625   -0.7918   -0.0780 H   0  0  0  0  0  0  0  0  0  0  0  0
    8.6412    0.2629   -0.8966 H   0  0  0  0  0  0  0  0  0  0  0  0
    6.3277    3.1944   -2.9246 H   0  0  0  0  0  0  0  0  0  0  0  0
    4.1808   -3.9148   -0.2586 H   0  0  0  0  0  0  0  0  0  0  0  0
    2.3590   -5.4746   -0.2382 H   0  0  0  0  0  0  0  0  0  0  0  0
   -2.9598   -3.7361    3.5719 H   0  0  0  0  0  0  0  0  0  0  0  0
   -3.9611   -4.2912    2.1917 H   0  0  0  0  0  0  0  0  0  0  0  0
   -5.1729    1.6795   -1.3623 H   0  0  0  0  0  0  0  0  0  0  0  0
   -4.5890    3.4041   -1.0147 H   0  0  0  0  0  0  0  0  0  0  0  0
   -6.7963    3.1404   -0.1838 H   0  0  0  0  0  0  0  0  0  0  0  0
   -6.4281    1.5660    0.5495 H   0  0  0  0  0  0  0  0  0  0  0  0
  1  2  1  0
  2  3  1  0
  3  4  1  0
  4  5  1  0
  5  6  2  0
  7  5  1  6
  7  8  1  0
  8  9  1  0
  9 10  1  0
 10 11  1  6
 10 12  1  0
 12 13  2  0
 13 14  1  0
 14 15  1  0
 15 16  2  0
 16 17  1  0
 16 18  1  0
 18 19  2  0
 19 20  1  0
 20 21  2  0
 21 22  1  0
 22 23  3  0
 21 24  1  0
 24 25  2  0
 14 26  2  0
 26 27  1  0
 27 28  2  0
 28 29  1  0
 10 30  1  0
 30 31  2  0
 31 32  1  0
 31 33  1  0
  4 34  1  0
 34 35  1  0
 35 36  1  0
 36  2  1  0
  9  7  1  0
 28 12  1  0
 33  7  1  0
 25 18  1  0
  1 37  1  0
  1 38  1  0
  1 39  1  0
  2 40  1  6
  3 41  1  0
  3 42  1  0
  8 43  1  0
  8 44  1  0
  9 45  1  6
 11 46  1  0
 11 47  1  0
 11 48  1  0
 13 49  1  0
 15 50  1  0
 19 51  1  0
 20 52  1  0
 24 53  1  0
 26 54  1  0
 27 55  1  0
 32 56  1  0
 32 57  1  0
 34 58  1  0
 34 59  1  0
 35 60  1  0
 35 61  1  0
M  END
$$$$
