
     RDKit          3D

 67 70  0  0  0  0  0  0  0  0999 V2000
   -9.6017    1.3977    0.7717 C   0  0  0  0  0  0  0  0  0  0  0  0
   -9.6111   -0.0362    0.2704 C   0  0  0  0  0  0  0  0  0  0  0  0
   -9.9577   -0.0152   -1.1873 C   0  0  0  0  0  0  0  0  0  0  0  0
   -8.2002   -0.5674    0.4880 C   0  0  0  0  0  0  0  0  0  0  0  0
   -7.5627   -1.3609    1.0259 N   0  0  0  0  0  0  0  0  0  0  0  0
   -6.2592   -1.5513    0.9877 C   0  0  0  0  0  0  0  0  0  0  0  0
   -5.5544   -0.7129    0.2193 C   0  0  0  0  0  0  0  0  0  0  0  0
   -4.1301   -0.5296   -0.1314 C   0  0  2  0  0  0  0  0  0  0  0  0
   -3.9514   -0.6389   -1.5097 O   0  0  0  0  0  0  0  0  0  0  0  0
   -3.2318   -1.5068    0.5276 C   0  0  0  0  0  0  0  0  0  0  0  0
   -1.9669   -0.9589    1.0896 C   0  0  0  0  0  0  0  0  0  0  0  0
   -1.3199    0.1379    0.3247 C   0  0  2  0  0  0  0  0  0  0  0  0
   -0.5931    1.0175    1.2187 N   0  0  0  0  0  0  0  0  0  0  0  0
    0.4632    0.4130    1.9882 C   0  0  0  0  0  0  0  0  0  0  0  0
    1.4445    0.8551    0.9636 C   0  0  0  0  0  0  0  0  0  0  0  0
    2.6841    1.4059    1.4464 N   0  0  0  0  0  0  0  0  0  0  0  0
    3.9121    0.9033    0.9496 C   0  0  0  0  0  0  0  0  0  0  0  0
    3.8658   -0.0150    0.0957 O   0  0  0  0  0  0  0  0  0  0  0  0
    5.2004    1.4645    1.4424 C   0  0  0  0  0  0  0  0  0  0  0  0
    6.2801    0.7797    0.7781 N   0  0  0  0  0  0  0  0  0  0  0  0
    6.3921    0.8252   -0.6269 C   0  0  0  0  0  0  0  0  0  0  0  0
    5.5464    1.4649   -1.2892 O   0  0  0  0  0  0  0  0  0  0  0  0
    7.4699    0.1419   -1.2935 C   0  0  0  0  0  0  0  0  0  0  0  0
    7.5470    0.2129   -2.6773 C   0  0  0  0  0  0  0  0  0  0  0  0
    8.5415   -0.4066   -3.4136 C   0  0  0  0  0  0  0  0  0  0  0  0
    9.5239   -1.1433   -2.7510 C   0  0  0  0  0  0  0  0  0  0  0  0
    9.4596   -1.2216   -1.3832 C   0  0  0  0  0  0  0  0  0  0  0  0
   10.4879   -1.9951   -0.6554 C   0  0  0  0  0  0  0  0  0  0  0  0
   11.1446   -1.1285    0.2028 F   0  0  0  0  0  0  0  0  0  0  0  0
   11.3396   -2.6461   -1.5010 F   0  0  0  0  0  0  0  0  0  0  0  0
    9.8081   -2.9163    0.1531 F   0  0  0  0  0  0  0  0  0  0  0  0
    8.4580   -0.5950   -0.6705 C   0  0  0  0  0  0  0  0  0  0  0  0
    0.3997    1.8280    0.5473 C   0  0  0  0  0  0  0  0  0  0  0  0
   -2.2918    1.0103   -0.4377 C   0  0  0  0  0  0  0  0  0  0  0  0
   -3.6450    0.8700    0.2683 C   0  0  0  0  0  0  0  0  0  0  0  0
   -6.8202    0.3624   -0.4512 S   0  0  0  0  0  0  0  0  0  0  0  0
   -8.6676    1.8609    0.3675 H   0  0  0  0  0  0  0  0  0  0  0  0
  -10.4360    1.9979    0.3543 H   0  0  0  0  0  0  0  0  0  0  0  0
   -9.5425    1.4475    1.8635 H   0  0  0  0  0  0  0  0  0  0  0  0
  -10.2306   -0.6924    0.8733 H   0  0  0  0  0  0  0  0  0  0  0  0
   -9.0305    0.0317   -1.7886 H   0  0  0  0  0  0  0  0  0  0  0  0
  -10.5956   -0.8938   -1.4803 H   0  0  0  0  0  0  0  0  0  0  0  0
  -10.5294    0.9163   -1.4227 H   0  0  0  0  0  0  0  0  0  0  0  0
   -5.7793   -2.3619    1.5615 H   0  0  0  0  0  0  0  0  0  0  0  0
   -4.8427   -0.4189   -1.9200 H   0  0  0  0  0  0  0  0  0  0  0  0
   -3.7992   -1.9767    1.3807 H   0  0  0  0  0  0  0  0  0  0  0  0
   -3.0171   -2.3792   -0.1522 H   0  0  0  0  0  0  0  0  0  0  0  0
   -1.2335   -1.8174    1.1440 H   0  0  0  0  0  0  0  0  0  0  0  0
   -2.1611   -0.6229    2.1462 H   0  0  0  0  0  0  0  0  0  0  0  0
   -0.6169   -0.3142   -0.4269 H   0  0  0  0  0  0  0  0  0  0  0  0
    0.3704   -0.6821    2.1442 H   0  0  0  0  0  0  0  0  0  0  0  0
    0.5187    0.8979    2.9831 H   0  0  0  0  0  0  0  0  0  0  0  0
    1.5870    0.0472    0.2033 H   0  0  0  0  0  0  0  0  0  0  0  0
    2.6181    2.1747    2.1632 H   0  0  0  0  0  0  0  0  0  0  0  0
    5.2619    1.3801    2.5258 H   0  0  0  0  0  0  0  0  0  0  0  0
    5.2534    2.5484    1.1961 H   0  0  0  0  0  0  0  0  0  0  0  0
    6.9558    0.2628    1.3688 H   0  0  0  0  0  0  0  0  0  0  0  0
    6.7830    0.7877   -3.2079 H   0  0  0  0  0  0  0  0  0  0  0  0
    8.5771   -0.3345   -4.4874 H   0  0  0  0  0  0  0  0  0  0  0  0
   10.2897   -1.6178   -3.3475 H   0  0  0  0  0  0  0  0  0  0  0  0
    8.4408   -0.6795    0.4060 H   0  0  0  0  0  0  0  0  0  0  0  0
    0.5061    2.8666    0.9304 H   0  0  0  0  0  0  0  0  0  0  0  0
    0.2839    1.8742   -0.5613 H   0  0  0  0  0  0  0  0  0  0  0  0
   -1.9661    2.0484   -0.4787 H   0  0  0  0  0  0  0  0  0  0  0  0
   -2.4424    0.6078   -1.4601 H   0  0  0  0  0  0  0  0  0  0  0  0
   -3.4730    0.8590    1.3665 H   0  0  0  0  0  0  0  0  0  0  0  0
   -4.3538    1.6477   -0.0247 H   0  0  0  0  0  0  0  0  0  0  0  0
  1  2  1  0
  2  3  1  0
  2  4  1  0
  4  5  2  0
  5  6  1  0
  6  7  2  0
  7  8  1  0
  8  9  1  6
  8 10  1  0
 10 11  1  0
 11 12  1  0
 12 13  1  0
 13 14  1  0
 14 15  1  0
 15 16  1  0
 16 17  1  0
 17 18  2  0
 17 19  1  0
 19 20  1  0
 20 21  1  0
 21 22  2  0
 21 23  1  0
 23 24  2  0
 24 25  1  0
 25 26  2  0
 26 27  1  0
 27 28  1  0
 28 29  1  0
 28 30  1  0
 28 31  1  0
 27 32  2  0
 15 33  1  0
 12 34  1  0
 34 35  1  0
  7 36  1  0
 36  4  1  0
 35  8  1  0
 33 13  1  0
 32 23  1  0
  1 37  1  0
  1 38  1  0
  1 39  1  0
  2 40  1  0
  3 41  1  0
  3 42  1  0
  3 43  1  0
  6 44  1  0
  9 45  1  0
 10 46  1  0
 10 47  1  0
 11 48  1  0
 11 49  1  0
 12 50  1  6
 14 51  1  0
 14 52  1  0
 15 53  1  0
 16 54  1  0
 19 55  1  0
 19 56  1  0
 20 57  1  0
 24 58  1  0
 25 59  1  0
 26 60  1  0
 32 61  1  0
 33 62  1  0
 33 63  1  0
 34 64  1  0
 34 65  1  0
 35 66  1  0
 35 67  1  0
M  END
$$$$
