@<TRIPOS>MOLECULE
*****
 67 70 0 0 0
SMALL
GASTEIGER

@<TRIPOS>ATOM
      1 C          -9.6017    1.3977    0.7717 C.3     1  UNL1       -0.0567
      2 C          -9.6111   -0.0362    0.2704 C.3     1  UNL1        0.0021
      3 C          -9.9577   -0.0152   -1.1873 C.3     1  UNL1       -0.0567
      4 C          -8.2002   -0.5674    0.4880 C.ar    1  UNL1        0.0811
      5 N          -7.5627   -1.3609    1.0259 N.ar    1  UNL1       -0.2517
      6 C          -6.2592   -1.5513    0.9877 C.ar    1  UNL1        0.0410
      7 C          -5.5544   -0.7129    0.2193 C.ar    1  UNL1        0.0408
      8 C          -4.1301   -0.5296   -0.1314 C.3     1  UNL1        0.0985
      9 O          -3.9514   -0.6389   -1.5097 O.3     1  UNL1       -0.3834
     10 C          -3.2318   -1.5068    0.5276 C.3     1  UNL1       -0.0179
     11 C          -1.9669   -0.9589    1.0896 C.3     1  UNL1       -0.0344
     12 C          -1.3199    0.1379    0.3247 C.3     1  UNL1        0.0107
     13 N          -0.5931    1.0175    1.2187 N.3     1  UNL1       -0.2958
     14 C           0.4632    0.4130    1.9882 C.3     1  UNL1        0.0189
     15 C           1.4445    0.8551    0.9636 C.3     1  UNL1        0.0486
     16 N           2.6841    1.4059    1.4464 N.am    1  UNL1       -0.3087
     17 C           3.9121    0.9033    0.9496 C.2     1  UNL1        0.2305
     18 O           3.8658   -0.0150    0.0957 O.2     1  UNL1       -0.2741
     19 C           5.2004    1.4645    1.4424 C.3     1  UNL1        0.0884
     20 N           6.2801    0.7797    0.7781 N.am    1  UNL1       -0.3028
     21 C           6.3921    0.8252   -0.6269 C.2     1  UNL1        0.2445
     22 O           5.5464    1.4649   -1.2892 O.2     1  UNL1       -0.2702
     23 C           7.4699    0.1419   -1.2935 C.ar    1  UNL1        0.0372
     24 C           7.5470    0.2129   -2.6773 C.ar    1  UNL1       -0.0496
     25 C           8.5415   -0.4066   -3.4136 C.ar    1  UNL1       -0.0605
     26 C           9.5239   -1.1433   -2.7510 C.ar    1  UNL1       -0.0501
     27 C           9.4596   -1.2216   -1.3832 C.ar    1  UNL1        0.0555
     28 C          10.4879   -1.9951   -0.6554 C.3     1  UNL1        0.4174
     29 F          11.1446   -1.1285    0.2028 F       1  UNL1       -0.1659
     30 F          11.3396   -2.6461   -1.5010 F       1  UNL1       -0.1659
     31 F           9.8081   -2.9163    0.1531 F       1  UNL1       -0.1659
     32 C           8.4580   -0.5950   -0.6705 C.ar    1  UNL1       -0.0380
     33 C           0.3997    1.8280    0.5473 C.3     1  UNL1        0.0189
     34 C          -2.2918    1.0103   -0.4377 C.3     1  UNL1       -0.0344
     35 C          -3.6450    0.8700    0.2683 C.3     1  UNL1       -0.0179
     36 S          -6.8202    0.3624   -0.4512 S.2     1  UNL1       -0.0739
     37 H          -8.6676    1.8609    0.3675 H       1  UNL1        0.0236
     38 H         -10.4360    1.9979    0.3543 H       1  UNL1        0.0236
     39 H          -9.5425    1.4475    1.8635 H       1  UNL1        0.0236
     40 H         -10.2306   -0.6924    0.8733 H       1  UNL1        0.0364
     41 H          -9.0305    0.0317   -1.7886 H       1  UNL1        0.0236
     42 H         -10.5956   -0.8938   -1.4803 H       1  UNL1        0.0236
     43 H         -10.5294    0.9163   -1.4227 H       1  UNL1        0.0236
     44 H          -5.7793   -2.3619    1.5615 H       1  UNL1        0.0839
     45 H          -4.8427   -0.4189   -1.9200 H       1  UNL1        0.2106
     46 H          -3.7992   -1.9767    1.3807 H       1  UNL1        0.0297
     47 H          -3.0171   -2.3792   -0.1522 H       1  UNL1        0.0297
     48 H          -1.2335   -1.8174    1.1440 H       1  UNL1        0.0281
     49 H          -2.1611   -0.6229    2.1462 H       1  UNL1        0.0281
     50 H          -0.6169   -0.3142   -0.4269 H       1  UNL1        0.0462
     51 H           0.3704   -0.6821    2.1442 H       1  UNL1        0.0445
     52 H           0.5187    0.8979    2.9831 H       1  UNL1        0.0445
     53 H           1.5870    0.0472    0.2033 H       1  UNL1        0.0523
     54 H           2.6181    2.1747    2.1632 H       1  UNL1        0.1491
     55 H           5.2619    1.3801    2.5258 H       1  UNL1        0.0558
     56 H           5.2534    2.5484    1.1961 H       1  UNL1        0.0558
     57 H           6.9558    0.2628    1.3688 H       1  UNL1        0.1495
     58 H           6.7830    0.7877   -3.2079 H       1  UNL1        0.0625
     59 H           8.5771   -0.3345   -4.4874 H       1  UNL1        0.0618
     60 H          10.2897   -1.6178   -3.3475 H       1  UNL1        0.0623
     61 H           8.4408   -0.6795    0.4060 H       1  UNL1        0.0631
     62 H           0.5061    2.8666    0.9304 H       1  UNL1        0.0445
     63 H           0.2839    1.8742   -0.5613 H       1  UNL1        0.0445
     64 H          -1.9661    2.0484   -0.4787 H       1  UNL1        0.0281
     65 H          -2.4424    0.6078   -1.4601 H       1  UNL1        0.0281
     66 H          -3.4730    0.8590    1.3665 H       1  UNL1        0.0297
     67 H          -4.3538    1.6477   -0.0247 H       1  UNL1        0.0297
@<TRIPOS>BOND
     1     1     2    1
     2     2     3    1
     3     2     4    1
     4     4     5   ar
     5     5     6   ar
     6     6     7   ar
     7     7     8    1
     8     8     9    1
     9     8    10    1
    10    10    11    1
    11    11    12    1
    12    12    13    1
    13    13    14    1
    14    14    15    1
    15    15    16    1
    16    16    17   am
    17    17    18    2
    18    17    19    1
    19    19    20    1
    20    20    21   am
    21    21    22    2
    22    21    23    1
    23    23    24   ar
    24    24    25   ar
    25    25    26   ar
    26    26    27   ar
    27    27    28    1
    28    28    29    1
    29    28    30    1
    30    28    31    1
    31    27    32   ar
    32    15    33    1
    33    12    34    1
    34    34    35    1
    35     7    36   ar
    36    36     4   ar
    37    35     8    1
    38    33    13    1
    39    32    23   ar
    40     1    37    1
    41     1    38    1
    42     1    39    1
    43     2    40    1
    44     3    41    1
    45     3    42    1
    46     3    43    1
    47     6    44    1
    48     9    45    1
    49    10    46    1
    50    10    47    1
    51    11    48    1
    52    11    49    1
    53    12    50    1
    54    14    51    1
    55    14    52    1
    56    15    53    1
    57    16    54    1
    58    19    55    1
    59    19    56    1
    60    20    57    1
    61    24    58    1
    62    25    59    1
    63    26    60    1
    64    32    61    1
    65    33    62    1
    66    33    63    1
    67    34    64    1
    68    34    65    1
    69    35    66    1
    70    35    67    1
