@<TRIPOS>MOLECULE
*****
 57 61 0 0 0
SMALL
GASTEIGER

@<TRIPOS>ATOM
      1 C           7.7591    2.0039   -1.1937 C.3     1  UNL1       -0.0361
      2 C           6.8656    0.9585   -0.6236 C.ar    1  UNL1       -0.0049
      3 C           7.3571   -0.2289   -0.1064 C.ar    1  UNL1       -0.0552
      4 C           6.5106   -1.1885    0.4191 C.ar    1  UNL1       -0.0606
      5 C           5.1448   -0.9943    0.4456 C.ar    1  UNL1       -0.0473
      6 C           4.6409    0.1705   -0.0599 C.ar    1  UNL1        0.0662
      7 C           3.3640    0.6332   -0.1676 C.ar    1  UNL1        0.1922
      8 N           2.1311    0.0352    0.2208 N.ar    1  UNL1       -0.2413
      9 C           1.4017    0.3560    1.3128 C.ar    1  UNL1        0.3362
     10 O           1.7187    1.2323    2.1365 O.2     1  UNL1       -0.2459
     11 N           0.2968   -0.4075    1.3700 N.ar    1  UNL1       -0.2873
     12 C          -0.7280   -0.3583    2.3924 C.3     1  UNL1        0.0533
     13 C          -1.8069    0.6117    2.0445 C.ar    1  UNL1       -0.0241
     14 C          -1.6468    1.9165    2.4553 C.ar    1  UNL1       -0.0553
     15 C          -2.6037    2.8567    2.1675 C.ar    1  UNL1       -0.0395
     16 C          -3.7459    2.4712    1.4499 C.ar    1  UNL1        0.0826
     17 CL         -4.9368    3.7096    1.1086 Cl      1  UNL1       -0.0798
     18 C          -3.9473    1.1797    1.0199 C.ar    1  UNL1        0.1402
     19 O          -5.0102    0.7033    0.3230 O.3     1  UNL1       -0.4765
     20 C          -6.1665    1.1701   -0.1909 C.3     1  UNL1        0.1931
     21 C          -7.3995    0.3960    0.3300 C.3     1  UNL1       -0.0172
     22 C          -6.1217    0.9582   -1.6938 C.2     1  UNL1        0.3456
     23 O          -5.1185    0.4282   -2.2292 O.2     1  UNL1       -0.2468
     24 O          -7.1704    1.3370   -2.5098 O.3     1  UNL1       -0.4781
     25 C          -2.9312    0.2473    1.3420 C.ar    1  UNL1       -0.0136
     26 C           0.2760   -1.2448    0.3194 C.ar    1  UNL1        0.0712
     27 C          -0.5882   -2.2247   -0.1238 C.ar    1  UNL1       -0.0244
     28 C          -0.3312   -2.9381   -1.2749 C.ar    1  UNL1        0.0569
     29 C          -1.2689   -4.0050   -1.7605 C.3     1  UNL1        0.4175
     30 F          -1.7361   -4.7869   -0.7418 F       1  UNL1       -0.1659
     31 F          -0.5895   -4.7562   -2.6976 F       1  UNL1       -0.1659
     32 F          -2.3439   -3.4286   -2.4284 F       1  UNL1       -0.1659
     33 C           0.8225   -2.6365   -1.9683 C.ar    1  UNL1       -0.0480
     34 C           1.6977   -1.6609   -1.5407 C.ar    1  UNL1       -0.0351
     35 C           1.4454   -0.9442   -0.3898 C.ar    1  UNL1        0.0766
     36 N           3.4727    1.8595   -0.7550 N.ar    1  UNL1       -0.0587
     37 O           4.7258    2.1094   -0.9812 O.2     1  UNL1       -0.3523
     38 C           5.4889    1.1259   -0.5835 C.ar    1  UNL1        0.1722
     39 H           8.6579    1.5681   -1.6395 H       1  UNL1        0.0279
     40 H           7.1339    2.5623   -1.9403 H       1  UNL1        0.0279
     41 H           7.9687    2.7171   -0.3681 H       1  UNL1        0.0279
     42 H           8.4192   -0.3701   -0.1316 H       1  UNL1        0.0621
     43 H           6.9601   -2.0881    0.8043 H       1  UNL1        0.0618
     44 H           4.4677   -1.7214    0.8469 H       1  UNL1        0.0626
     45 H          -0.2460   -0.0163    3.3455 H       1  UNL1        0.0543
     46 H          -1.1485   -1.3753    2.4928 H       1  UNL1        0.0543
     47 H          -0.7748    2.2072    3.0022 H       1  UNL1        0.0621
     48 H          -2.4811    3.8898    2.4904 H       1  UNL1        0.0633
     49 H          -6.4370    2.2275   -0.0759 H       1  UNL1        0.0849
     50 H          -8.1332    0.4013   -0.4958 H       1  UNL1        0.0271
     51 H          -7.1461   -0.6385    0.5757 H       1  UNL1        0.0271
     52 H          -7.8490    0.9732    1.1572 H       1  UNL1        0.0271
     53 H          -7.3888    0.8430   -3.3797 H       1  UNL1        0.2952
     54 H          -3.0667   -0.7613    1.0187 H       1  UNL1        0.0658
     55 H          -1.4871   -2.4571    0.4216 H       1  UNL1        0.0644
     56 H           1.0130   -3.2043   -2.8714 H       1  UNL1        0.0624
     57 H           2.6091   -1.4237   -2.0899 H       1  UNL1        0.0639
@<TRIPOS>BOND
     1     1     2    1
     2     2     3   ar
     3     3     4   ar
     4     4     5   ar
     5     5     6   ar
     6     6     7   ar
     7     7     8    1
     8     8     9   ar
     9     9    10    2
    10     9    11   ar
    11    11    12    1
    12    12    13    1
    13    13    14   ar
    14    14    15   ar
    15    15    16   ar
    16    16    17    1
    17    16    18   ar
    18    18    19    1
    19    19    20    1
    20    20    21    1
    21    20    22    1
    22    22    23    2
    23    22    24    1
    24    18    25   ar
    25    11    26   ar
    26    26    27   ar
    27    27    28   ar
    28    28    29    1
    29    29    30    1
    30    29    31    1
    31    29    32    1
    32    28    33   ar
    33    33    34   ar
    34    34    35   ar
    35     7    36   ar
    36    36    37   ar
    37    37    38   ar
    38    38     2   ar
    39    38     6   ar
    40    35     8   ar
    41    25    13   ar
    42    35    26   ar
    43     1    39    1
    44     1    40    1
    45     1    41    1
    46     3    42    1
    47     4    43    1
    48     5    44    1
    49    12    45    1
    50    12    46    1
    51    14    47    1
    52    15    48    1
    53    20    49    1
    54    21    50    1
    55    21    51    1
    56    21    52    1
    57    24    53    1
    58    25    54    1
    59    27    55    1
    60    33    56    1
    61    34    57    1
