@<TRIPOS>MOLECULE
*****
 47 51 0 0 0
SMALL
GASTEIGER

@<TRIPOS>ATOM
      1 C          -3.9828   -4.1330    1.8248 C.ar    1  UNL1       -0.0617
      2 C          -4.7475   -2.9870    1.8846 C.ar    1  UNL1       -0.0615
      3 C          -4.1417   -1.7593    1.8730 C.ar    1  UNL1       -0.0582
      4 C          -2.7711   -1.6320    1.8017 C.ar    1  UNL1       -0.0415
      5 C          -2.1461   -0.2883    1.7943 C.3     1  UNL1        0.0185
      6 C          -2.0917    0.3252    0.4575 C.ar    1  UNL1        0.0920
      7 N          -3.0629    1.2044    0.0894 N.ar    1  UNL1       -0.2460
      8 C          -3.0861    1.7668   -1.1340 C.ar    1  UNL1        0.0896
      9 C          -4.0605    2.6545   -1.5304 C.ar    1  UNL1       -0.0342
     10 C          -4.0861    3.2252   -2.7826 C.ar    1  UNL1       -0.0596
     11 C          -3.1021    2.9160   -3.7139 C.ar    1  UNL1       -0.0596
     12 C          -2.1346    2.0277   -3.3049 C.ar    1  UNL1       -0.0342
     13 C          -2.0998    1.4529   -2.0592 C.ar    1  UNL1        0.0916
     14 N          -1.1495    0.5846   -1.6793 N.ar    1  UNL1       -0.2233
     15 C          -1.1174    0.0091   -0.4394 C.ar    1  UNL1        0.1966
     16 N          -0.0774   -0.8675   -0.1251 N.2     1  UNL1       -0.1323
     17 N           1.1279   -0.6108    0.0186 N.2     1  UNL1       -0.1808
     18 C           1.7901    0.6520   -0.0975 C.3     1  UNL1        0.0859
     19 C           3.2594    0.5407    0.1676 C.ar    1  UNL1       -0.0208
     20 C           3.7630    0.6947    1.4334 C.ar    1  UNL1       -0.0531
     21 C           5.0998    0.6051    1.7368 C.ar    1  UNL1       -0.0158
     22 C           5.9896    0.3451    0.7124 C.ar    1  UNL1        0.1662
     23 C           5.5223    0.1822   -0.5846 C.ar    1  UNL1        0.1665
     24 C           4.1682    0.2803   -0.8482 C.ar    1  UNL1       -0.0112
     25 O           6.6062   -0.0616   -1.3896 O.3     1  UNL1       -0.4526
     26 C           7.7669    0.0140   -0.6240 C.3     1  UNL1        0.2332
     27 O           7.3707    0.2017    0.7162 O.3     1  UNL1       -0.4526
     28 C          -2.0002   -2.7556    1.7423 C.ar    1  UNL1       -0.0582
     29 C          -2.6110   -4.0140    1.7539 C.ar    1  UNL1       -0.0615
     30 H          -4.4832   -5.0952    1.8354 H       1  UNL1        0.0618
     31 H          -5.8431   -3.0853    1.9459 H       1  UNL1        0.0618
     32 H          -4.7883   -0.8676    1.9227 H       1  UNL1        0.0620
     33 H          -1.1395   -0.4137    2.2488 H       1  UNL1        0.0378
     34 H          -2.7039    0.3488    2.5373 H       1  UNL1        0.0378
     35 H          -4.8450    2.9245   -0.8382 H       1  UNL1        0.0639
     36 H          -4.8558    3.9292   -3.1067 H       1  UNL1        0.0618
     37 H          -3.1250    3.3610   -4.6894 H       1  UNL1        0.0618
     38 H          -1.3550    1.7701   -4.0143 H       1  UNL1        0.0639
     39 H           1.3958    1.3157    0.7157 H       1  UNL1        0.0576
     40 H           1.6073    1.1828   -1.0392 H       1  UNL1        0.0576
     41 H           3.1000    0.8993    2.2721 H       1  UNL1        0.0622
     42 H           5.4774    0.7285    2.7453 H       1  UNL1        0.0655
     43 H           3.7897    0.1563   -1.8592 H       1  UNL1        0.0659
     44 H           8.3669    0.8813   -0.9908 H       1  UNL1        0.1166
     45 H           8.3297   -0.9325   -0.7738 H       1  UNL1        0.1166
     46 H          -0.9103   -2.7597    1.6893 H       1  UNL1        0.0620
     47 H          -2.0132   -4.9166    1.7053 H       1  UNL1        0.0618
@<TRIPOS>BOND
     1     1     2   ar
     2     2     3   ar
     3     3     4   ar
     4     4     5    1
     5     5     6    1
     6     6     7   ar
     7     7     8   ar
     8     8     9   ar
     9     9    10   ar
    10    10    11   ar
    11    11    12   ar
    12    12    13   ar
    13    13    14   ar
    14    14    15   ar
    15    15    16    1
    16    16    17    2
    17    17    18    1
    18    18    19    1
    19    19    20   ar
    20    20    21   ar
    21    21    22   ar
    22    22    23   ar
    23    23    24   ar
    24    23    25    1
    25    25    26    1
    26    26    27    1
    27     4    28   ar
    28    28    29   ar
    29    29     1   ar
    30    15     6   ar
    31    24    19   ar
    32    13     8   ar
    33    27    22    1
    34     1    30    1
    35     2    31    1
    36     3    32    1
    37     5    33    1
    38     5    34    1
    39     9    35    1
    40    10    36    1
    41    11    37    1
    42    12    38    1
    43    18    39    1
    44    18    40    1
    45    20    41    1
    46    21    42    1
    47    24    43    1
    48    26    44    1
    49    26    45    1
    50    28    46    1
    51    29    47    1
