@<TRIPOS>MOLECULE
*****
 79 83 0 0 0
SMALL
GASTEIGER

@<TRIPOS>ATOM
      1 C           8.5350    3.5600   -0.2236 C.3     1  UNL1       -0.0306
      2 C           9.2644    2.3385    0.2923 C.3     1  UNL1        0.0897
      3 O           8.6676    1.1512   -0.1756 O.3     1  UNL1       -0.4640
      4 C           7.3630    0.8228    0.1242 C.2     1  UNL1        0.3213
      5 O           6.6982    1.5953    0.8386 O.2     1  UNL1       -0.2494
      6 C           6.7615   -0.4137   -0.3915 C.3     1  UNL1        0.0970
      7 N           5.4027   -0.6433   -0.0401 N.3     1  UNL1       -0.2901
      8 C           4.8354   -1.7812   -0.7513 C.3     1  UNL1        0.0123
      9 C           3.4583   -2.0773   -0.2034 C.3     1  UNL1        0.0117
     10 N           2.8913   -0.9985    0.5211 N.3     1  UNL1       -0.2999
     11 C           1.4899   -0.8410    0.5193 C.3     1  UNL1       -0.0007
     12 C           0.9362   -0.4550   -0.8079 C.3     1  UNL1       -0.0361
     13 C          -0.5300   -0.3152   -0.8999 C.3     1  UNL1       -0.0243
     14 C          -1.3620   -1.4599   -0.4837 C.ar    1  UNL1       -0.0192
     15 C          -2.5631   -1.3601    0.2128 C.ar    1  UNL1        0.0436
     16 C          -3.3411   -0.1377    0.5148 C.2     1  UNL1       -0.0253
     17 C          -3.8665    0.5746   -0.4528 C.2     1  UNL1        0.0479
     18 C          -3.7778    0.2899   -1.8672 C.2     1  UNL1        0.2490
     19 O          -3.2505   -0.6594   -2.4944 O.2     1  UNL1       -0.2698
     20 N          -4.4490    1.3437   -2.5480 N.am    1  UNL1       -0.2809
     21 C          -4.9426    2.2529   -1.5640 C.ar    1  UNL1        0.0417
     22 C          -5.6693    3.4240   -1.7066 C.ar    1  UNL1       -0.0380
     23 C          -6.0449    4.1265   -0.5922 C.ar    1  UNL1       -0.0336
     24 C          -5.7203    3.7033    0.6935 C.ar    1  UNL1        0.1059
     25 S          -6.2899    4.6902    2.0280 S.O2    1  UNL1        0.0582
     26 O          -5.4487    4.5024    3.2568 O.2     1  UNL1       -0.1531
     27 O          -6.3469    6.1268    1.6836 O.2     1  UNL1       -0.1531
     28 N          -7.8794    4.0718    2.4211 N.3     1  UNL1       -0.1930
     29 C          -8.7682    4.2227    1.2855 C.3     1  UNL1        0.0059
     30 C          -5.0009    2.5476    0.8445 C.ar    1  UNL1       -0.0257
     31 C          -4.6239    1.8427   -0.2969 C.ar    1  UNL1        0.0102
     32 N          -2.9405   -2.6114    0.4989 N.ar    1  UNL1       -0.3579
     33 C          -2.0722   -3.4965    0.0342 C.ar    1  UNL1        0.0199
     34 C          -1.0710   -2.7944   -0.5903 C.ar    1  UNL1       -0.0231
     35 C           0.0322   -3.5979   -1.1877 C.3     1  UNL1       -0.0257
     36 C          -0.6151   -4.7009   -2.0176 C.3     1  UNL1       -0.0487
     37 C          -1.6715   -5.4639   -1.3131 C.3     1  UNL1       -0.0474
     38 C          -1.9589   -4.9833    0.0653 C.3     1  UNL1       -0.0122
     39 C           3.6475   -0.5983    1.6493 C.3     1  UNL1        0.0117
     40 C           5.1452   -0.7655    1.3809 C.3     1  UNL1        0.0123
     41 H           9.1269    4.4512    0.0496 H       1  UNL1        0.0262
     42 H           8.3374    3.4980   -1.3167 H       1  UNL1        0.0262
     43 H           7.5581    3.6563    0.2744 H       1  UNL1        0.0262
     44 H          10.3362    2.3810   -0.0175 H       1  UNL1        0.0694
     45 H           9.2108    2.3217    1.3933 H       1  UNL1        0.0694
     46 H           6.9193   -0.4319   -1.5040 H       1  UNL1        0.0542
     47 H           7.3372   -1.3308   -0.0501 H       1  UNL1        0.0542
     48 H           4.8371   -1.5998   -1.8440 H       1  UNL1        0.0439
     49 H           5.4828   -2.6501   -0.5528 H       1  UNL1        0.0439
     50 H           3.5848   -2.9247    0.5291 H       1  UNL1        0.0439
     51 H           2.7617   -2.4777   -0.9676 H       1  UNL1        0.0439
     52 H           1.2238   -0.0418    1.2546 H       1  UNL1        0.0427
     53 H           1.0378   -1.7838    0.9264 H       1  UNL1        0.0427
     54 H           1.3396   -0.9600   -1.6814 H       1  UNL1        0.0281
     55 H           1.3139    0.6544   -0.9232 H       1  UNL1        0.0281
     56 H          -0.8564    0.5592   -0.2386 H       1  UNL1        0.0314
     57 H          -0.7943    0.0540   -1.9169 H       1  UNL1        0.0314
     58 H          -3.4609    0.1403    1.5252 H       1  UNL1        0.0646
     59 H          -4.5708    1.4546   -3.5742 H       1  UNL1        0.1552
     60 H          -5.9194    3.7522   -2.6967 H       1  UNL1        0.0637
     61 H          -6.6161    5.0500   -0.7221 H       1  UNL1        0.0638
     62 H          -7.7910    3.0319    2.5695 H       1  UNL1        0.1477
     63 H          -8.6695    5.2579    0.8809 H       1  UNL1        0.0405
     64 H          -8.5021    3.5119    0.4502 H       1  UNL1        0.0405
     65 H          -9.7943    4.0012    1.6202 H       1  UNL1        0.0405
     66 H          -4.7398    2.2071    1.8157 H       1  UNL1        0.0644
     67 H          -3.8295   -2.8289    1.0313 H       1  UNL1        0.1656
     68 H           0.6220   -3.0241   -1.9202 H       1  UNL1        0.0314
     69 H           0.7036   -3.9896   -0.4151 H       1  UNL1        0.0314
     70 H           0.1976   -5.4075   -2.3471 H       1  UNL1        0.0269
     71 H          -1.0083   -4.2094   -2.9338 H       1  UNL1        0.0269
     72 H          -1.4434   -6.5647   -1.2558 H       1  UNL1        0.0269
     73 H          -2.6427   -5.4201   -1.8843 H       1  UNL1        0.0269
     74 H          -2.9353   -5.3898    0.4165 H       1  UNL1        0.0328
     75 H          -1.1752   -5.2396    0.8067 H       1  UNL1        0.0328
     76 H           3.3968    0.4178    1.9552 H       1  UNL1        0.0439
     77 H           3.4132   -1.2669    2.4973 H       1  UNL1        0.0439
     78 H           5.3988   -1.8182    1.6363 H       1  UNL1        0.0439
     79 H           5.6853   -0.0735    1.9961 H       1  UNL1        0.0439
@<TRIPOS>BOND
     1     1     2    1
     2     2     3    1
     3     3     4    1
     4     4     5    2
     5     4     6    1
     6     6     7    1
     7     7     8    1
     8     8     9    1
     9     9    10    1
    10    10    11    1
    11    11    12    1
    12    12    13    1
    13    13    14    1
    14    14    15   ar
    15    15    16    1
    16    16    17    2
    17    17    18    1
    18    18    19    2
    19    18    20   am
    20    20    21    1
    21    21    22   ar
    22    22    23   ar
    23    23    24   ar
    24    24    25    1
    25    25    26    2
    26    25    27    2
    27    25    28    1
    28    28    29    1
    29    24    30   ar
    30    30    31   ar
    31    15    32   ar
    32    32    33   ar
    33    33    34   ar
    34    34    35    1
    35    35    36    1
    36    36    37    1
    37    37    38    1
    38    10    39    1
    39    39    40    1
    40    40     7    1
    41    34    14   ar
    42    31    17    1
    43    38    33    1
    44    31    21   ar
    45     1    41    1
    46     1    42    1
    47     1    43    1
    48     2    44    1
    49     2    45    1
    50     6    46    1
    51     6    47    1
    52     8    48    1
    53     8    49    1
    54     9    50    1
    55     9    51    1
    56    11    52    1
    57    11    53    1
    58    12    54    1
    59    12    55    1
    60    13    56    1
    61    13    57    1
    62    16    58    1
    63    20    59    1
    64    22    60    1
    65    23    61    1
    66    28    62    1
    67    29    63    1
    68    29    64    1
    69    29    65    1
    70    30    66    1
    71    32    67    1
    72    35    68    1
    73    35    69    1
    74    36    70    1
    75    36    71    1
    76    37    72    1
    77    37    73    1
    78    38    74    1
    79    38    75    1
    80    39    76    1
    81    39    77    1
    82    40    78    1
    83    40    79    1
