
     RDKit          3D

 40 43  0  0  0  0  0  0  0  0999 V2000
   -0.2298    4.9195    2.9284 Cl  0  0  0  0  0  0  0  0  0  0  0  0
   -0.7437    3.6966    1.7831 C   0  0  0  0  0  0  0  0  0  0  0  0
   -0.0410    2.5699    1.6105 N   0  0  0  0  0  0  0  0  0  0  0  0
   -0.4120    1.5879    0.7218 C   0  0  0  0  0  0  0  0  0  0  0  0
    0.4727    0.5419    0.4517 N   0  0  0  0  0  0  0  0  0  0  0  0
    1.6049    0.4857    1.4367 C   0  0  0  0  0  0  0  0  0  0  0  0
    2.5279   -0.6105    1.1639 C   0  0  0  0  0  0  0  0  0  0  0  0
    3.6014   -0.3829    0.3293 C   0  0  0  0  0  0  0  0  0  0  0  0
    4.5202   -1.3894    0.0289 C   0  0  0  0  0  0  0  0  0  0  0  0
    4.3635   -2.6467    0.5723 C   0  0  0  0  0  0  0  0  0  0  0  0
    3.2809   -2.8398    1.4014 C   0  0  0  0  0  0  0  0  0  0  0  0
    2.4084   -1.8524    1.6758 N   0  0  0  0  0  0  0  0  0  0  0  0
   -1.5576    1.8176    0.0152 C   0  0  0  0  0  0  0  0  0  0  0  0
   -2.0696    0.9286   -0.8821 C   0  0  0  0  0  0  0  0  0  0  0  0
   -1.5309   -0.4163   -1.0190 C   0  0  0  0  0  0  0  0  0  0  0  0
   -1.6258   -1.2376    0.1124 C   0  0  0  0  0  0  0  0  0  0  0  0
   -1.2186   -2.5421    0.0926 C   0  0  0  0  0  0  0  0  0  0  0  0
   -0.6999   -3.0646   -1.0734 C   0  0  0  0  0  0  0  0  0  0  0  0
   -0.5965   -2.2614   -2.2144 C   0  0  0  0  0  0  0  0  0  0  0  0
   -1.0128   -0.9509   -2.1706 C   0  0  0  0  0  0  0  0  0  0  0  0
   -3.2501    1.2196   -1.5766 C   0  0  0  0  0  0  0  0  0  0  0  0
   -3.9446    2.3735   -1.3984 C   0  0  0  0  0  0  0  0  0  0  0  0
   -3.4509    3.2766   -0.4923 C   0  0  0  0  0  0  0  0  0  0  0  0
   -2.2902    3.0006    0.1954 C   0  0  0  0  0  0  0  0  0  0  0  0
   -1.8565    3.9115    1.0814 N   0  0  0  0  0  0  0  0  0  0  0  0
    0.5860   -0.1462   -0.2617 H   0  0  0  0  0  0  0  0  0  0  0  0
    2.0597    1.4831    1.4298 H   0  0  0  0  0  0  0  0  0  0  0  0
    1.0983    0.3286    2.4088 H   0  0  0  0  0  0  0  0  0  0  0  0
    3.7229    0.5974   -0.0939 H   0  0  0  0  0  0  0  0  0  0  0  0
    5.3608   -1.1993   -0.6287 H   0  0  0  0  0  0  0  0  0  0  0  0
    5.0664   -3.4449    0.3522 H   0  0  0  0  0  0  0  0  0  0  0  0
    3.1456   -3.8264    1.8366 H   0  0  0  0  0  0  0  0  0  0  0  0
   -2.0324   -0.8411    1.0394 H   0  0  0  0  0  0  0  0  0  0  0  0
   -1.2794   -3.2076    0.9569 H   0  0  0  0  0  0  0  0  0  0  0  0
   -0.3735   -4.1050   -1.0944 H   0  0  0  0  0  0  0  0  0  0  0  0
   -0.1816   -2.7224   -3.1037 H   0  0  0  0  0  0  0  0  0  0  0  0
   -0.9407   -0.3204   -3.0370 H   0  0  0  0  0  0  0  0  0  0  0  0
   -3.5960    0.4835   -2.2711 H   0  0  0  0  0  0  0  0  0  0  0  0
   -4.8756    2.5942   -1.9545 H   0  0  0  0  0  0  0  0  0  0  0  0
   -4.0098    4.1919   -0.3527 H   0  0  0  0  0  0  0  0  0  0  0  0
  1  2  1  0
  2  3  2  0
  3  4  1  0
  4  5  1  0
  5  6  1  0
  6  7  1  0
  7  8  2  0
  8  9  1  0
  9 10  2  0
 10 11  1  0
 11 12  2  0
  4 13  2  0
 13 14  1  0
 14 15  1  0
 15 16  2  0
 16 17  1  0
 17 18  2  0
 18 19  1  0
 19 20  2  0
 14 21  2  0
 21 22  1  0
 22 23  2  0
 23 24  1  0
 24 25  2  0
 25  2  1  0
 12  7  1  0
 24 13  1  0
 20 15  1  0
  5 26  1  0
  6 27  1  0
  6 28  1  0
  8 29  1  0
  9 30  1  0
 10 31  1  0
 11 32  1  0
 16 33  1  0
 17 34  1  0
 18 35  1  0
 19 36  1  0
 20 37  1  0
 21 38  1  0
 22 39  1  0
 23 40  1  0
M  END
$$$$
