@<TRIPOS>MOLECULE
*****
 40 43 0 0 0
SMALL
GASTEIGER

@<TRIPOS>ATOM
      1 CL         -0.2298    4.9195    2.9284 Cl      1  UNL1       -0.0410
      2 C          -0.7437    3.6966    1.7831 C.ar    1  UNL1        0.2250
      3 N          -0.0410    2.5699    1.6105 N.ar    1  UNL1       -0.2020
      4 C          -0.4120    1.5879    0.7218 C.ar    1  UNL1        0.1321
      5 N           0.4727    0.5419    0.4517 N.pl3   1  UNL1       -0.3229
      6 C           1.6049    0.4857    1.4367 C.3     1  UNL1        0.0528
      7 C           2.5279   -0.6105    1.1639 C.ar    1  UNL1        0.0583
      8 C           3.6014   -0.3829    0.3293 C.ar    1  UNL1       -0.0388
      9 C           4.5202   -1.3894    0.0289 C.ar    1  UNL1       -0.0586
     10 C           4.3635   -2.6467    0.5723 C.ar    1  UNL1       -0.0436
     11 C           3.2809   -2.8398    1.4014 C.ar    1  UNL1        0.0279
     12 N           2.4084   -1.8524    1.6758 N.ar    1  UNL1       -0.2583
     13 C          -1.5576    1.8176    0.0152 C.ar    1  UNL1        0.0479
     14 C          -2.0696    0.9286   -0.8821 C.ar    1  UNL1       -0.0054
     15 C          -1.5309   -0.4163   -1.0190 C.ar    1  UNL1       -0.0171
     16 C          -1.6258   -1.2376    0.1124 C.ar    1  UNL1       -0.0540
     17 C          -1.2186   -2.5421    0.0926 C.ar    1  UNL1       -0.0612
     18 C          -0.6999   -3.0646   -1.0734 C.ar    1  UNL1       -0.0617
     19 C          -0.5965   -2.2614   -2.2144 C.ar    1  UNL1       -0.0612
     20 C          -1.0128   -0.9509   -2.1706 C.ar    1  UNL1       -0.0540
     21 C          -3.2501    1.2196   -1.5766 C.ar    1  UNL1       -0.0532
     22 C          -3.9446    2.3735   -1.3984 C.ar    1  UNL1       -0.0591
     23 C          -3.4509    3.2766   -0.4923 C.ar    1  UNL1       -0.0355
     24 C          -2.2902    3.0006    0.1954 C.ar    1  UNL1        0.0781
     25 N          -1.8565    3.9115    1.0814 N.ar    1  UNL1       -0.2173
     26 H           0.5860   -0.1462   -0.2617 H       1  UNL1        0.1479
     27 H           2.0597    1.4831    1.4298 H       1  UNL1        0.0526
     28 H           1.0983    0.3286    2.4088 H       1  UNL1        0.0526
     29 H           3.7229    0.5974   -0.0939 H       1  UNL1        0.0636
     30 H           5.3608   -1.1993   -0.6287 H       1  UNL1        0.0619
     31 H           5.0664   -3.4449    0.3522 H       1  UNL1        0.0633
     32 H           3.1456   -3.8264    1.8366 H       1  UNL1        0.0829
     33 H          -2.0324   -0.8411    1.0394 H       1  UNL1        0.0624
     34 H          -1.2794   -3.2076    0.9569 H       1  UNL1        0.0618
     35 H          -0.3735   -4.1050   -1.0944 H       1  UNL1        0.0618
     36 H          -0.1816   -2.7224   -3.1037 H       1  UNL1        0.0618
     37 H          -0.9407   -0.3204   -3.0370 H       1  UNL1        0.0624
     38 H          -3.5960    0.4835   -2.2711 H       1  UNL1        0.0624
     39 H          -4.8756    2.5942   -1.9545 H       1  UNL1        0.0618
     40 H          -4.0098    4.1919   -0.3527 H       1  UNL1        0.0639
@<TRIPOS>BOND
     1     1     2    1
     2     2     3   ar
     3     3     4   ar
     4     4     5    1
     5     5     6    1
     6     6     7    1
     7     7     8   ar
     8     8     9   ar
     9     9    10   ar
    10    10    11   ar
    11    11    12   ar
    12     4    13   ar
    13    13    14   ar
    14    14    15    1
    15    15    16   ar
    16    16    17   ar
    17    17    18   ar
    18    18    19   ar
    19    19    20   ar
    20    14    21   ar
    21    21    22   ar
    22    22    23   ar
    23    23    24   ar
    24    24    25   ar
    25    25     2   ar
    26    12     7   ar
    27    24    13   ar
    28    20    15   ar
    29     5    26    1
    30     6    27    1
    31     6    28    1
    32     8    29    1
    33     9    30    1
    34    10    31    1
    35    11    32    1
    36    16    33    1
    37    17    34    1
    38    18    35    1
    39    19    36    1
    40    20    37    1
    41    21    38    1
    42    22    39    1
    43    23    40    1
