
     RDKit          3D

 65 69  0  0  0  0  0  0  0  0999 V2000
   -3.3524   -4.2922    3.4836 C   0  0  0  0  0  0  0  0  0  0  0  0
   -2.2342   -3.2468    3.4420 C   0  0  0  0  0  0  0  0  0  0  0  0
   -2.5541   -2.3392    2.2729 C   0  0  0  0  0  0  0  0  0  0  0  0
   -1.5317   -1.2429    2.0935 C   0  0  0  0  0  0  0  0  0  0  0  0
   -1.9348   -0.4234    0.9232 C   0  0  0  0  0  0  0  0  0  0  0  0
   -2.6328    0.7556    0.9939 N   0  0  0  0  0  0  0  0  0  0  0  0
   -2.8740    1.2134   -0.2124 N   0  0  0  0  0  0  0  0  0  0  0  0
   -3.5812    2.4249   -0.4781 C   0  0  0  0  0  0  0  0  0  0  0  0
   -4.9645    2.4193   -0.6985 C   0  0  0  0  0  0  0  0  0  0  0  0
   -5.6253    3.6027   -0.9540 C   0  0  0  0  0  0  0  0  0  0  0  0
   -4.8966    4.7795   -0.9866 C   0  0  0  0  0  0  0  0  0  0  0  0
   -3.5233    4.7775   -0.7668 C   0  0  0  0  0  0  0  0  0  0  0  0
   -2.8634    3.6022   -0.5124 C   0  0  0  0  0  0  0  0  0  0  0  0
   -1.4092    3.6285   -0.2806 C   0  0  0  0  0  0  0  0  0  0  0  0
   -2.3579    0.3779   -1.1417 C   0  0  0  0  0  0  0  0  0  0  0  0
   -2.4135    0.5016   -2.5772 C   0  0  0  0  0  0  0  0  0  0  0  0
   -1.9539   -0.2748   -3.4157 O   0  0  0  0  0  0  0  0  0  0  0  0
   -3.0679    1.6401   -3.1036 O   0  0  0  0  0  0  0  0  0  0  0  0
   -1.7611   -0.6578   -0.4165 C   0  0  0  0  0  0  0  0  0  0  0  0
   -1.0330   -1.7803   -1.0520 C   0  0  0  0  0  0  0  0  0  0  0  0
    0.4631   -1.6078   -0.9957 C   0  0  0  0  0  0  0  0  0  0  0  0
    1.2596   -2.3296   -0.1253 C   0  0  0  0  0  0  0  0  0  0  0  0
    2.6243   -2.1922   -0.0377 C   0  0  0  0  0  0  0  0  0  0  0  0
    3.2860   -1.2891   -0.8500 C   0  0  0  0  0  0  0  0  0  0  0  0
    4.7284   -1.1189   -0.7993 C   0  0  0  0  0  0  0  0  0  0  0  0
    5.5779   -2.0753   -1.3145 C   0  0  0  0  0  0  0  0  0  0  0  0
    6.9565   -1.8703   -1.2594 C   0  0  0  0  0  0  0  0  0  0  0  0
    7.4885   -0.7303   -0.7004 C   0  0  0  0  0  0  0  0  0  0  0  0
    6.6384    0.2198   -0.1882 C   0  0  0  0  0  0  0  0  0  0  0  0
    5.2505    0.0211   -0.2393 C   0  0  0  0  0  0  0  0  0  0  0  0
    4.3835    1.0443    0.3286 C   0  0  0  0  0  0  0  0  0  0  0  0
    3.0459    1.0483    0.4329 N   0  0  0  0  0  0  0  0  0  0  0  0
    2.7097    2.1655    1.0155 N   0  0  0  0  0  0  0  0  0  0  0  0
    3.7838    2.8940    1.2966 N   0  0  0  0  0  0  0  0  0  0  0  0
    4.8242    2.1992    0.8707 N   0  0  0  0  0  0  0  0  0  0  0  0
    2.4964   -0.5550   -1.7321 C   0  0  0  0  0  0  0  0  0  0  0  0
    1.1268   -0.7093   -1.8030 C   0  0  0  0  0  0  0  0  0  0  0  0
   -3.3860   -4.7188    4.4882 H   0  0  0  0  0  0  0  0  0  0  0  0
   -3.1853   -5.0240    2.6723 H   0  0  0  0  0  0  0  0  0  0  0  0
   -4.2874   -3.7334    3.2264 H   0  0  0  0  0  0  0  0  0  0  0  0
   -1.2403   -3.7018    3.3688 H   0  0  0  0  0  0  0  0  0  0  0  0
   -2.3302   -2.6725    4.3879 H   0  0  0  0  0  0  0  0  0  0  0  0
   -3.5773   -1.8967    2.4823 H   0  0  0  0  0  0  0  0  0  0  0  0
   -2.6812   -2.8802    1.3292 H   0  0  0  0  0  0  0  0  0  0  0  0
   -1.5186   -0.5967    3.0173 H   0  0  0  0  0  0  0  0  0  0  0  0
   -0.5496   -1.6829    1.9358 H   0  0  0  0  0  0  0  0  0  0  0  0
   -5.4907    1.4624   -0.6610 H   0  0  0  0  0  0  0  0  0  0  0  0
   -6.6953    3.5634   -1.1199 H   0  0  0  0  0  0  0  0  0  0  0  0
   -5.4469    5.6816   -1.1888 H   0  0  0  0  0  0  0  0  0  0  0  0
   -2.9878    5.7103   -0.7991 H   0  0  0  0  0  0  0  0  0  0  0  0
   -0.8251    3.7759   -1.2091 H   0  0  0  0  0  0  0  0  0  0  0  0
   -1.1023    4.4834    0.3896 H   0  0  0  0  0  0  0  0  0  0  0  0
   -1.0593    2.7162    0.2806 H   0  0  0  0  0  0  0  0  0  0  0  0
   -2.9591    1.8727   -4.0639 H   0  0  0  0  0  0  0  0  0  0  0  0
   -1.2152   -2.6968   -0.4379 H   0  0  0  0  0  0  0  0  0  0  0  0
   -1.3375   -2.0027   -2.0835 H   0  0  0  0  0  0  0  0  0  0  0  0
    0.7888   -3.0572    0.5327 H   0  0  0  0  0  0  0  0  0  0  0  0
    3.2329   -2.7671    0.6521 H   0  0  0  0  0  0  0  0  0  0  0  0
    5.1379   -2.9483   -1.7411 H   0  0  0  0  0  0  0  0  0  0  0  0
    7.6353   -2.6005   -1.6538 H   0  0  0  0  0  0  0  0  0  0  0  0
    8.5567   -0.5651   -0.6548 H   0  0  0  0  0  0  0  0  0  0  0  0
    7.0602    1.1139    0.2502 H   0  0  0  0  0  0  0  0  0  0  0  0
    5.8078    2.5390    0.9651 H   0  0  0  0  0  0  0  0  0  0  0  0
    3.0162    0.1555   -2.3715 H   0  0  0  0  0  0  0  0  0  0  0  0
    0.5606   -0.1102   -2.5063 H   0  0  0  0  0  0  0  0  0  0  0  0
  1  2  1  0
  2  3  1  0
  3  4  1  0
  4  5  1  0
  5  6  2  0
  6  7  1  0
  7  8  1  0
  8  9  2  0
  9 10  1  0
 10 11  2  0
 11 12  1  0
 12 13  2  0
 13 14  1  0
  7 15  1  0
 15 16  1  0
 16 17  2  0
 16 18  1  0
 15 19  2  0
 19 20  1  0
 20 21  1  0
 21 22  2  0
 22 23  1  0
 23 24  2  0
 24 25  1  0
 25 26  2  0
 26 27  1  0
 27 28  2  0
 28 29  1  0
 29 30  2  0
 30 31  1  0
 31 32  2  0
 32 33  1  0
 33 34  2  0
 34 35  1  0
 24 36  1  0
 36 37  2  0
 19  5  1  0
 37 21  1  0
 13  8  1  0
 30 25  1  0
 35 31  1  0
  1 38  1  0
  1 39  1  0
  1 40  1  0
  2 41  1  0
  2 42  1  0
  3 43  1  0
  3 44  1  0
  4 45  1  0
  4 46  1  0
  9 47  1  0
 10 48  1  0
 11 49  1  0
 12 50  1  0
 14 51  1  0
 14 52  1  0
 14 53  1  0
 18 54  1  0
 20 55  1  0
 20 56  1  0
 22 57  1  0
 23 58  1  0
 26 59  1  0
 27 60  1  0
 28 61  1  0
 29 62  1  0
 35 63  1  0
 36 64  1  0
 37 65  1  0
M  END
$$$$
