@<TRIPOS>MOLECULE
*****
 65 69 0 0 0
SMALL
GASTEIGER

@<TRIPOS>ATOM
      1 C          -3.3524   -4.2922    3.4836 C.3     1  UNL1       -0.0653
      2 C          -2.2342   -3.2468    3.4420 C.3     1  UNL1       -0.0556
      3 C          -2.5541   -2.3392    2.2729 C.3     1  UNL1       -0.0478
      4 C          -1.5317   -1.2429    2.0935 C.3     1  UNL1       -0.0084
      5 C          -1.9348   -0.4234    0.9232 C.ar    1  UNL1        0.0677
      6 N          -2.6328    0.7556    0.9939 N.ar    1  UNL1       -0.1703
      7 N          -2.8740    1.2134   -0.2124 N.ar    1  UNL1       -0.2250
      8 C          -3.5812    2.4249   -0.4781 C.ar    1  UNL1        0.0692
      9 C          -4.9645    2.4193   -0.6985 C.ar    1  UNL1       -0.0360
     10 C          -5.6253    3.6027   -0.9540 C.ar    1  UNL1       -0.0597
     11 C          -4.8966    4.7795   -0.9866 C.ar    1  UNL1       -0.0614
     12 C          -3.5233    4.7775   -0.7668 C.ar    1  UNL1       -0.0568
     13 C          -2.8634    3.6022   -0.5124 C.ar    1  UNL1       -0.0250
     14 C          -1.4092    3.6285   -0.2806 C.3     1  UNL1       -0.0377
     15 C          -2.3579    0.3779   -1.1417 C.ar    1  UNL1        0.1547
     16 C          -2.4135    0.5016   -2.5772 C.2     1  UNL1        0.3557
     17 O          -1.9539   -0.2748   -3.4157 O.2     1  UNL1       -0.2434
     18 O          -3.0679    1.6401   -3.1036 O.3     1  UNL1       -0.4761
     19 C          -1.7611   -0.6578   -0.4165 C.ar    1  UNL1        0.0123
     20 C          -1.0330   -1.7803   -1.0520 C.3     1  UNL1        0.0016
     21 C           0.4631   -1.6078   -0.9957 C.ar    1  UNL1       -0.0429
     22 C           1.2596   -2.3296   -0.1253 C.ar    1  UNL1       -0.0577
     23 C           2.6243   -2.1922   -0.0377 C.ar    1  UNL1       -0.0537
     24 C           3.2860   -1.2891   -0.8500 C.ar    1  UNL1       -0.0172
     25 C           4.7284   -1.1189   -0.7993 C.ar    1  UNL1       -0.0072
     26 C           5.5779   -2.0753   -1.3145 C.ar    1  UNL1       -0.0534
     27 C           6.9565   -1.8703   -1.2594 C.ar    1  UNL1       -0.0611
     28 C           7.4885   -0.7303   -0.7004 C.ar    1  UNL1       -0.0611
     29 C           6.6384    0.2198   -0.1882 C.ar    1  UNL1       -0.0504
     30 C           5.2505    0.0211   -0.2393 C.ar    1  UNL1        0.0282
     31 C           4.3835    1.0443    0.3286 C.ar    1  UNL1        0.1799
     32 N           3.0459    1.0483    0.4329 N.ar    1  UNL1       -0.1084
     33 N           2.7097    2.1655    1.0155 N.ar    1  UNL1       -0.0229
     34 N           3.7838    2.8940    1.2966 N.ar    1  UNL1       -0.0464
     35 N           4.8242    2.1992    0.8707 N.ar    1  UNL1       -0.2388
     36 C           2.4964   -0.5550   -1.7321 C.ar    1  UNL1       -0.0537
     37 C           1.1268   -0.7093   -1.8030 C.ar    1  UNL1       -0.0577
     38 H          -3.3860   -4.7188    4.4882 H       1  UNL1        0.0230
     39 H          -3.1853   -5.0240    2.6723 H       1  UNL1        0.0230
     40 H          -4.2874   -3.7334    3.2264 H       1  UNL1        0.0230
     41 H          -1.2403   -3.7018    3.3688 H       1  UNL1        0.0263
     42 H          -2.3302   -2.6725    4.3879 H       1  UNL1        0.0263
     43 H          -3.5773   -1.8967    2.4823 H       1  UNL1        0.0269
     44 H          -2.6812   -2.8802    1.3292 H       1  UNL1        0.0269
     45 H          -1.5186   -0.5967    3.0173 H       1  UNL1        0.0329
     46 H          -0.5496   -1.6829    1.9358 H       1  UNL1        0.0329
     47 H          -5.4907    1.4624   -0.6610 H       1  UNL1        0.0639
     48 H          -6.6953    3.5634   -1.1199 H       1  UNL1        0.0618
     49 H          -5.4469    5.6816   -1.1888 H       1  UNL1        0.0618
     50 H          -2.9878    5.7103   -0.7991 H       1  UNL1        0.0621
     51 H          -0.8251    3.7759   -1.2091 H       1  UNL1        0.0278
     52 H          -1.1023    4.4834    0.3896 H       1  UNL1        0.0278
     53 H          -1.0593    2.7162    0.2806 H       1  UNL1        0.0278
     54 H          -2.9591    1.8727   -4.0639 H       1  UNL1        0.2955
     55 H          -1.2152   -2.6968   -0.4379 H       1  UNL1        0.0363
     56 H          -1.3375   -2.0027   -2.0835 H       1  UNL1        0.0363
     57 H           0.7888   -3.0572    0.5327 H       1  UNL1        0.0621
     58 H           3.2329   -2.7671    0.6521 H       1  UNL1        0.0624
     59 H           5.1379   -2.9483   -1.7411 H       1  UNL1        0.0624
     60 H           7.6353   -2.6005   -1.6538 H       1  UNL1        0.0618
     61 H           8.5567   -0.5651   -0.6548 H       1  UNL1        0.0618
     62 H           7.0602    1.1139    0.2502 H       1  UNL1        0.0625
     63 H           5.8078    2.5390    0.9651 H       1  UNL1        0.1923
     64 H           3.0162    0.1555   -2.3715 H       1  UNL1        0.0624
     65 H           0.5606   -0.1102   -2.5063 H       1  UNL1        0.0621
@<TRIPOS>BOND
     1     1     2    1
     2     2     3    1
     3     3     4    1
     4     4     5    1
     5     5     6   ar
     6     6     7   ar
     7     7     8    1
     8     8     9   ar
     9     9    10   ar
    10    10    11   ar
    11    11    12   ar
    12    12    13   ar
    13    13    14    1
    14     7    15   ar
    15    15    16    1
    16    16    17    2
    17    16    18    1
    18    15    19   ar
    19    19    20    1
    20    20    21    1
    21    21    22   ar
    22    22    23   ar
    23    23    24   ar
    24    24    25    1
    25    25    26   ar
    26    26    27   ar
    27    27    28   ar
    28    28    29   ar
    29    29    30   ar
    30    30    31    1
    31    31    32   ar
    32    32    33   ar
    33    33    34   ar
    34    34    35   ar
    35    24    36   ar
    36    36    37   ar
    37    19     5   ar
    38    37    21   ar
    39    13     8   ar
    40    30    25   ar
    41    35    31   ar
    42     1    38    1
    43     1    39    1
    44     1    40    1
    45     2    41    1
    46     2    42    1
    47     3    43    1
    48     3    44    1
    49     4    45    1
    50     4    46    1
    51     9    47    1
    52    10    48    1
    53    11    49    1
    54    12    50    1
    55    14    51    1
    56    14    52    1
    57    14    53    1
    58    18    54    1
    59    20    55    1
    60    20    56    1
    61    22    57    1
    62    23    58    1
    63    26    59    1
    64    27    60    1
    65    28    61    1
    66    29    62    1
    67    35    63    1
    68    36    64    1
    69    37    65    1
