@<TRIPOS>MOLECULE
*****
 37 39 0 0 0
SMALL
GASTEIGER

@<TRIPOS>ATOM
      1 CL          5.1770    3.2922   -1.0867 Cl      1  UNL1       -0.0835
      2 C           3.9711    2.0145   -1.0697 C.ar    1  UNL1        0.0424
      3 C           3.4769    1.5632    0.1375 C.ar    1  UNL1       -0.0423
      4 C           2.5329    0.5591    0.0868 C.ar    1  UNL1       -0.0452
      5 C           2.0794    0.0068   -1.0948 C.ar    1  UNL1        0.0312
      6 S           0.8668   -1.2827   -1.1555 S.3     1  UNL1       -0.0861
      7 C           0.3175   -1.7304    0.4774 C.ar    1  UNL1        0.0338
      8 C           1.0566   -2.6904    1.1650 C.ar    1  UNL1       -0.0462
      9 C           0.6426   -3.0595    2.4266 C.ar    1  UNL1       -0.0606
     10 C          -0.4783   -2.4881    2.9898 C.ar    1  UNL1       -0.0599
     11 C          -1.1953   -1.5397    2.2912 C.ar    1  UNL1       -0.0396
     12 C          -0.7983   -1.1452    1.0074 C.ar    1  UNL1        0.0437
     13 N          -1.5254   -0.1901    0.2869 N.pl3   1  UNL1       -0.3266
     14 C          -0.9403    1.0714   -0.1148 C.3     1  UNL1        0.0248
     15 C          -2.1310    2.0495   -0.1514 C.3     1  UNL1        0.0117
     16 N          -2.9352    1.6130   -1.2775 N.3     1  UNL1       -0.3130
     17 C          -3.4971    0.3246   -1.0949 C.3     1  UNL1        0.0117
     18 C          -2.8968   -0.5185   -0.0421 C.3     1  UNL1        0.0248
     19 C           2.5785    0.4629   -2.3072 C.ar    1  UNL1        0.0561
     20 CL          2.0223   -0.2183   -3.8240 Cl      1  UNL1       -0.0823
     21 C           3.5214    1.4659   -2.2574 C.ar    1  UNL1       -0.0240
     22 H           3.8430    2.0065    1.0486 H       1  UNL1        0.0632
     23 H           2.1421    0.2025    1.0450 H       1  UNL1        0.0629
     24 H           1.9314   -3.1198    0.6954 H       1  UNL1        0.0629
     25 H           1.2086   -3.8081    2.9777 H       1  UNL1        0.0618
     26 H          -0.8318   -2.7564    3.9822 H       1  UNL1        0.0618
     27 H          -2.0576   -1.1084    2.7395 H       1  UNL1        0.0636
     28 H          -0.1682    1.4289    0.5720 H       1  UNL1        0.0476
     29 H          -0.6365    0.9657   -1.1654 H       1  UNL1        0.0476
     30 H          -2.7015    1.8900    0.7818 H       1  UNL1        0.0439
     31 H          -1.7478    3.0552   -0.2963 H       1  UNL1        0.0439
     32 H          -2.3097    1.6316   -2.1323 H       1  UNL1        0.1220
     33 H          -4.6034    0.4603   -0.9120 H       1  UNL1        0.0439
     34 H          -3.4592   -0.2140   -2.0874 H       1  UNL1        0.0439
     35 H          -3.4882   -0.4326    0.9013 H       1  UNL1        0.0476
     36 H          -2.8973   -1.6052   -0.3465 H       1  UNL1        0.0476
     37 H           3.9309    1.8435   -3.1961 H       1  UNL1        0.0647
@<TRIPOS>BOND
     1     1     2    1
     2     2     3   ar
     3     3     4   ar
     4     4     5   ar
     5     5     6    1
     6     6     7    1
     7     7     8   ar
     8     8     9   ar
     9     9    10   ar
    10    10    11   ar
    11    11    12   ar
    12    12    13    1
    13    13    14    1
    14    14    15    1
    15    15    16    1
    16    16    17    1
    17    17    18    1
    18     5    19   ar
    19    19    20    1
    20    19    21   ar
    21    21     2   ar
    22    12     7   ar
    23    18    13    1
    24     3    22    1
    25     4    23    1
    26     8    24    1
    27     9    25    1
    28    10    26    1
    29    11    27    1
    30    14    28    1
    31    14    29    1
    32    15    30    1
    33    15    31    1
    34    16    32    1
    35    17    33    1
    36    17    34    1
    37    18    35    1
    38    18    36    1
    39    21    37    1
