
     RDKit          3D

 37 39  0  0  0  0  0  0  0  0999 V2000
    5.1770    3.2922   -1.0867 Cl  0  0  0  0  0  0  0  0  0  0  0  0
    3.9711    2.0145   -1.0697 C   0  0  0  0  0  0  0  0  0  0  0  0
    3.4769    1.5632    0.1375 C   0  0  0  0  0  0  0  0  0  0  0  0
    2.5329    0.5591    0.0868 C   0  0  0  0  0  0  0  0  0  0  0  0
    2.0794    0.0068   -1.0948 C   0  0  0  0  0  0  0  0  0  0  0  0
    0.8668   -1.2827   -1.1555 S   0  0  0  0  0  0  0  0  0  0  0  0
    0.3175   -1.7304    0.4774 C   0  0  0  0  0  0  0  0  0  0  0  0
    1.0566   -2.6904    1.1650 C   0  0  0  0  0  0  0  0  0  0  0  0
    0.6426   -3.0595    2.4266 C   0  0  0  0  0  0  0  0  0  0  0  0
   -0.4783   -2.4881    2.9898 C   0  0  0  0  0  0  0  0  0  0  0  0
   -1.1953   -1.5397    2.2912 C   0  0  0  0  0  0  0  0  0  0  0  0
   -0.7983   -1.1452    1.0074 C   0  0  0  0  0  0  0  0  0  0  0  0
   -1.5254   -0.1901    0.2869 N   0  0  0  0  0  0  0  0  0  0  0  0
   -0.9403    1.0714   -0.1148 C   0  0  0  0  0  0  0  0  0  0  0  0
   -2.1310    2.0495   -0.1514 C   0  0  0  0  0  0  0  0  0  0  0  0
   -2.9352    1.6130   -1.2775 N   0  0  0  0  0  0  0  0  0  0  0  0
   -3.4971    0.3246   -1.0949 C   0  0  0  0  0  0  0  0  0  0  0  0
   -2.8968   -0.5185   -0.0421 C   0  0  0  0  0  0  0  0  0  0  0  0
    2.5785    0.4629   -2.3072 C   0  0  0  0  0  0  0  0  0  0  0  0
    2.0223   -0.2183   -3.8240 Cl  0  0  0  0  0  0  0  0  0  0  0  0
    3.5214    1.4659   -2.2574 C   0  0  0  0  0  0  0  0  0  0  0  0
    3.8430    2.0065    1.0486 H   0  0  0  0  0  0  0  0  0  0  0  0
    2.1421    0.2025    1.0450 H   0  0  0  0  0  0  0  0  0  0  0  0
    1.9314   -3.1198    0.6954 H   0  0  0  0  0  0  0  0  0  0  0  0
    1.2086   -3.8081    2.9777 H   0  0  0  0  0  0  0  0  0  0  0  0
   -0.8318   -2.7564    3.9822 H   0  0  0  0  0  0  0  0  0  0  0  0
   -2.0576   -1.1084    2.7395 H   0  0  0  0  0  0  0  0  0  0  0  0
   -0.1682    1.4289    0.5720 H   0  0  0  0  0  0  0  0  0  0  0  0
   -0.6365    0.9657   -1.1654 H   0  0  0  0  0  0  0  0  0  0  0  0
   -2.7015    1.8900    0.7818 H   0  0  0  0  0  0  0  0  0  0  0  0
   -1.7478    3.0552   -0.2963 H   0  0  0  0  0  0  0  0  0  0  0  0
   -2.3097    1.6316   -2.1323 H   0  0  0  0  0  0  0  0  0  0  0  0
   -4.6034    0.4603   -0.9120 H   0  0  0  0  0  0  0  0  0  0  0  0
   -3.4592   -0.2140   -2.0874 H   0  0  0  0  0  0  0  0  0  0  0  0
   -3.4882   -0.4326    0.9013 H   0  0  0  0  0  0  0  0  0  0  0  0
   -2.8973   -1.6052   -0.3465 H   0  0  0  0  0  0  0  0  0  0  0  0
    3.9309    1.8435   -3.1961 H   0  0  0  0  0  0  0  0  0  0  0  0
  1  2  1  0
  2  3  2  0
  3  4  1  0
  4  5  2  0
  5  6  1  0
  6  7  1  0
  7  8  2  0
  8  9  1  0
  9 10  2  0
 10 11  1  0
 11 12  2  0
 12 13  1  0
 13 14  1  0
 14 15  1  0
 15 16  1  0
 16 17  1  0
 17 18  1  0
  5 19  1  0
 19 20  1  0
 19 21  2  0
 21  2  1  0
 12  7  1  0
 18 13  1  0
  3 22  1  0
  4 23  1  0
  8 24  1  0
  9 25  1  0
 10 26  1  0
 11 27  1  0
 14 28  1  0
 14 29  1  0
 15 30  1  0
 15 31  1  0
 16 32  1  0
 17 33  1  0
 17 34  1  0
 18 35  1  0
 18 36  1  0
 21 37  1  0
M  END
$$$$
