@<TRIPOS>MOLECULE
*****
 44 47 0 0 0
SMALL
GASTEIGER

@<TRIPOS>ATOM
      1 CL         -3.4648   -4.5448    1.6814 Cl      1  UNL1       -0.0835
      2 C          -2.7899   -3.0825    0.9888 C.ar    1  UNL1        0.0410
      3 C          -1.9034   -3.0852   -0.0829 C.ar    1  UNL1       -0.0431
      4 C          -1.4079   -1.9071   -0.5835 C.ar    1  UNL1       -0.0563
      5 C          -1.7917   -0.6893   -0.0182 C.ar    1  UNL1       -0.0367
      6 C          -2.6616   -0.7359    1.0291 C.ar    1  UNL1       -0.0563
      7 C          -3.1842   -1.8962    1.5642 C.ar    1  UNL1       -0.0431
      8 C          -1.1902    0.4878   -0.6508 C.3     1  UNL1        0.0230
      9 C          -1.5495    1.8006    0.0134 C.3     1  UNL1       -0.0267
     10 C          -2.7272    2.4657   -0.6421 C.3     1  UNL1       -0.0030
     11 N          -3.6079    1.4832   -1.2355 N.3     1  UNL1       -0.3159
     12 C          -3.0137    0.7912   -2.3404 C.3     1  UNL1       -0.0030
     13 C          -1.5521    0.4948   -2.1160 C.3     1  UNL1       -0.0267
     14 C           0.2896    0.3638   -0.5447 C.ar    1  UNL1       -0.0368
     15 C           1.2375    0.2267   -1.5516 C.ar    1  UNL1       -0.0571
     16 C           2.5644    0.1289   -1.2252 C.ar    1  UNL1       -0.0537
     17 C           3.0474    0.1570    0.0739 C.ar    1  UNL1       -0.0149
     18 C           2.0750    0.2938    1.0411 C.ar    1  UNL1       -0.0537
     19 C           0.7105    0.3991    0.7909 C.ar    1  UNL1       -0.0571
     20 C           4.4594    0.0550    0.3937 C.ar    1  UNL1        0.0193
     21 C           5.1254   -0.4862    1.4974 C.ar    1  UNL1        0.0300
     22 N           6.4503   -0.3302    1.3181 N.ar    1  UNL1       -0.2841
     23 N           6.6680    0.2849    0.1529 N.ar    1  UNL1       -0.1817
     24 C           5.4652    0.5166   -0.4035 C.ar    1  UNL1        0.0568
     25 H          -1.6861   -4.0821   -0.4287 H       1  UNL1        0.0632
     26 H          -0.7363   -2.1077   -1.4093 H       1  UNL1        0.0621
     27 H          -2.9500    0.1930    1.4530 H       1  UNL1        0.0621
     28 H          -3.8626   -1.8636    2.3859 H       1  UNL1        0.0632
     29 H          -1.6592    1.7186    1.1129 H       1  UNL1        0.0289
     30 H          -0.6795    2.5142   -0.1128 H       1  UNL1        0.0289
     31 H          -3.3220    3.0368    0.1020 H       1  UNL1        0.0424
     32 H          -2.3921    3.1921   -1.4134 H       1  UNL1        0.0424
     33 H          -4.5339    1.8491   -1.4684 H       1  UNL1        0.1219
     34 H          -3.5952   -0.1588   -2.4867 H       1  UNL1        0.0424
     35 H          -3.1778    1.3867   -3.2603 H       1  UNL1        0.0424
     36 H          -0.9740    1.2136   -2.7143 H       1  UNL1        0.0289
     37 H          -1.3532   -0.5205   -2.5128 H       1  UNL1        0.0289
     38 H           0.8106    0.2115   -2.5220 H       1  UNL1        0.0621
     39 H           3.2674    0.0240   -2.0344 H       1  UNL1        0.0624
     40 H           2.4284    0.3189    2.0793 H       1  UNL1        0.0624
     41 H           0.0678    0.5010    1.6556 H       1  UNL1        0.0621
     42 H           4.5597   -0.9390    2.3184 H       1  UNL1        0.0830
     43 H           7.0720   -0.6992    2.0863 H       1  UNL1        0.1882
     44 H           5.4675    1.0197   -1.3723 H       1  UNL1        0.0854
@<TRIPOS>BOND
     1     1     2    1
     2     2     3   ar
     3     3     4   ar
     4     4     5   ar
     5     5     6   ar
     6     6     7   ar
     7     5     8    1
     8     8     9    1
     9     9    10    1
    10    10    11    1
    11    11    12    1
    12    12    13    1
    13     8    14    1
    14    14    15   ar
    15    15    16   ar
    16    16    17   ar
    17    17    18   ar
    18    18    19   ar
    19    17    20    1
    20    20    21   ar
    21    21    22   ar
    22    22    23   ar
    23    23    24   ar
    24     7     2   ar
    25    13     8    1
    26    19    14   ar
    27    24    20   ar
    28     3    25    1
    29     4    26    1
    30     6    27    1
    31     7    28    1
    32     9    29    1
    33     9    30    1
    34    10    31    1
    35    10    32    1
    36    11    33    1
    37    12    34    1
    38    12    35    1
    39    13    36    1
    40    13    37    1
    41    15    38    1
    42    16    39    1
    43    18    40    1
    44    19    41    1
    45    21    42    1
    46    22    43    1
    47    24    44    1
