
     RDKit          3D

 31 33  0  0  0  0  0  0  0  0999 V2000
    1.9248    2.7968   -0.8111 O   0  0  0  0  0  0  0  0  0  0  0  0
    1.4364    1.6990   -0.4416 C   0  0  0  0  0  0  0  0  0  0  0  0
    0.0392    1.5745   -0.3530 C   0  0  0  0  0  0  0  0  0  0  0  0
   -0.7657    2.6479   -0.6697 O   0  0  0  0  0  0  0  0  0  0  0  0
   -0.4910    0.3872    0.0467 C   0  0  0  0  0  0  0  0  0  0  0  0
   -1.9221    0.1109    0.1852 C   0  0  0  0  0  0  0  0  0  0  0  0
   -2.9280    0.9764   -0.0578 C   0  0  0  0  0  0  0  0  0  0  0  0
   -4.2945    0.6583    0.0918 C   0  0  0  0  0  0  0  0  0  0  0  0
   -4.6504   -0.5974    0.5076 C   0  0  0  0  0  0  0  0  0  0  0  0
   -5.9977   -0.8951    0.6501 O   0  0  0  0  0  0  0  0  0  0  0  0
   -3.6394   -1.4987    0.7620 C   0  0  0  0  0  0  0  0  0  0  0  0
   -2.3168   -1.1717    0.6110 C   0  0  0  0  0  0  0  0  0  0  0  0
    0.3605   -0.6056    0.3359 O   0  0  0  0  0  0  0  0  0  0  0  0
    1.6530   -0.5127    0.2611 C   0  0  0  0  0  0  0  0  0  0  0  0
    2.4788   -1.5753    0.5736 C   0  0  0  0  0  0  0  0  0  0  0  0
    3.8479   -1.4823    0.4961 C   0  0  0  0  0  0  0  0  0  0  0  0
    4.6435   -2.5739    0.8189 O   0  0  0  0  0  0  0  0  0  0  0  0
    4.4780   -0.3147    0.0992 C   0  0  0  0  0  0  0  0  0  0  0  0
    3.6534    0.7458   -0.2127 C   0  0  0  0  0  0  0  0  0  0  0  0
    4.2400    1.9329   -0.6143 O   0  0  0  0  0  0  0  0  0  0  0  0
    2.2782    0.6537   -0.1352 C   0  0  0  0  0  0  0  0  0  0  0  0
   -0.8794    2.8449   -1.6730 H   0  0  0  0  0  0  0  0  0  0  0  0
   -2.7101    1.9763   -0.3867 H   0  0  0  0  0  0  0  0  0  0  0  0
   -5.0441    1.4118   -0.1241 H   0  0  0  0  0  0  0  0  0  0  0  0
   -6.6604   -0.9351   -0.0973 H   0  0  0  0  0  0  0  0  0  0  0  0
   -3.9301   -2.4912    1.0910 H   0  0  0  0  0  0  0  0  0  0  0  0
   -1.5379   -1.8958    0.8165 H   0  0  0  0  0  0  0  0  0  0  0  0
    1.9823   -2.5046    0.8893 H   0  0  0  0  0  0  0  0  0  0  0  0
    4.2343   -3.4915    0.7840 H   0  0  0  0  0  0  0  0  0  0  0  0
    5.5559   -0.2809    0.0508 H   0  0  0  0  0  0  0  0  0  0  0  0
    4.9612    2.4100   -0.1182 H   0  0  0  0  0  0  0  0  0  0  0  0
  1  2  2  0
  2  3  1  0
  3  4  1  0
  3  5  2  0
  5  6  1  0
  6  7  2  0
  7  8  1  0
  8  9  2  0
  9 10  1  0
  9 11  1  0
 11 12  2  0
  5 13  1  0
 13 14  1  0
 14 15  2  0
 15 16  1  0
 16 17  1  0
 16 18  2  0
 18 19  1  0
 19 20  1  0
 19 21  2  0
 21  2  1  0
 12  6  1  0
 21 14  1  0
  4 22  1  0
  7 23  1  0
  8 24  1  0
 10 25  1  0
 11 26  1  0
 12 27  1  0
 15 28  1  0
 17 29  1  0
 18 30  1  0
 20 31  1  0
M  END
$$$$
