@<TRIPOS>MOLECULE
*****
 31 33 0 0 0
SMALL
GASTEIGER

@<TRIPOS>ATOM
      1 O           1.9248    2.7968   -0.8111 O.2     1  UNL1       -0.2830
      2 C           1.4364    1.6990   -0.4416 C.ar    1  UNL1        0.2379
      3 C           0.0392    1.5745   -0.3530 C.ar    1  UNL1        0.2082
      4 O          -0.7657    2.6479   -0.6697 O.3     1  UNL1       -0.5007
      5 C          -0.4910    0.3872    0.0467 C.ar    1  UNL1        0.1806
      6 C          -1.9221    0.1109    0.1852 C.ar    1  UNL1        0.0213
      7 C          -2.9280    0.9764   -0.0578 C.ar    1  UNL1       -0.0475
      8 C          -4.2945    0.6583    0.0918 C.ar    1  UNL1       -0.0195
      9 C          -4.6504   -0.5974    0.5076 C.ar    1  UNL1        0.1169
     10 O          -5.9977   -0.8951    0.6501 O.3     1  UNL1       -0.5068
     11 C          -3.6394   -1.4987    0.7620 C.ar    1  UNL1       -0.0195
     12 C          -2.3168   -1.1717    0.6110 C.ar    1  UNL1       -0.0475
     13 O           0.3605   -0.6056    0.3359 O.2     1  UNL1       -0.4507
     14 C           1.6530   -0.5127    0.2611 C.ar    1  UNL1        0.1465
     15 C           2.4788   -1.5753    0.5736 C.ar    1  UNL1        0.0231
     16 C           3.8479   -1.4823    0.4961 C.ar    1  UNL1        0.1239
     17 O           4.6435   -2.5739    0.8189 O.3     1  UNL1       -0.5065
     18 C           4.4780   -0.3147    0.0992 C.ar    1  UNL1        0.0223
     19 C           3.6534    0.7458   -0.2127 C.ar    1  UNL1        0.1348
     20 O           4.2400    1.9329   -0.6143 O.3     1  UNL1       -0.5058
     21 C           2.2782    0.6537   -0.1352 C.ar    1  UNL1        0.1092
     22 H          -0.8794    2.8449   -1.6730 H       1  UNL1        0.2924
     23 H          -2.7101    1.9763   -0.3867 H       1  UNL1        0.0626
     24 H          -5.0441    1.4118   -0.1241 H       1  UNL1        0.0654
     25 H          -6.6604   -0.9351   -0.0973 H       1  UNL1        0.2921
     26 H          -3.9301   -2.4912    1.0910 H       1  UNL1        0.0654
     27 H          -1.5379   -1.8958    0.8165 H       1  UNL1        0.0626
     28 H           1.9823   -2.5046    0.8893 H       1  UNL1        0.0691
     29 H           4.2343   -3.4915    0.7840 H       1  UNL1        0.2921
     30 H           5.5559   -0.2809    0.0508 H       1  UNL1        0.0691
     31 H           4.9612    2.4100   -0.1182 H       1  UNL1        0.2922
@<TRIPOS>BOND
     1     1     2    2
     2     2     3   ar
     3     3     4    1
     4     3     5   ar
     5     5     6    1
     6     6     7   ar
     7     7     8   ar
     8     8     9   ar
     9     9    10    1
    10     9    11   ar
    11    11    12   ar
    12     5    13   ar
    13    13    14   ar
    14    14    15   ar
    15    15    16   ar
    16    16    17    1
    17    16    18   ar
    18    18    19   ar
    19    19    20    1
    20    19    21   ar
    21    21     2   ar
    22    12     6   ar
    23    21    14   ar
    24     4    22    1
    25     7    23    1
    26     8    24    1
    27    10    25    1
    28    11    26    1
    29    12    27    1
    30    15    28    1
    31    17    29    1
    32    18    30    1
    33    20    31    1
