@<TRIPOS>MOLECULE
*****
 55 59 0 0 0
SMALL
GASTEIGER

@<TRIPOS>ATOM
      1 C          -4.5324    1.5215   -2.1921 C.3     1  UNL1       -0.0376
      2 C          -3.1484    1.7084   -1.7094 C.ar    1  UNL1       -0.0226
      3 C          -2.3030    2.5759   -2.3843 C.ar    1  UNL1       -0.0567
      4 C          -1.0119    2.7492   -1.9325 C.ar    1  UNL1       -0.0607
      5 C          -0.5739    2.0650   -0.8226 C.ar    1  UNL1       -0.0475
      6 C          -1.4466    1.1933   -0.1565 C.ar    1  UNL1        0.0642
      7 C          -1.0264    0.4509    1.0186 C.2     1  UNL1        0.2491
      8 O          -1.1374    0.8632    2.1959 O.2     1  UNL1       -0.2699
      9 N          -0.4461   -0.8333    0.8602 N.am    1  UNL1       -0.2897
     10 C          -0.2906   -1.3643   -0.4740 C.3     1  UNL1        0.0388
     11 C          -0.2745   -2.8879   -0.4780 C.3     1  UNL1        0.0635
     12 O           0.6200   -3.3255    0.5261 O.3     1  UNL1       -0.3764
     13 C           0.0054   -3.0556    1.7357 C.3     1  UNL1        0.0666
     14 C          -0.0123   -1.6059    2.0283 C.3     1  UNL1        0.0537
     15 C           1.2002   -1.0205    2.6584 C.3     1  UNL1       -0.0040
     16 C           2.4016   -0.9353    1.8067 C.ar    1  UNL1       -0.0083
     17 C           2.6828    0.2674    1.1458 C.ar    1  UNL1       -0.0286
     18 C           3.7692    0.4067    0.3151 C.ar    1  UNL1        0.0866
     19 N           4.0709    1.6197   -0.3641 N.ar    1  UNL1       -0.1503
     20 N           5.2855    2.1127   -0.6037 N.ar    1  UNL1       -0.1556
     21 C           5.2107    3.2684   -1.2630 C.ar    1  UNL1        0.0697
     22 C           3.8691    3.5173   -1.4493 C.ar    1  UNL1        0.0697
     23 N           3.2138    2.4863   -0.8852 N.ar    1  UNL1       -0.1556
     24 C           4.5698   -0.6977    0.1642 C.ar    1  UNL1       -0.0318
     25 C           4.3182   -1.8885    0.8001 C.ar    1  UNL1       -0.0241
     26 C           3.2196   -2.0214    1.6378 C.ar    1  UNL1        0.1267
     27 F           3.0071   -3.2184    2.2860 F       1  UNL1       -0.2052
     28 C          -2.7376    1.0109   -0.5966 C.ar    1  UNL1        0.1011
     29 N          -3.6006    0.1251    0.0926 N.ar    1  UNL1       -0.1493
     30 N          -3.7089   -1.1673    0.0865 N.ar    1  UNL1       -0.1556
     31 C          -4.6875   -1.5612    0.9162 C.ar    1  UNL1        0.0697
     32 C          -5.2271   -0.4244    1.4796 C.ar    1  UNL1        0.0697
     33 N          -4.5201    0.5790    0.9366 N.ar    1  UNL1       -0.1556
     34 H          -4.9356    2.5238   -2.4727 H       1  UNL1        0.0278
     35 H          -5.1413    1.0016   -1.4460 H       1  UNL1        0.0278
     36 H          -4.4774    0.9343   -3.1516 H       1  UNL1        0.0278
     37 H          -2.6028    3.1320   -3.2566 H       1  UNL1        0.0621
     38 H          -0.3168    3.4263   -2.4410 H       1  UNL1        0.0618
     39 H           0.4270    2.1598   -0.4219 H       1  UNL1        0.0626
     40 H           0.6986   -1.0576   -0.9257 H       1  UNL1        0.0487
     41 H          -1.1201   -1.0712   -1.1573 H       1  UNL1        0.0487
     42 H           0.1713   -3.2209   -1.4384 H       1  UNL1        0.0575
     43 H          -1.2713   -3.3092   -0.3056 H       1  UNL1        0.0575
     44 H           0.3943   -3.6511    2.5870 H       1  UNL1        0.0578
     45 H          -1.0577   -3.3929    1.6133 H       1  UNL1        0.0578
     46 H          -0.8378   -1.4775    2.8213 H       1  UNL1        0.0526
     47 H           1.4631   -1.6238    3.5779 H       1  UNL1        0.0333
     48 H           0.8994    0.0039    3.0325 H       1  UNL1        0.0333
     49 H           2.0417    1.1359    1.2724 H       1  UNL1        0.0643
     50 H           6.0680    3.8589   -1.5703 H       1  UNL1        0.0864
     51 H           3.4930    4.3917   -1.9585 H       1  UNL1        0.0864
     52 H           5.4412   -0.6096   -0.4939 H       1  UNL1        0.0640
     53 H           4.9823   -2.7453    0.6524 H       1  UNL1        0.0647
     54 H          -5.0323   -2.5830    1.1391 H       1  UNL1        0.0864
     55 H          -6.0452   -0.3398    2.2054 H       1  UNL1        0.0864
@<TRIPOS>BOND
     1     1     2    1
     2     2     3   ar
     3     3     4   ar
     4     4     5   ar
     5     5     6   ar
     6     6     7    1
     7     7     8    2
     8     7     9   am
     9     9    10    1
    10    10    11    1
    11    11    12    1
    12    12    13    1
    13    13    14    1
    14    14    15    1
    15    15    16    1
    16    16    17   ar
    17    17    18   ar
    18    18    19    1
    19    19    20   ar
    20    20    21   ar
    21    21    22   ar
    22    22    23   ar
    23    18    24   ar
    24    24    25   ar
    25    25    26   ar
    26    26    27    1
    27     6    28   ar
    28    28    29    1
    29    29    30   ar
    30    30    31   ar
    31    31    32   ar
    32    32    33   ar
    33    28     2   ar
    34    33    29   ar
    35    14     9    1
    36    26    16   ar
    37    23    19   ar
    38     1    34    1
    39     1    35    1
    40     1    36    1
    41     3    37    1
    42     4    38    1
    43     5    39    1
    44    10    40    1
    45    10    41    1
    46    11    42    1
    47    11    43    1
    48    13    44    1
    49    13    45    1
    50    14    46    1
    51    15    47    1
    52    15    48    1
    53    17    49    1
    54    21    50    1
    55    22    51    1
    56    24    52    1
    57    25    53    1
    58    31    54    1
    59    32    55    1
