
     RDKit          3D

 57 60  0  0  0  0  0  0  0  0999 V2000
    1.8889   -0.7226    2.1956 O   0  0  0  0  0  0  0  0  0  0  0  0
    1.6932   -0.4896    0.9677 C   0  0  0  0  0  0  0  0  0  0  0  0
    0.4450    0.0150    0.4996 N   0  0  0  0  0  0  0  0  0  0  0  0
   -0.6547    0.2903    1.3571 C   0  0  2  0  0  0  0  0  0  0  0  0
   -1.8353   -0.5782    1.0921 C   0  0  0  0  0  0  0  0  0  0  0  0
   -2.8645   -0.6365    1.9300 C   0  0  0  0  0  0  0  0  0  0  0  0
   -4.2630   -1.6459    1.6459 S   0  0  0  0  0  6  0  0  0  0  0  0
   -4.3787   -2.7512    2.6512 O   0  0  0  0  0  0  0  0  0  0  0  0
   -5.4824   -0.7612    1.8466 O   0  0  0  0  0  0  0  0  0  0  0  0
   -4.2729   -2.2896    0.0203 C   0  0  0  0  0  0  0  0  0  0  0  0
   -3.6781   -3.4945   -0.2959 C   0  0  0  0  0  0  0  0  0  0  0  0
   -3.6843   -4.0049   -1.5777 C   0  0  0  0  0  0  0  0  0  0  0  0
   -4.2920   -3.3259   -2.6117 C   0  0  0  0  0  0  0  0  0  0  0  0
   -4.8908   -2.1208   -2.3129 C   0  0  0  0  0  0  0  0  0  0  0  0
   -4.8808   -1.6109   -1.0155 C   0  0  0  0  0  0  0  0  0  0  0  0
   -0.9992    1.7439    1.3453 C   0  0  0  0  0  0  0  0  0  0  0  0
   -1.3745    2.2017   -0.0504 C   0  0  0  0  0  0  0  0  0  0  0  0
   -1.7010    3.6329    0.0042 C   0  0  0  0  0  0  0  0  0  0  0  0
   -3.0054    4.0053    0.2507 C   0  0  0  0  0  0  0  0  0  0  0  0
   -3.3504    5.3314    0.3094 C   0  0  0  0  0  0  0  0  0  0  0  0
   -2.4309    6.3353    0.1290 C   0  0  0  0  0  0  0  0  0  0  0  0
   -1.1278    5.9816   -0.1173 C   0  0  0  0  0  0  0  0  0  0  0  0
   -0.7723    4.6412   -0.1780 C   0  0  0  0  0  0  0  0  0  0  0  0
    2.7872   -0.7558    0.0569 C   0  0  0  0  0  0  0  0  0  0  0  0
    4.0258   -1.2400    0.3932 C   0  0  0  0  0  0  0  0  0  0  0  0
    4.7721   -1.3503   -0.7611 C   0  0  0  0  0  0  0  0  0  0  0  0
    6.1522   -1.8225   -0.8887 C   0  0  0  0  0  0  0  0  0  0  0  0
    6.8621   -2.2228    0.2224 C   0  0  0  0  0  0  0  0  0  0  0  0
    8.1441   -2.6649    0.1304 C   0  0  0  0  0  0  0  0  0  0  0  0
    8.7593   -2.7224   -1.0701 N   0  0  0  0  0  0  0  0  0  0  0  0
    8.0832   -2.3360   -2.1666 C   0  0  0  0  0  0  0  0  0  0  0  0
    6.7867   -1.8855   -2.0988 C   0  0  0  0  0  0  0  0  0  0  0  0
    3.9608   -0.9316   -1.7413 N   0  0  0  0  0  0  0  0  0  0  0  0
    2.7983   -0.5868   -1.2376 O   0  0  0  0  0  0  0  0  0  0  0  0
    0.3574    0.1819   -0.5201 H   0  0  0  0  0  0  0  0  0  0  0  0
   -0.3290    0.0365    2.4088 H   0  0  0  0  0  0  0  0  0  0  0  0
   -1.8695   -1.1754    0.2095 H   0  0  0  0  0  0  0  0  0  0  0  0
   -2.7970   -0.0164    2.8166 H   0  0  0  0  0  0  0  0  0  0  0  0
   -3.1982   -4.0333    0.5148 H   0  0  0  0  0  0  0  0  0  0  0  0
   -3.2137   -4.9508   -1.8096 H   0  0  0  0  0  0  0  0  0  0  0  0
   -4.3082   -3.7111   -3.6302 H   0  0  0  0  0  0  0  0  0  0  0  0
   -5.3691   -1.5812   -3.1148 H   0  0  0  0  0  0  0  0  0  0  0  0
   -5.3471   -0.6674   -0.7704 H   0  0  0  0  0  0  0  0  0  0  0  0
   -0.0828    2.3079    1.6203 H   0  0  0  0  0  0  0  0  0  0  0  0
   -1.7659    2.0217    2.0888 H   0  0  0  0  0  0  0  0  0  0  0  0
   -0.4867    2.0721   -0.7048 H   0  0  0  0  0  0  0  0  0  0  0  0
   -2.1825    1.5796   -0.4861 H   0  0  0  0  0  0  0  0  0  0  0  0
   -3.7548    3.2522    0.3975 H   0  0  0  0  0  0  0  0  0  0  0  0
   -4.3793    5.6030    0.5039 H   0  0  0  0  0  0  0  0  0  0  0  0
   -2.7263    7.3832    0.1797 H   0  0  0  0  0  0  0  0  0  0  0  0
   -0.4038    6.7544   -0.2593 H   0  0  0  0  0  0  0  0  0  0  0  0
    0.2399    4.3722   -0.3693 H   0  0  0  0  0  0  0  0  0  0  0  0
    4.4146   -1.5096    1.3789 H   0  0  0  0  0  0  0  0  0  0  0  0
    6.4010   -2.1894    1.1949 H   0  0  0  0  0  0  0  0  0  0  0  0
    8.7196   -2.9850    0.9981 H   0  0  0  0  0  0  0  0  0  0  0  0
    8.6179   -2.3986   -3.1155 H   0  0  0  0  0  0  0  0  0  0  0  0
    6.2436   -1.5746   -2.9843 H   0  0  0  0  0  0  0  0  0  0  0  0
  1  2  2  0
  2  3  1  0
  3  4  1  0
  4  5  1  0
  5  6  2  0
  6  7  1  0
  7  8  2  0
  7  9  2  0
  7 10  1  0
 10 11  2  0
 11 12  1  0
 12 13  2  0
 13 14  1  0
 14 15  2  0
  4 16  1  0
 16 17  1  0
 17 18  1  0
 18 19  2  0
 19 20  1  0
 20 21  2  0
 21 22  1  0
 22 23  2  0
  2 24  1  0
 24 25  2  0
 25 26  1  0
 26 27  1  0
 27 28  2  0
 28 29  1  0
 29 30  2  0
 30 31  1  0
 31 32  2  0
 26 33  2  0
 33 34  1  0
 15 10  1  0
 23 18  1  0
 34 24  1  0
 32 27  1  0
  3 35  1  0
  4 36  1  1
  5 37  1  0
  6 38  1  0
 11 39  1  0
 12 40  1  0
 13 41  1  0
 14 42  1  0
 15 43  1  0
 16 44  1  0
 16 45  1  0
 17 46  1  0
 17 47  1  0
 19 48  1  0
 20 49  1  0
 21 50  1  0
 22 51  1  0
 23 52  1  0
 25 53  1  0
 28 54  1  0
 29 55  1  0
 31 56  1  0
 32 57  1  0
M  END
$$$$
