@<TRIPOS>MOLECULE
*****
 57 60 0 0 0
SMALL
GASTEIGER

@<TRIPOS>ATOM
      1 O           1.8889   -0.7226    2.1956 O.2     1  UNL1       -0.2667
      2 C           1.6932   -0.4896    0.9677 C.2     1  UNL1        0.2825
      3 N           0.4450    0.0150    0.4996 N.am    1  UNL1       -0.3024
      4 C          -0.6547    0.2903    1.3571 C.3     1  UNL1        0.0437
      5 C          -1.8353   -0.5782    1.0921 C.2     1  UNL1       -0.0460
      6 C          -2.8645   -0.6365    1.9300 C.2     1  UNL1        0.0552
      7 S          -4.2630   -1.6459    1.6459 S.O2    1  UNL1        0.0182
      8 O          -4.3787   -2.7512    2.6512 O.2     1  UNL1       -0.1649
      9 O          -5.4824   -0.7612    1.8466 O.2     1  UNL1       -0.1649
     10 C          -4.2729   -2.2896    0.0203 C.ar    1  UNL1        0.0929
     11 C          -3.6781   -3.4945   -0.2959 C.ar    1  UNL1       -0.0365
     12 C          -3.6843   -4.0049   -1.5777 C.ar    1  UNL1       -0.0599
     13 C          -4.2920   -3.3259   -2.6117 C.ar    1  UNL1       -0.0616
     14 C          -4.8908   -2.1208   -2.3129 C.ar    1  UNL1       -0.0599
     15 C          -4.8808   -1.6109   -1.0155 C.ar    1  UNL1       -0.0365
     16 C          -0.9992    1.7439    1.3453 C.3     1  UNL1       -0.0269
     17 C          -1.3745    2.2017   -0.0504 C.3     1  UNL1       -0.0257
     18 C          -1.7010    3.6329    0.0042 C.ar    1  UNL1       -0.0473
     19 C          -3.0054    4.0053    0.2507 C.ar    1  UNL1       -0.0586
     20 C          -3.3504    5.3314    0.3094 C.ar    1  UNL1       -0.0615
     21 C          -2.4309    6.3353    0.1290 C.ar    1  UNL1       -0.0617
     22 C          -1.1278    5.9816   -0.1173 C.ar    1  UNL1       -0.0615
     23 C          -0.7723    4.6412   -0.1780 C.ar    1  UNL1       -0.0586
     24 C           2.7872   -0.7558    0.0569 C.ar    1  UNL1        0.2220
     25 C           4.0258   -1.2400    0.3932 C.ar    1  UNL1        0.0177
     26 C           4.7721   -1.3503   -0.7611 C.ar    1  UNL1        0.1142
     27 C           6.1522   -1.8225   -0.8887 C.ar    1  UNL1        0.0065
     28 C           6.8621   -2.2228    0.2224 C.ar    1  UNL1       -0.0343
     29 C           8.1441   -2.6649    0.1304 C.ar    1  UNL1        0.0282
     30 N           8.7593   -2.7224   -1.0701 N.ar    1  UNL1       -0.2632
     31 C           8.0832   -2.3360   -2.1666 C.ar    1  UNL1        0.0282
     32 C           6.7867   -1.8855   -2.0988 C.ar    1  UNL1       -0.0343
     33 N           3.9608   -0.9316   -1.7413 N.ar    1  UNL1       -0.0775
     34 O           2.7983   -0.5868   -1.2376 O.2     1  UNL1       -0.3494
     35 H           0.3574    0.1819   -0.5201 H       1  UNL1        0.1497
     36 H          -0.3290    0.0365    2.4088 H       1  UNL1        0.0543
     37 H          -1.8695   -1.1754    0.2095 H       1  UNL1        0.0603
     38 H          -2.7970   -0.0164    2.8166 H       1  UNL1        0.0821
     39 H          -3.1982   -4.0333    0.5148 H       1  UNL1        0.0637
     40 H          -3.2137   -4.9508   -1.8096 H       1  UNL1        0.0618
     41 H          -4.3082   -3.7111   -3.6302 H       1  UNL1        0.0618
     42 H          -5.3691   -1.5812   -3.1148 H       1  UNL1        0.0618
     43 H          -5.3471   -0.6674   -0.7704 H       1  UNL1        0.0637
     44 H          -0.0828    2.3079    1.6203 H       1  UNL1        0.0289
     45 H          -1.7659    2.0217    2.0888 H       1  UNL1        0.0289
     46 H          -0.4867    2.0721   -0.7048 H       1  UNL1        0.0314
     47 H          -2.1825    1.5796   -0.4861 H       1  UNL1        0.0314
     48 H          -3.7548    3.2522    0.3975 H       1  UNL1        0.0620
     49 H          -4.3793    5.6030    0.5039 H       1  UNL1        0.0618
     50 H          -2.7263    7.3832    0.1797 H       1  UNL1        0.0618
     51 H          -0.4038    6.7544   -0.2593 H       1  UNL1        0.0618
     52 H           0.2399    4.3722   -0.3693 H       1  UNL1        0.0620
     53 H           4.4146   -1.5096    1.3789 H       1  UNL1        0.0679
     54 H           6.4010   -2.1894    1.1949 H       1  UNL1        0.0639
     55 H           8.7196   -2.9850    0.9981 H       1  UNL1        0.0830
     56 H           8.6179   -2.3986   -3.1155 H       1  UNL1        0.0830
     57 H           6.2436   -1.5746   -2.9843 H       1  UNL1        0.0639
@<TRIPOS>BOND
     1     1     2    2
     2     2     3   am
     3     3     4    1
     4     4     5    1
     5     5     6    2
     6     6     7    1
     7     7     8    2
     8     7     9    2
     9     7    10    1
    10    10    11   ar
    11    11    12   ar
    12    12    13   ar
    13    13    14   ar
    14    14    15   ar
    15     4    16    1
    16    16    17    1
    17    17    18    1
    18    18    19   ar
    19    19    20   ar
    20    20    21   ar
    21    21    22   ar
    22    22    23   ar
    23     2    24    1
    24    24    25   ar
    25    25    26   ar
    26    26    27    1
    27    27    28   ar
    28    28    29   ar
    29    29    30   ar
    30    30    31   ar
    31    31    32   ar
    32    26    33   ar
    33    33    34   ar
    34    15    10   ar
    35    23    18   ar
    36    34    24   ar
    37    32    27   ar
    38     3    35    1
    39     4    36    1
    40     5    37    1
    41     6    38    1
    42    11    39    1
    43    12    40    1
    44    13    41    1
    45    14    42    1
    46    15    43    1
    47    16    44    1
    48    16    45    1
    49    17    46    1
    50    17    47    1
    51    19    48    1
    52    20    49    1
    53    21    50    1
    54    22    51    1
    55    23    52    1
    56    25    53    1
    57    28    54    1
    58    29    55    1
    59    31    56    1
    60    32    57    1
