@<TRIPOS>MOLECULE
*****
 66 68 0 0 0
SMALL
GASTEIGER

@<TRIPOS>ATOM
      1 C           1.5176    0.2384   -1.1870 C.3     1  UNL1        0.0512
      2 C           0.1065    0.0215   -0.7611 C.3     1  UNL1        0.1034
      3 O          -0.6162   -0.6807   -1.7453 O.3     1  UNL1       -0.3756
      4 C          -1.0604   -1.9100   -1.2331 C.3     1  UNL1        0.0370
      5 C          -0.6719    1.2469   -0.4075 C.3     1  UNL1        0.1311
      6 C          -0.3295    2.4712   -1.1885 C.3     1  UNL1       -0.0104
      7 C           0.5079    2.2156   -2.3940 C.3     1  UNL1       -0.0177
      8 C           1.7180    1.3670   -2.1272 C.3     1  UNL1        0.1009
      9 C           2.4920    1.0572   -3.3902 C.3     1  UNL1        0.0779
     10 O           2.9818    1.8618   -2.3907 O.3     1  UNL1       -0.3678
     11 O          -2.0552    0.8887   -0.5631 O.3     1  UNL1       -0.4445
     12 C          -2.9509    0.8969    0.4870 C.2     1  UNL1        0.4012
     13 O          -2.7378    1.1961    1.6784 O.2     1  UNL1       -0.2265
     14 N          -4.2267    0.4959    0.0080 N.am    1  UNL1       -0.2696
     15 C          -5.4833    0.3466    0.7143 C.3     1  UNL1        0.1045
     16 C          -5.9474   -1.1107    0.6748 C.3     1  UNL1       -0.0196
     17 C          -4.8743   -1.9665    1.3377 C.3     1  UNL1       -0.0605
     18 C          -7.1747   -1.2336    1.5479 C.3     1  UNL1       -0.0605
     19 C          -6.5244    1.2371    0.1759 C.2     1  UNL1        0.2312
     20 N          -7.7736    1.1743    0.8273 N.am    1  UNL1       -0.3278
     21 O          -6.8605    2.1056   -0.6635 O.2     1  UNL1       -0.2740
     22 C           2.4937    0.3518   -0.0380 C.3     1  UNL1        0.1015
     23 C           2.3309    1.4425    0.9887 C.3     1  UNL1       -0.0329
     24 O           2.7241   -0.9262    0.6562 O.3     1  UNL1       -0.3642
     25 C           3.8083   -0.2575   -0.1469 C.3     1  UNL1        0.0920
     26 C           4.9571    0.2368    0.7005 C.3     1  UNL1       -0.0054
     27 C           6.1980   -0.5197    0.4298 C.2     1  UNL1       -0.0828
     28 C           6.9624   -1.2442    1.2034 C.2     1  UNL1       -0.0795
     29 C           6.6487   -1.4303    2.6447 C.3     1  UNL1       -0.0440
     30 C           8.1618   -1.8879    0.6234 C.3     1  UNL1       -0.0440
     31 H           1.8205   -0.7154   -1.7162 H       1  UNL1        0.0385
     32 H           0.1124   -0.6252    0.1585 H       1  UNL1        0.0637
     33 H          -0.1594   -2.5078   -0.9228 H       1  UNL1        0.0524
     34 H          -1.7154   -1.7705   -0.3547 H       1  UNL1        0.0524
     35 H          -1.5747   -2.4411   -2.0448 H       1  UNL1        0.0524
     36 H          -0.5933    1.4931    0.6901 H       1  UNL1        0.0761
     37 H          -1.2739    2.9498   -1.5801 H       1  UNL1        0.0303
     38 H           0.1503    3.2214   -0.5295 H       1  UNL1        0.0303
     39 H           0.8764    3.2001   -2.7774 H       1  UNL1        0.0295
     40 H          -0.0619    1.7685   -3.2371 H       1  UNL1        0.0295
     41 H           2.2686    1.6134   -4.3327 H       1  UNL1        0.0589
     42 H           2.8520    0.0250   -3.5570 H       1  UNL1        0.0589
     43 H          -4.5231    0.2247   -0.9539 H       1  UNL1        0.1528
     44 H          -5.3342    0.5955    1.7811 H       1  UNL1        0.0598
     45 H          -6.1474   -1.4541   -0.3579 H       1  UNL1        0.0318
     46 H          -5.0916   -3.0183    1.0601 H       1  UNL1        0.0233
     47 H          -3.8602   -1.6378    1.0284 H       1  UNL1        0.0233
     48 H          -5.0210   -1.8865    2.4347 H       1  UNL1        0.0233
     49 H          -7.2329   -2.2494    2.0248 H       1  UNL1        0.0233
     50 H          -8.1142   -1.1725    0.9480 H       1  UNL1        0.0233
     51 H          -7.2063   -0.5116    2.3823 H       1  UNL1        0.0233
     52 H          -8.6920    1.1184    1.2973 H       1  UNL1        0.1450
     53 H          -8.3057    1.6657    1.5753 H       1  UNL1        0.1450
     54 H           2.1407    2.4234    0.5397 H       1  UNL1        0.0258
     55 H           1.5449    1.1842    1.7326 H       1  UNL1        0.0258
     56 H           3.2607    1.5555    1.5841 H       1  UNL1        0.0258
     57 H           4.0917   -0.9900   -0.9260 H       1  UNL1        0.0628
     58 H           4.7146    0.0785    1.7888 H       1  UNL1        0.0333
     59 H           5.1730    1.3135    0.5301 H       1  UNL1        0.0333
     60 H           6.4144   -0.3754   -0.6279 H       1  UNL1        0.0572
     61 H           5.5554   -1.4848    2.7864 H       1  UNL1        0.0274
     62 H           7.0523   -2.4000    3.0237 H       1  UNL1        0.0274
     63 H           7.1088   -0.6141    3.2592 H       1  UNL1        0.0274
     64 H           9.1110   -1.5135    1.0761 H       1  UNL1        0.0274
     65 H           8.1453   -2.9728    0.8594 H       1  UNL1        0.0274
     66 H           8.1920   -1.7743   -0.4760 H       1  UNL1        0.0274
@<TRIPOS>BOND
     1     1     2    1
     2     2     3    1
     3     3     4    1
     4     2     5    1
     5     5     6    1
     6     6     7    1
     7     7     8    1
     8     8     9    1
     9     9    10    1
    10     5    11    1
    11    11    12    1
    12    12    13    2
    13    12    14   am
    14    14    15    1
    15    15    16    1
    16    16    17    1
    17    16    18    1
    18    15    19    1
    19    19    20   am
    20    19    21    2
    21     1    22    1
    22    22    23    1
    23    22    24    1
    24    24    25    1
    25    25    26    1
    26    26    27    1
    27    27    28    2
    28    28    29    1
    29    28    30    1
    30     8     1    1
    31     8    10    1
    32    25    22    1
    33     1    31    1
    34     2    32    1
    35     4    33    1
    36     4    34    1
    37     4    35    1
    38     5    36    1
    39     6    37    1
    40     6    38    1
    41     7    39    1
    42     7    40    1
    43     9    41    1
    44     9    42    1
    45    14    43    1
    46    15    44    1
    47    16    45    1
    48    17    46    1
    49    17    47    1
    50    17    48    1
    51    18    49    1
    52    18    50    1
    53    18    51    1
    54    20    52    1
    55    20    53    1
    56    23    54    1
    57    23    55    1
    58    23    56    1
    59    25    57    1
    60    26    58    1
    61    26    59    1
    62    27    60    1
    63    29    61    1
    64    29    62    1
    65    29    63    1
    66    30    64    1
    67    30    65    1
    68    30    66    1
