@<TRIPOS>MOLECULE
*****
 54 56 0 0 0
SMALL
GASTEIGER

@<TRIPOS>ATOM
      1 N          -5.3254    2.7854   -1.8645 N.3     1  UNL1       -0.3300
      2 C          -4.9950    1.6656   -0.9705 C.3     1  UNL1       -0.0069
      3 C          -4.7111    0.4812   -1.8514 C.3     1  UNL1       -0.0406
      4 C          -4.3538   -0.7631   -1.0923 C.3     1  UNL1       -0.0499
      5 C          -3.1120   -0.5228   -0.2592 C.3     1  UNL1       -0.0262
      6 C          -2.7200   -1.7611    0.5214 C.3     1  UNL1        0.1108
      7 N          -1.5628   -1.4564    1.2744 N.3     1  UNL1       -0.2910
      8 CA         -0.3871   -1.0477    0.5938 C.3     1  UNL1        0.1103
      9 C           0.6353   -0.7957    1.7201 C.3     1  UNL1       -0.0017
     10 C           1.9440   -0.3569    1.2223 C.ar    1  UNL1       -0.0418
     11 C           2.9021   -1.3125    0.9561 C.ar    1  UNL1       -0.0577
     12 C           4.1671   -0.9553    0.4801 C.ar    1  UNL1       -0.0501
     13 C           4.4685    0.3836    0.2701 C.ar    1  UNL1        0.0279
     14 C           3.5183    1.3478    0.5328 C.ar    1  UNL1        0.1365
     15 C           2.2670    0.9540    1.0068 C.ar    1  UNL1       -0.0155
     16 O           4.0680    2.4922    0.2498 O.2     1  UNL1       -0.4548
     17 C           5.2882    2.3853   -0.1746 C.ar    1  UNL1        0.1362
     18 C           6.2741    3.2761   -0.5928 C.ar    1  UNL1       -0.0187
     19 C           7.5226    2.8758   -1.0046 C.ar    1  UNL1       -0.0582
     20 C           7.8135    1.5301   -1.0042 C.ar    1  UNL1       -0.0610
     21 C           6.8425    0.6223   -0.5900 C.ar    1  UNL1       -0.0504
     22 C           5.5942    1.0410   -0.1796 C.ar    1  UNL1        0.0279
     23 C           0.1352   -2.0043   -0.3857 C.2     1  UNL1        0.3223
     24 O          -0.4197   -3.1173   -0.5461 O.2     1  UNL1       -0.2492
     25 OXT         1.2442   -1.7368   -1.1705 O.3     1  UNL1       -0.4795
     26 P          -4.1197   -2.0496    1.6811 P.3     1  UNL1        0.3445
     27 O          -3.6052   -2.5798    2.9988 O.2     1  UNL1       -0.2572
     28 O          -5.2681   -3.0586    0.9863 O.3     1  UNL1       -0.3230
     29 O          -4.8867   -0.5659    2.0215 O.3     1  UNL1       -0.3230
     30 H          -5.4618    3.6449   -1.2871 H       1  UNL1        0.1182
     31 H          -6.2505    2.5290   -2.3070 H       1  UNL1        0.1182
     32 H          -5.8267    1.5044   -0.2771 H       1  UNL1        0.0422
     33 H          -4.0793    1.9476   -0.4024 H       1  UNL1        0.0422
     34 H          -5.6320    0.2573   -2.4323 H       1  UNL1        0.0277
     35 H          -3.9034    0.6999   -2.5510 H       1  UNL1        0.0277
     36 H          -4.1523   -1.5696   -1.7969 H       1  UNL1        0.0266
     37 H          -5.2036   -0.9956   -0.4219 H       1  UNL1        0.0266
     38 H          -3.3199    0.2767    0.4781 H       1  UNL1        0.0286
     39 H          -2.2515   -0.2170   -0.9107 H       1  UNL1        0.0286
     40 H          -2.6399   -2.6261   -0.1697 H       1  UNL1        0.0586
     41 H          -1.8104   -0.7247    1.9747 H       1  UNL1        0.1235
     42 HA         -0.5556   -0.0285    0.1360 H       1  UNL1        0.0579
     43 H           0.1861   -0.0689    2.4272 H       1  UNL1        0.0334
     44 H           0.7219   -1.7578    2.2628 H       1  UNL1        0.0334
     45 H           2.7117   -2.3702    1.1051 H       1  UNL1        0.0621
     46 H           4.9275   -1.6937    0.2673 H       1  UNL1        0.0625
     47 H           1.5174    1.7041    1.2148 H       1  UNL1        0.0657
     48 H           6.0526    4.3338   -0.5956 H       1  UNL1        0.0654
     49 H           8.2856    3.5988   -1.3308 H       1  UNL1        0.0619
     50 H           8.7877    1.2090   -1.3249 H       1  UNL1        0.0618
     51 H           7.0588   -0.4242   -0.5861 H       1  UNL1        0.0625
     52 HXT         1.8659   -2.4656   -1.5071 H       1  UNL1        0.2951
     53 H          -4.8932   -3.8934    0.6304 H       1  UNL1        0.2198
     54 H          -5.3534   -0.6268    2.8967 H       1  UNL1        0.2198
@<TRIPOS>BOND
     1     1     2    1
     2     2     3    1
     3     3     4    1
     4     4     5    1
     5     5     6    1
     6     6     7    1
     7     7     8    1
     8     8     9    1
     9     9    10    1
    10    10    11   ar
    11    11    12   ar
    12    12    13   ar
    13    13    14   ar
    14    14    15   ar
    15    14    16   ar
    16    16    17   ar
    17    17    18   ar
    18    18    19   ar
    19    19    20   ar
    20    20    21   ar
    21    21    22   ar
    22     8    23    1
    23    23    24    2
    24    23    25    1
    25     6    26    1
    26    26    27    2
    27    26    28    1
    28    26    29    1
    29    15    10   ar
    30    22    17   ar
    31    22    13   ar
    32     1    30    1
    33     1    31    1
    34     2    32    1
    35     2    33    1
    36     3    34    1
    37     3    35    1
    38     4    36    1
    39     4    37    1
    40     5    38    1
    41     5    39    1
    42     6    40    1
    43     7    41    1
    44     8    42    1
    45     9    43    1
    46     9    44    1
    47    11    45    1
    48    12    46    1
    49    15    47    1
    50    18    48    1
    51    19    49    1
    52    20    50    1
    53    21    51    1
    54    25    52    1
    55    28    53    1
    56    29    54    1
