@<TRIPOS>MOLECULE
*****
 27 28 0 0 0
SMALL
GASTEIGER

@<TRIPOS>ATOM
      1 O          -0.9923    0.3002   -1.9697 O.2     1  UNL1       -0.2956
      2 C          -1.7038    0.0659   -1.0093 C.2     1  UNL1        0.1536
      3 C          -3.0603   -0.4808   -1.2510 C.3     1  UNL1        0.0799
      4 N          -3.7769   -0.7038   -0.0258 N.3     1  UNL1       -0.1971
      5 O          -5.0028   -1.2020   -0.3327 O.3     1  UNL1       -0.3146
      6 C          -1.1971    0.3312    0.3522 C.3     1  UNL1        0.0344
      7 C           0.1853    0.8764    0.3403 C.ar    1  UNL1       -0.0152
      8 C           0.6203    2.1674    0.5418 C.ar    1  UNL1        0.0063
      9 N           1.9672    2.2212    0.4416 N.ar    1  UNL1       -0.3604
     10 C           2.4326    0.9855    0.1767 C.ar    1  UNL1        0.0468
     11 C           3.7296    0.5223   -0.0142 C.ar    1  UNL1       -0.0364
     12 C           3.8862   -0.8307   -0.2753 C.ar    1  UNL1       -0.0414
     13 C           2.8151   -1.7002   -0.3475 C.ar    1  UNL1        0.0417
     14 CL          3.0676   -3.3965   -0.6795 Cl      1  UNL1       -0.0835
     15 C           1.5309   -1.2078   -0.1522 C.ar    1  UNL1       -0.0340
     16 C           1.3421    0.1416    0.1109 C.ar    1  UNL1        0.0046
     17 H          -2.9946   -1.4666   -1.7798 H       1  UNL1        0.0526
     18 H          -3.6432    0.1696   -1.9654 H       1  UNL1        0.0526
     19 H          -3.8285    0.1255    0.5844 H       1  UNL1        0.1540
     20 H          -4.9729   -1.5856   -1.2424 H       1  UNL1        0.2363
     21 H          -1.8456    1.0471    0.9203 H       1  UNL1        0.0391
     22 H          -1.2458   -0.6240    0.9491 H       1  UNL1        0.0391
     23 H          -0.0178    2.9972    0.7464 H       1  UNL1        0.0810
     24 H           2.5847    3.0775    0.5489 H       1  UNL1        0.1653
     25 H           4.5568    1.1898    0.0405 H       1  UNL1        0.0639
     26 H           4.9113   -1.1698   -0.4210 H       1  UNL1        0.0633
     27 H           0.6520   -1.8508   -0.1981 H       1  UNL1        0.0639
@<TRIPOS>BOND
     1     1     2    2
     2     2     3    1
     3     3     4    1
     4     4     5    1
     5     2     6    1
     6     6     7    1
     7     7     8   ar
     8     8     9   ar
     9     9    10   ar
    10    10    11   ar
    11    11    12   ar
    12    12    13   ar
    13    13    14    1
    14    13    15   ar
    15    15    16   ar
    16    16     7   ar
    17    16    10   ar
    18     3    17    1
    19     3    18    1
    20     4    19    1
    21     5    20    1
    22     6    21    1
    23     6    22    1
    24     8    23    1
    25     9    24    1
    26    11    25    1
    27    12    26    1
    28    15    27    1
