
     RDKit          3D

 27 28  0  0  0  0  0  0  0  0999 V2000
   -0.9923    0.3002   -1.9697 O   0  0  0  0  0  0  0  0  0  0  0  0
   -1.7038    0.0659   -1.0093 C   0  0  0  0  0  0  0  0  0  0  0  0
   -3.0603   -0.4808   -1.2510 C   0  0  0  0  0  0  0  0  0  0  0  0
   -3.7769   -0.7038   -0.0258 N   0  0  0  0  0  0  0  0  0  0  0  0
   -5.0028   -1.2020   -0.3327 O   0  0  0  0  0  0  0  0  0  0  0  0
   -1.1971    0.3312    0.3522 C   0  0  0  0  0  0  0  0  0  0  0  0
    0.1853    0.8764    0.3403 C   0  0  0  0  0  0  0  0  0  0  0  0
    0.6203    2.1674    0.5418 C   0  0  0  0  0  0  0  0  0  0  0  0
    1.9672    2.2212    0.4416 N   0  0  0  0  0  0  0  0  0  0  0  0
    2.4326    0.9855    0.1767 C   0  0  0  0  0  0  0  0  0  0  0  0
    3.7296    0.5223   -0.0142 C   0  0  0  0  0  0  0  0  0  0  0  0
    3.8862   -0.8307   -0.2753 C   0  0  0  0  0  0  0  0  0  0  0  0
    2.8151   -1.7002   -0.3475 C   0  0  0  0  0  0  0  0  0  0  0  0
    3.0676   -3.3965   -0.6795 Cl  0  0  0  0  0  0  0  0  0  0  0  0
    1.5309   -1.2078   -0.1522 C   0  0  0  0  0  0  0  0  0  0  0  0
    1.3421    0.1416    0.1109 C   0  0  0  0  0  0  0  0  0  0  0  0
   -2.9946   -1.4666   -1.7798 H   0  0  0  0  0  0  0  0  0  0  0  0
   -3.6432    0.1696   -1.9654 H   0  0  0  0  0  0  0  0  0  0  0  0
   -3.8285    0.1255    0.5844 H   0  0  0  0  0  0  0  0  0  0  0  0
   -4.9729   -1.5856   -1.2424 H   0  0  0  0  0  0  0  0  0  0  0  0
   -1.8456    1.0471    0.9203 H   0  0  0  0  0  0  0  0  0  0  0  0
   -1.2458   -0.6240    0.9491 H   0  0  0  0  0  0  0  0  0  0  0  0
   -0.0178    2.9972    0.7464 H   0  0  0  0  0  0  0  0  0  0  0  0
    2.5847    3.0775    0.5489 H   0  0  0  0  0  0  0  0  0  0  0  0
    4.5568    1.1898    0.0405 H   0  0  0  0  0  0  0  0  0  0  0  0
    4.9113   -1.1698   -0.4210 H   0  0  0  0  0  0  0  0  0  0  0  0
    0.6520   -1.8508   -0.1981 H   0  0  0  0  0  0  0  0  0  0  0  0
  1  2  2  0
  2  3  1  0
  3  4  1  0
  4  5  1  0
  2  6  1  0
  6  7  1  0
  7  8  2  0
  8  9  1  0
  9 10  1  0
 10 11  2  0
 11 12  1  0
 12 13  2  0
 13 14  1  0
 13 15  1  0
 15 16  2  0
 16  7  1  0
 16 10  1  0
  3 17  1  0
  3 18  1  0
  4 19  1  0
  5 20  1  0
  6 21  1  0
  6 22  1  0
  8 23  1  0
  9 24  1  0
 11 25  1  0
 12 26  1  0
 15 27  1  0
M  END
$$$$
