@<TRIPOS>MOLECULE
*****
 53 58 0 0 0
SMALL
GASTEIGER

@<TRIPOS>ATOM
      1 F           4.4026   -1.3247    1.5245 F       1  UNL1       -0.2035
      2 C           3.5669   -0.6218    0.7244 C.ar    1  UNL1        0.1449
      3 C           2.1956   -0.8400    0.8437 C.ar    1  UNL1       -0.0168
      4 C           1.3009   -0.1511    0.0570 C.ar    1  UNL1       -0.0122
      5 C          -0.1246   -0.4140    0.2177 C.ar    1  UNL1        0.0185
      6 C          -0.9964   -0.3021   -0.8587 C.ar    1  UNL1        0.0391
      7 N          -2.2982   -0.5518   -0.6722 N.ar    1  UNL1       -0.2350
      8 C          -2.7850   -0.9105    0.5399 C.ar    1  UNL1        0.1632
      9 C          -4.0328   -1.2108    0.9806 C.ar    1  UNL1        0.0467
     10 C          -5.2411   -1.2161    0.1732 C.ar    1  UNL1       -0.0022
     11 C          -5.6358   -2.3831   -0.4799 C.ar    1  UNL1       -0.0351
     12 C          -6.7659   -2.3855   -1.2330 C.ar    1  UNL1        0.0288
     13 N          -7.5103   -1.2938   -1.3634 N.ar    1  UNL1       -0.2549
     14 C          -7.2014   -0.1318   -0.7690 C.ar    1  UNL1        0.0715
     15 C          -8.0022    0.9811   -0.9302 C.ar    1  UNL1       -0.0357
     16 C          -7.6146    2.1404   -0.2848 C.ar    1  UNL1       -0.0597
     17 C          -6.4611    2.1819    0.4969 C.ar    1  UNL1       -0.0611
     18 C          -5.6952    1.0609    0.6321 C.ar    1  UNL1       -0.0520
     19 C          -6.0510   -0.1087    0.0045 C.ar    1  UNL1        0.0082
     20 C          -3.9316   -1.5057    2.3194 C.ar    1  UNL1        0.0597
     21 N          -2.6440   -1.3872    2.6883 N.ar    1  UNL1       -0.1727
     22 N          -1.9668   -1.0287    1.6072 N.ar    1  UNL1       -0.2206
     23 C          -0.6739   -0.7855    1.4424 C.ar    1  UNL1        0.0406
     24 C           1.7929    0.7592   -0.8511 C.ar    1  UNL1       -0.0520
     25 C           3.1590    0.9660   -0.9589 C.ar    1  UNL1       -0.0373
     26 C           4.0770    0.2835   -0.1772 C.ar    1  UNL1        0.0655
     27 N           5.4774    0.4948   -0.2921 N.pl3   1  UNL1       -0.3253
     28 C           6.2973   -0.6065   -0.6845 C.3     1  UNL1        0.0248
     29 C           7.7680   -0.3377   -0.6410 C.3     1  UNL1        0.0117
     30 N           8.1324    1.0398   -0.6391 N.3     1  UNL1       -0.3130
     31 C           7.4099    1.6838    0.4604 C.3     1  UNL1        0.0117
     32 C           5.9783    1.8225   -0.0008 C.3     1  UNL1        0.0248
     33 H           1.8324   -1.5590    1.5633 H       1  UNL1        0.0653
     34 H          -0.5675   -0.0127   -1.8119 H       1  UNL1        0.0837
     35 H          -5.0208   -3.2798   -0.3703 H       1  UNL1        0.0639
     36 H          -7.0540   -3.3189   -1.7370 H       1  UNL1        0.0830
     37 H          -8.8926    0.9328   -1.5393 H       1  UNL1        0.0639
     38 H          -8.2166    3.0215   -0.3912 H       1  UNL1        0.0618
     39 H          -6.1722    3.0980    0.9952 H       1  UNL1        0.0618
     40 H          -4.7899    1.0699    1.2377 H       1  UNL1        0.0624
     41 H          -4.7220   -1.7934    3.0176 H       1  UNL1        0.0855
     42 H          -0.0134   -0.8810    2.3049 H       1  UNL1        0.0837
     43 H           1.0752    1.2844   -1.4536 H       1  UNL1        0.0624
     44 H           3.5058    1.6810   -1.6750 H       1  UNL1        0.0637
     45 H           6.0064   -1.4961   -0.0903 H       1  UNL1        0.0476
     46 H           5.9952   -0.8660   -1.7419 H       1  UNL1        0.0476
     47 H           8.2096   -0.8343    0.2480 H       1  UNL1        0.0439
     48 H           8.2408   -0.8080   -1.5531 H       1  UNL1        0.0439
     49 H           7.8949    1.4585   -1.5542 H       1  UNL1        0.1220
     50 H           7.5199    1.0022    1.3278 H       1  UNL1        0.0439
     51 H           7.8765    2.6466    0.6828 H       1  UNL1        0.0439
     52 H           5.3820    2.3402    0.7770 H       1  UNL1        0.0476
     53 H           5.9843    2.3974   -0.9297 H       1  UNL1        0.0476
@<TRIPOS>BOND
     1     1     2    1
     2     2     3   ar
     3     3     4   ar
     4     4     5    1
     5     5     6   ar
     6     6     7   ar
     7     7     8   ar
     8     8     9   ar
     9     9    10    1
    10    10    11   ar
    11    11    12   ar
    12    12    13   ar
    13    13    14   ar
    14    14    15   ar
    15    15    16   ar
    16    16    17   ar
    17    17    18   ar
    18    18    19   ar
    19     9    20   ar
    20    20    21   ar
    21    21    22   ar
    22    22    23   ar
    23     4    24   ar
    24    24    25   ar
    25    25    26   ar
    26    26    27    1
    27    27    28    1
    28    28    29    1
    29    29    30    1
    30    30    31    1
    31    31    32    1
    32    26     2   ar
    33    32    27    1
    34    23     5   ar
    35    22     8   ar
    36    19    10   ar
    37    19    14   ar
    38     3    33    1
    39     6    34    1
    40    11    35    1
    41    12    36    1
    42    15    37    1
    43    16    38    1
    44    17    39    1
    45    18    40    1
    46    20    41    1
    47    23    42    1
    48    24    43    1
    49    25    44    1
    50    28    45    1
    51    28    46    1
    52    29    47    1
    53    29    48    1
    54    30    49    1
    55    31    50    1
    56    31    51    1
    57    32    52    1
    58    32    53    1
