
     RDKit          3D

 53 58  0  0  0  0  0  0  0  0999 V2000
    4.4026   -1.3247    1.5245 F   0  0  0  0  0  0  0  0  0  0  0  0
    3.5669   -0.6218    0.7244 C   0  0  0  0  0  0  0  0  0  0  0  0
    2.1956   -0.8400    0.8437 C   0  0  0  0  0  0  0  0  0  0  0  0
    1.3009   -0.1511    0.0570 C   0  0  0  0  0  0  0  0  0  0  0  0
   -0.1246   -0.4140    0.2177 C   0  0  0  0  0  0  0  0  0  0  0  0
   -0.9964   -0.3021   -0.8587 C   0  0  0  0  0  0  0  0  0  0  0  0
   -2.2982   -0.5518   -0.6722 N   0  0  0  0  0  0  0  0  0  0  0  0
   -2.7850   -0.9105    0.5399 C   0  0  0  0  0  0  0  0  0  0  0  0
   -4.0328   -1.2108    0.9806 C   0  0  0  0  0  0  0  0  0  0  0  0
   -5.2411   -1.2161    0.1732 C   0  0  0  0  0  0  0  0  0  0  0  0
   -5.6358   -2.3831   -0.4799 C   0  0  0  0  0  0  0  0  0  0  0  0
   -6.7659   -2.3855   -1.2330 C   0  0  0  0  0  0  0  0  0  0  0  0
   -7.5103   -1.2938   -1.3634 N   0  0  0  0  0  0  0  0  0  0  0  0
   -7.2014   -0.1318   -0.7690 C   0  0  0  0  0  0  0  0  0  0  0  0
   -8.0022    0.9811   -0.9302 C   0  0  0  0  0  0  0  0  0  0  0  0
   -7.6146    2.1404   -0.2848 C   0  0  0  0  0  0  0  0  0  0  0  0
   -6.4611    2.1819    0.4969 C   0  0  0  0  0  0  0  0  0  0  0  0
   -5.6952    1.0609    0.6321 C   0  0  0  0  0  0  0  0  0  0  0  0
   -6.0510   -0.1087    0.0045 C   0  0  0  0  0  0  0  0  0  0  0  0
   -3.9316   -1.5057    2.3194 C   0  0  0  0  0  0  0  0  0  0  0  0
   -2.6440   -1.3872    2.6883 N   0  0  0  0  0  0  0  0  0  0  0  0
   -1.9668   -1.0287    1.6072 N   0  0  0  0  0  0  0  0  0  0  0  0
   -0.6739   -0.7855    1.4424 C   0  0  0  0  0  0  0  0  0  0  0  0
    1.7929    0.7592   -0.8511 C   0  0  0  0  0  0  0  0  0  0  0  0
    3.1590    0.9660   -0.9589 C   0  0  0  0  0  0  0  0  0  0  0  0
    4.0770    0.2835   -0.1772 C   0  0  0  0  0  0  0  0  0  0  0  0
    5.4774    0.4948   -0.2921 N   0  0  0  0  0  0  0  0  0  0  0  0
    6.2973   -0.6065   -0.6845 C   0  0  0  0  0  0  0  0  0  0  0  0
    7.7680   -0.3377   -0.6410 C   0  0  0  0  0  0  0  0  0  0  0  0
    8.1324    1.0398   -0.6391 N   0  0  0  0  0  0  0  0  0  0  0  0
    7.4099    1.6838    0.4604 C   0  0  0  0  0  0  0  0  0  0  0  0
    5.9783    1.8225   -0.0008 C   0  0  0  0  0  0  0  0  0  0  0  0
    1.8324   -1.5590    1.5633 H   0  0  0  0  0  0  0  0  0  0  0  0
   -0.5675   -0.0127   -1.8119 H   0  0  0  0  0  0  0  0  0  0  0  0
   -5.0208   -3.2798   -0.3703 H   0  0  0  0  0  0  0  0  0  0  0  0
   -7.0540   -3.3189   -1.7370 H   0  0  0  0  0  0  0  0  0  0  0  0
   -8.8926    0.9328   -1.5393 H   0  0  0  0  0  0  0  0  0  0  0  0
   -8.2166    3.0215   -0.3912 H   0  0  0  0  0  0  0  0  0  0  0  0
   -6.1722    3.0980    0.9952 H   0  0  0  0  0  0  0  0  0  0  0  0
   -4.7899    1.0699    1.2377 H   0  0  0  0  0  0  0  0  0  0  0  0
   -4.7220   -1.7934    3.0176 H   0  0  0  0  0  0  0  0  0  0  0  0
   -0.0134   -0.8810    2.3049 H   0  0  0  0  0  0  0  0  0  0  0  0
    1.0752    1.2844   -1.4536 H   0  0  0  0  0  0  0  0  0  0  0  0
    3.5058    1.6810   -1.6750 H   0  0  0  0  0  0  0  0  0  0  0  0
    6.0064   -1.4961   -0.0903 H   0  0  0  0  0  0  0  0  0  0  0  0
    5.9952   -0.8660   -1.7419 H   0  0  0  0  0  0  0  0  0  0  0  0
    8.2096   -0.8343    0.2480 H   0  0  0  0  0  0  0  0  0  0  0  0
    8.2408   -0.8080   -1.5531 H   0  0  0  0  0  0  0  0  0  0  0  0
    7.8949    1.4585   -1.5542 H   0  0  0  0  0  0  0  0  0  0  0  0
    7.5199    1.0022    1.3278 H   0  0  0  0  0  0  0  0  0  0  0  0
    7.8765    2.6466    0.6828 H   0  0  0  0  0  0  0  0  0  0  0  0
    5.3820    2.3402    0.7770 H   0  0  0  0  0  0  0  0  0  0  0  0
    5.9843    2.3974   -0.9297 H   0  0  0  0  0  0  0  0  0  0  0  0
  1  2  1  0
  2  3  2  0
  3  4  1  0
  4  5  1  0
  5  6  1  0
  6  7  2  0
  7  8  1  0
  8  9  2  0
  9 10  1  0
 10 11  2  0
 11 12  1  0
 12 13  2  0
 13 14  1  0
 14 15  2  0
 15 16  1  0
 16 17  2  0
 17 18  1  0
 18 19  2  0
  9 20  1  0
 20 21  2  0
 21 22  1  0
 22 23  1  0
  4 24  2  0
 24 25  1  0
 25 26  2  0
 26 27  1  0
 27 28  1  0
 28 29  1  0
 29 30  1  0
 30 31  1  0
 31 32  1  0
 26  2  1  0
 32 27  1  0
 23  5  2  0
 22  8  1  0
 19 10  1  0
 19 14  1  0
  3 33  1  0
  6 34  1  0
 11 35  1  0
 12 36  1  0
 15 37  1  0
 16 38  1  0
 17 39  1  0
 18 40  1  0
 20 41  1  0
 23 42  1  0
 24 43  1  0
 25 44  1  0
 28 45  1  0
 28 46  1  0
 29 47  1  0
 29 48  1  0
 30 49  1  0
 31 50  1  0
 31 51  1  0
 32 52  1  0
 32 53  1  0
M  END
$$$$
