@<TRIPOS>MOLECULE
*****
 54 58 0 0 0
SMALL
GASTEIGER

@<TRIPOS>ATOM
      1 C           4.9665    2.8649    0.7816 C.3     1  UNL1       -0.0172
      2 C           5.3372    1.3826    0.5546 C.3     1  UNL1        0.1931
      3 O           4.3272    0.6845    0.0109 O.3     1  UNL1       -0.4765
      4 C           3.5736   -0.3914    0.2951 C.ar    1  UNL1        0.1402
      5 C           2.5782   -0.7544   -0.6420 C.ar    1  UNL1       -0.0136
      6 C           1.7339   -1.8142   -0.5039 C.ar    1  UNL1       -0.0241
      7 C           0.7426   -2.0754   -1.5612 C.3     1  UNL1        0.0533
      8 N          -0.5045   -1.3749   -1.3461 N.ar    1  UNL1       -0.2873
      9 C          -0.8452   -0.1418   -1.7666 C.ar    1  UNL1        0.3362
     10 O          -0.1318    0.6396   -2.4327 O.2     1  UNL1       -0.2459
     11 N          -2.0942    0.1562   -1.3662 N.ar    1  UNL1       -0.2413
     12 C          -2.8156    1.3785   -1.6169 C.ar    1  UNL1        0.1922
     13 N          -3.0805    1.9015   -2.8280 N.ar    1  UNL1       -0.0587
     14 O          -3.7460    3.0036   -2.6575 O.2     1  UNL1       -0.3525
     15 C          -3.9453    3.2546   -1.4078 C.ar    1  UNL1        0.1707
     16 C          -4.5924    4.2941   -0.7529 C.ar    1  UNL1        0.0023
     17 C          -4.6368    4.2774    0.6280 C.ar    1  UNL1        0.0446
     18 CL         -5.4456    5.5735    1.5036 Cl      1  UNL1       -0.0834
     19 C          -4.0419    3.2363    1.3241 C.ar    1  UNL1       -0.0425
     20 C          -3.3979    2.2018    0.6732 C.ar    1  UNL1       -0.0460
     21 C          -3.3589    2.2270   -0.7005 C.ar    1  UNL1        0.0661
     22 C          -2.5248   -0.9195   -0.6866 C.ar    1  UNL1        0.0766
     23 C          -3.7127   -1.1865   -0.0537 C.ar    1  UNL1       -0.0351
     24 C          -3.9098   -2.3765    0.5771 C.ar    1  UNL1       -0.0480
     25 C          -2.9390   -3.3559    0.6096 C.ar    1  UNL1        0.0569
     26 C          -3.2129   -4.6542    1.3228 C.3     1  UNL1        0.4175
     27 F          -2.0032   -5.2589    1.5638 F       1  UNL1       -0.1659
     28 F          -3.8400   -4.3212    2.5069 F       1  UNL1       -0.1659
     29 F          -4.0389   -5.4532    0.5796 F       1  UNL1       -0.1659
     30 C          -1.7435   -3.1075   -0.0179 C.ar    1  UNL1       -0.0244
     31 C          -1.5355   -1.9067   -0.6583 C.ar    1  UNL1        0.0712
     32 C           1.8776   -2.5736    0.6386 C.ar    1  UNL1       -0.0553
     33 C           2.8289   -2.2669    1.5841 C.ar    1  UNL1       -0.0395
     34 C           3.6880   -1.1669    1.4167 C.ar    1  UNL1        0.0826
     35 CL          4.8796   -0.8143    2.6385 Cl      1  UNL1       -0.0798
     36 C           6.5506    1.4468   -0.3450 C.2     1  UNL1        0.3456
     37 O           6.4697    0.8667   -1.4412 O.2     1  UNL1       -0.2468
     38 O           7.7001    2.1168    0.0258 O.3     1  UNL1       -0.4781
     39 H           5.3328    3.4918   -0.0404 H       1  UNL1        0.0271
     40 H           3.8566    2.9136    0.7490 H       1  UNL1        0.0271
     41 H           5.3319    3.2367    1.7352 H       1  UNL1        0.0271
     42 H           5.7453    1.0657    1.5278 H       1  UNL1        0.0849
     43 H           2.5296   -0.0989   -1.5233 H       1  UNL1        0.0658
     44 H           0.5203   -3.1706   -1.6507 H       1  UNL1        0.0543
     45 H           1.1558   -1.7072   -2.5208 H       1  UNL1        0.0543
     46 H          -5.0630    5.1152   -1.2699 H       1  UNL1        0.0670
     47 H          -4.0802    3.2295    2.4029 H       1  UNL1        0.0632
     48 H          -2.9253    1.3766    1.1972 H       1  UNL1        0.0626
     49 H          -4.4787   -0.4008   -0.0852 H       1  UNL1        0.0639
     50 H          -4.8466   -2.5798    1.0729 H       1  UNL1        0.0624
     51 H          -0.9850   -3.8675    0.0034 H       1  UNL1        0.0644
     52 H           1.2285   -3.4284    0.7928 H       1  UNL1        0.0621
     53 H           2.9597   -2.8573    2.4995 H       1  UNL1        0.0633
     54 H           8.5616    2.0891   -0.5067 H       1  UNL1        0.2952
@<TRIPOS>BOND
     1     1     2    1
     2     2     3    1
     3     3     4    1
     4     4     5   ar
     5     5     6   ar
     6     6     7    1
     7     7     8    1
     8     8     9   ar
     9     9    10    2
    10     9    11   ar
    11    11    12    1
    12    12    13   ar
    13    13    14   ar
    14    14    15   ar
    15    15    16   ar
    16    16    17   ar
    17    17    18    1
    18    17    19   ar
    19    19    20   ar
    20    20    21   ar
    21    11    22   ar
    22    22    23   ar
    23    23    24   ar
    24    24    25   ar
    25    25    26    1
    26    26    27    1
    27    26    28    1
    28    26    29    1
    29    25    30   ar
    30    30    31   ar
    31     6    32   ar
    32    32    33   ar
    33    33    34   ar
    34    34    35    1
    35     2    36    1
    36    36    37    2
    37    36    38    1
    38    34     4   ar
    39    31     8   ar
    40    21    12   ar
    41    31    22   ar
    42    21    15   ar
    43     1    39    1
    44     1    40    1
    45     1    41    1
    46     2    42    1
    47     5    43    1
    48     7    44    1
    49     7    45    1
    50    16    46    1
    51    19    47    1
    52    20    48    1
    53    23    49    1
    54    24    50    1
    55    30    51    1
    56    32    52    1
    57    33    53    1
    58    38    54    1
