
     RDKit          3D

 54 58  0  0  0  0  0  0  0  0999 V2000
    4.9665    2.8649    0.7816 C   0  0  0  0  0  0  0  0  0  0  0  0
    5.3372    1.3826    0.5546 C   0  0  1  0  0  0  0  0  0  0  0  0
    4.3272    0.6845    0.0109 O   0  0  0  0  0  0  0  0  0  0  0  0
    3.5736   -0.3914    0.2951 C   0  0  0  0  0  0  0  0  0  0  0  0
    2.5782   -0.7544   -0.6420 C   0  0  0  0  0  0  0  0  0  0  0  0
    1.7339   -1.8142   -0.5039 C   0  0  0  0  0  0  0  0  0  0  0  0
    0.7426   -2.0754   -1.5612 C   0  0  0  0  0  0  0  0  0  0  0  0
   -0.5045   -1.3749   -1.3461 N   0  0  0  0  0  0  0  0  0  0  0  0
   -0.8452   -0.1418   -1.7666 C   0  0  0  0  0  0  0  0  0  0  0  0
   -0.1318    0.6396   -2.4327 O   0  0  0  0  0  0  0  0  0  0  0  0
   -2.0942    0.1562   -1.3662 N   0  0  0  0  0  0  0  0  0  0  0  0
   -2.8156    1.3785   -1.6169 C   0  0  0  0  0  0  0  0  0  0  0  0
   -3.0805    1.9015   -2.8280 N   0  0  0  0  0  0  0  0  0  0  0  0
   -3.7460    3.0036   -2.6575 O   0  0  0  0  0  0  0  0  0  0  0  0
   -3.9453    3.2546   -1.4078 C   0  0  0  0  0  0  0  0  0  0  0  0
   -4.5924    4.2941   -0.7529 C   0  0  0  0  0  0  0  0  0  0  0  0
   -4.6368    4.2774    0.6280 C   0  0  0  0  0  0  0  0  0  0  0  0
   -5.4456    5.5735    1.5036 Cl  0  0  0  0  0  0  0  0  0  0  0  0
   -4.0419    3.2363    1.3241 C   0  0  0  0  0  0  0  0  0  0  0  0
   -3.3979    2.2018    0.6732 C   0  0  0  0  0  0  0  0  0  0  0  0
   -3.3589    2.2270   -0.7005 C   0  0  0  0  0  0  0  0  0  0  0  0
   -2.5248   -0.9195   -0.6866 C   0  0  0  0  0  0  0  0  0  0  0  0
   -3.7127   -1.1865   -0.0537 C   0  0  0  0  0  0  0  0  0  0  0  0
   -3.9098   -2.3765    0.5771 C   0  0  0  0  0  0  0  0  0  0  0  0
   -2.9390   -3.3559    0.6096 C   0  0  0  0  0  0  0  0  0  0  0  0
   -3.2129   -4.6542    1.3228 C   0  0  0  0  0  0  0  0  0  0  0  0
   -2.0032   -5.2589    1.5638 F   0  0  0  0  0  0  0  0  0  0  0  0
   -3.8400   -4.3212    2.5069 F   0  0  0  0  0  0  0  0  0  0  0  0
   -4.0389   -5.4532    0.5796 F   0  0  0  0  0  0  0  0  0  0  0  0
   -1.7435   -3.1075   -0.0179 C   0  0  0  0  0  0  0  0  0  0  0  0
   -1.5355   -1.9067   -0.6583 C   0  0  0  0  0  0  0  0  0  0  0  0
    1.8776   -2.5736    0.6386 C   0  0  0  0  0  0  0  0  0  0  0  0
    2.8289   -2.2669    1.5841 C   0  0  0  0  0  0  0  0  0  0  0  0
    3.6880   -1.1669    1.4167 C   0  0  0  0  0  0  0  0  0  0  0  0
    4.8796   -0.8143    2.6385 Cl  0  0  0  0  0  0  0  0  0  0  0  0
    6.5506    1.4468   -0.3450 C   0  0  0  0  0  0  0  0  0  0  0  0
    6.4697    0.8667   -1.4412 O   0  0  0  0  0  0  0  0  0  0  0  0
    7.7001    2.1168    0.0258 O   0  0  0  0  0  0  0  0  0  0  0  0
    5.3328    3.4918   -0.0404 H   0  0  0  0  0  0  0  0  0  0  0  0
    3.8566    2.9136    0.7490 H   0  0  0  0  0  0  0  0  0  0  0  0
    5.3319    3.2367    1.7352 H   0  0  0  0  0  0  0  0  0  0  0  0
    5.7453    1.0657    1.5278 H   0  0  0  0  0  0  0  0  0  0  0  0
    2.5296   -0.0989   -1.5233 H   0  0  0  0  0  0  0  0  0  0  0  0
    0.5203   -3.1706   -1.6507 H   0  0  0  0  0  0  0  0  0  0  0  0
    1.1558   -1.7072   -2.5208 H   0  0  0  0  0  0  0  0  0  0  0  0
   -5.0630    5.1152   -1.2699 H   0  0  0  0  0  0  0  0  0  0  0  0
   -4.0802    3.2295    2.4029 H   0  0  0  0  0  0  0  0  0  0  0  0
   -2.9253    1.3766    1.1972 H   0  0  0  0  0  0  0  0  0  0  0  0
   -4.4787   -0.4008   -0.0852 H   0  0  0  0  0  0  0  0  0  0  0  0
   -4.8466   -2.5798    1.0729 H   0  0  0  0  0  0  0  0  0  0  0  0
   -0.9850   -3.8675    0.0034 H   0  0  0  0  0  0  0  0  0  0  0  0
    1.2285   -3.4284    0.7928 H   0  0  0  0  0  0  0  0  0  0  0  0
    2.9597   -2.8573    2.4995 H   0  0  0  0  0  0  0  0  0  0  0  0
    8.5616    2.0891   -0.5067 H   0  0  0  0  0  0  0  0  0  0  0  0
  1  2  1  0
  2  3  1  0
  3  4  1  0
  4  5  2  0
  5  6  1  0
  6  7  1  0
  7  8  1  0
  8  9  1  0
  9 10  2  0
  9 11  1  0
 11 12  1  0
 12 13  2  0
 13 14  1  0
 14 15  1  0
 15 16  2  0
 16 17  1  0
 17 18  1  0
 17 19  2  0
 19 20  1  0
 20 21  2  0
 11 22  1  0
 22 23  2  0
 23 24  1  0
 24 25  2  0
 25 26  1  0
 26 27  1  0
 26 28  1  0
 26 29  1  0
 25 30  1  0
 30 31  2  0
  6 32  2  0
 32 33  1  0
 33 34  2  0
 34 35  1  0
  2 36  1  0
 36 37  2  0
 36 38  1  0
 34  4  1  0
 31  8  1  0
 21 12  1  0
 31 22  1  0
 21 15  1  0
  1 39  1  0
  1 40  1  0
  1 41  1  0
  2 42  1  1
  5 43  1  0
  7 44  1  0
  7 45  1  0
 16 46  1  0
 19 47  1  0
 20 48  1  0
 23 49  1  0
 24 50  1  0
 30 51  1  0
 32 52  1  0
 33 53  1  0
 38 54  1  0
M  END
$$$$
