@<TRIPOS>MOLECULE
*****
 81 84 0 0 0
SMALL
GASTEIGER

@<TRIPOS>ATOM
      1 C           0.8519   -5.5755   -0.2263 C.3     1  UNL1       -0.0524
      2 C          -0.5641   -5.1702    0.1092 C.3     1  UNL1       -0.0039
      3 N          -0.6554   -4.4379    1.3391 N.3     1  UNL1       -0.3014
      4 C          -0.3651   -5.1980    2.5230 C.3     1  UNL1       -0.0039
      5 C          -1.4155   -6.2485    2.8071 C.3     1  UNL1       -0.0524
      6 C           0.1944   -3.2628    1.3433 C.3     1  UNL1        0.0147
      7 C          -0.3026   -2.2238    0.3671 C.3     1  UNL1        0.0278
      8 N           0.6018   -1.0517    0.4106 N.am    1  UNL1       -0.2945
      9 C           0.1925   -0.0194    1.3421 C.3     1  UNL1        0.0398
     10 C          -1.0689    0.6131    0.9281 C.ar    1  UNL1       -0.0301
     11 C          -1.2458    1.5738   -0.0094 C.ar    1  UNL1       -0.0565
     12 C          -2.5026    2.1283   -0.2884 C.ar    1  UNL1       -0.0537
     13 C          -3.6086    1.7178    0.3795 C.ar    1  UNL1       -0.0179
     14 C          -4.9098    2.3114    0.0764 C.ar    1  UNL1       -0.0179
     15 C          -5.8747    2.4405    1.0605 C.ar    1  UNL1       -0.0535
     16 C          -7.1240    3.0059    0.7921 C.ar    1  UNL1       -0.0495
     17 C          -7.4323    3.4548   -0.4737 C.ar    1  UNL1        0.0548
     18 C          -8.7510    4.0659   -0.7997 C.3     1  UNL1        0.4174
     19 F          -9.3136    4.6697    0.3029 F       1  UNL1       -0.1659
     20 F          -9.6614    3.1479   -1.2768 F       1  UNL1       -0.1659
     21 F          -8.6160    5.0626   -1.7745 F       1  UNL1       -0.1659
     22 C          -6.4661    3.3230   -1.4508 C.ar    1  UNL1       -0.0495
     23 C          -5.2241    2.7615   -1.1852 C.ar    1  UNL1       -0.0535
     24 C          -3.4574    0.7370    1.3419 C.ar    1  UNL1       -0.0537
     25 C          -2.2219    0.1981    1.6100 C.ar    1  UNL1       -0.0565
     26 C           1.6879   -0.9916   -0.4435 C.2     1  UNL1        0.2357
     27 O           1.7578   -1.9895   -1.2900 O.2     1  UNL1       -0.2736
     28 C           2.7925   -0.0693   -0.6180 C.3     1  UNL1        0.1015
     29 N           2.7706    0.8778   -1.6544 N.ar    1  UNL1       -0.3177
     30 C           3.0231    0.4742   -2.9382 C.ar    1  UNL1        0.0155
     31 C           2.9611    1.2899   -4.0226 C.ar    1  UNL1        0.0319
     32 C           3.2406    0.8453   -5.4087 C.3     1  UNL1       -0.0331
     33 C           2.6215    2.6185   -3.8329 C.ar    1  UNL1        0.2768
     34 O           2.5566    3.3998   -4.8379 O.2     1  UNL1       -0.2655
     35 N           2.3776    3.0092   -2.5828 N.ar    1  UNL1       -0.1848
     36 C           2.4521    2.1536   -1.5082 C.ar    1  UNL1        0.1733
     37 S           2.2125    2.9128    0.0863 S.3     1  UNL1       -0.0829
     38 C           3.7008    3.6500    0.7335 C.3     1  UNL1        0.0262
     39 C           4.7020    2.6119    1.0454 C.ar    1  UNL1       -0.0370
     40 C           4.7456    2.0301    2.3014 C.ar    1  UNL1       -0.0551
     41 C           5.6643    1.0619    2.6216 C.ar    1  UNL1       -0.0262
     42 C           6.5792    0.6401    1.6849 C.ar    1  UNL1        0.1234
     43 F           7.5021   -0.3220    1.9854 F       1  UNL1       -0.2055
     44 C           6.5575    1.2019    0.4281 C.ar    1  UNL1       -0.0262
     45 C           5.6209    2.1784    0.1266 C.ar    1  UNL1       -0.0551
     46 H           1.3307   -4.7768   -0.8400 H       1  UNL1        0.0242
     47 H           0.8820   -6.4994   -0.8378 H       1  UNL1        0.0242
     48 H           1.4869   -5.6894    0.6766 H       1  UNL1        0.0242
     49 H          -1.2149   -6.0615    0.1829 H       1  UNL1        0.0424
     50 H          -0.9747   -4.5378   -0.7088 H       1  UNL1        0.0424
     51 H          -0.3574   -4.4590    3.3734 H       1  UNL1        0.0424
     52 H           0.6460   -5.6514    2.5233 H       1  UNL1        0.0424
     53 H          -1.6138   -6.3068    3.8969 H       1  UNL1        0.0242
     54 H          -1.0673   -7.2633    2.5147 H       1  UNL1        0.0242
     55 H          -2.3969   -6.0044    2.3303 H       1  UNL1        0.0242
     56 H           1.2202   -3.6123    1.1272 H       1  UNL1        0.0442
     57 H           0.0904   -2.8309    2.3814 H       1  UNL1        0.0442
     58 H          -0.2435   -2.6096   -0.6708 H       1  UNL1        0.0477
     59 H          -1.3283   -1.9405    0.6331 H       1  UNL1        0.0477
     60 H           0.9402    0.7449    1.5417 H       1  UNL1        0.0514
     61 H           0.0684   -0.5605    2.3322 H       1  UNL1        0.0514
     62 H          -0.3962    1.9161   -0.5733 H       1  UNL1        0.0621
     63 H          -2.5951    2.9025   -1.0554 H       1  UNL1        0.0624
     64 H          -5.6511    2.0936    2.0590 H       1  UNL1        0.0624
     65 H          -7.8654    3.0980    1.5760 H       1  UNL1        0.0623
     66 H          -6.6988    3.6685   -2.4361 H       1  UNL1        0.0623
     67 H          -4.4747    2.6625   -1.9489 H       1  UNL1        0.0624
     68 H          -4.3547    0.4109    1.8753 H       1  UNL1        0.0624
     69 H          -2.1864   -0.5684    2.3851 H       1  UNL1        0.0621
     70 H           3.7455   -0.6773   -0.7043 H       1  UNL1        0.0588
     71 H           2.9532    0.4841    0.3684 H       1  UNL1        0.0588
     72 H           3.2934   -0.5775   -3.0995 H       1  UNL1        0.0814
     73 H           3.3402   -0.2647   -5.3809 H       1  UNL1        0.0280
     74 H           4.2378    1.2149   -5.7630 H       1  UNL1        0.0280
     75 H           2.4444    1.0830   -6.1294 H       1  UNL1        0.0280
     76 H           4.1469    4.4068    0.0516 H       1  UNL1        0.0429
     77 H           3.4198    4.1292    1.7194 H       1  UNL1        0.0429
     78 H           4.0210    2.3572    3.0610 H       1  UNL1        0.0621
     79 H           5.6980    0.6095    3.5977 H       1  UNL1        0.0646
     80 H           7.2659    0.8829   -0.3238 H       1  UNL1        0.0646
     81 H           5.6016    2.6204   -0.8591 H       1  UNL1        0.0621
@<TRIPOS>BOND
     1     1     2    1
     2     2     3    1
     3     3     4    1
     4     4     5    1
     5     3     6    1
     6     6     7    1
     7     7     8    1
     8     8     9    1
     9     9    10    1
    10    10    11   ar
    11    11    12   ar
    12    12    13   ar
    13    13    14    1
    14    14    15   ar
    15    15    16   ar
    16    16    17   ar
    17    17    18    1
    18    18    19    1
    19    18    20    1
    20    18    21    1
    21    17    22   ar
    22    22    23   ar
    23    13    24   ar
    24    24    25   ar
    25     8    26   am
    26    26    27    2
    27    26    28    1
    28    28    29    1
    29    29    30   ar
    30    30    31   ar
    31    31    32    1
    32    31    33   ar
    33    33    34    2
    34    33    35   ar
    35    35    36   ar
    36    36    37    1
    37    37    38    1
    38    38    39    1
    39    39    40   ar
    40    40    41   ar
    41    41    42   ar
    42    42    43    1
    43    42    44   ar
    44    44    45   ar
    45    25    10   ar
    46    36    29   ar
    47    45    39   ar
    48    23    14   ar
    49     1    46    1
    50     1    47    1
    51     1    48    1
    52     2    49    1
    53     2    50    1
    54     4    51    1
    55     4    52    1
    56     5    53    1
    57     5    54    1
    58     5    55    1
    59     6    56    1
    60     6    57    1
    61     7    58    1
    62     7    59    1
    63     9    60    1
    64     9    61    1
    65    11    62    1
    66    12    63    1
    67    15    64    1
    68    16    65    1
    69    22    66    1
    70    23    67    1
    71    24    68    1
    72    25    69    1
    73    28    70    1
    74    28    71    1
    75    30    72    1
    76    32    73    1
    77    32    74    1
    78    32    75    1
    79    38    76    1
    80    38    77    1
    81    40    78    1
    82    41    79    1
    83    44    80    1
    84    45    81    1
