
     RDKit          3D

 81 84  0  0  0  0  0  0  0  0999 V2000
    0.8519   -5.5755   -0.2263 C   0  0  0  0  0  0  0  0  0  0  0  0
   -0.5641   -5.1702    0.1092 C   0  0  0  0  0  0  0  0  0  0  0  0
   -0.6554   -4.4379    1.3391 N   0  0  0  0  0  0  0  0  0  0  0  0
   -0.3651   -5.1980    2.5230 C   0  0  0  0  0  0  0  0  0  0  0  0
   -1.4155   -6.2485    2.8071 C   0  0  0  0  0  0  0  0  0  0  0  0
    0.1944   -3.2628    1.3433 C   0  0  0  0  0  0  0  0  0  0  0  0
   -0.3026   -2.2238    0.3671 C   0  0  0  0  0  0  0  0  0  0  0  0
    0.6018   -1.0517    0.4106 N   0  0  0  0  0  0  0  0  0  0  0  0
    0.1925   -0.0194    1.3421 C   0  0  0  0  0  0  0  0  0  0  0  0
   -1.0689    0.6131    0.9281 C   0  0  0  0  0  0  0  0  0  0  0  0
   -1.2458    1.5738   -0.0094 C   0  0  0  0  0  0  0  0  0  0  0  0
   -2.5026    2.1283   -0.2884 C   0  0  0  0  0  0  0  0  0  0  0  0
   -3.6086    1.7178    0.3795 C   0  0  0  0  0  0  0  0  0  0  0  0
   -4.9098    2.3114    0.0764 C   0  0  0  0  0  0  0  0  0  0  0  0
   -5.8747    2.4405    1.0605 C   0  0  0  0  0  0  0  0  0  0  0  0
   -7.1240    3.0059    0.7921 C   0  0  0  0  0  0  0  0  0  0  0  0
   -7.4323    3.4548   -0.4737 C   0  0  0  0  0  0  0  0  0  0  0  0
   -8.7510    4.0659   -0.7997 C   0  0  0  0  0  0  0  0  0  0  0  0
   -9.3136    4.6697    0.3029 F   0  0  0  0  0  0  0  0  0  0  0  0
   -9.6614    3.1479   -1.2768 F   0  0  0  0  0  0  0  0  0  0  0  0
   -8.6160    5.0626   -1.7745 F   0  0  0  0  0  0  0  0  0  0  0  0
   -6.4661    3.3230   -1.4508 C   0  0  0  0  0  0  0  0  0  0  0  0
   -5.2241    2.7615   -1.1852 C   0  0  0  0  0  0  0  0  0  0  0  0
   -3.4574    0.7370    1.3419 C   0  0  0  0  0  0  0  0  0  0  0  0
   -2.2219    0.1981    1.6100 C   0  0  0  0  0  0  0  0  0  0  0  0
    1.6879   -0.9916   -0.4435 C   0  0  0  0  0  0  0  0  0  0  0  0
    1.7578   -1.9895   -1.2900 O   0  0  0  0  0  0  0  0  0  0  0  0
    2.7925   -0.0693   -0.6180 C   0  0  0  0  0  0  0  0  0  0  0  0
    2.7706    0.8778   -1.6544 N   0  0  0  0  0  0  0  0  0  0  0  0
    3.0231    0.4742   -2.9382 C   0  0  0  0  0  0  0  0  0  0  0  0
    2.9611    1.2899   -4.0226 C   0  0  0  0  0  0  0  0  0  0  0  0
    3.2406    0.8453   -5.4087 C   0  0  0  0  0  0  0  0  0  0  0  0
    2.6215    2.6185   -3.8329 C   0  0  0  0  0  0  0  0  0  0  0  0
    2.5566    3.3998   -4.8379 O   0  0  0  0  0  0  0  0  0  0  0  0
    2.3776    3.0092   -2.5828 N   0  0  0  0  0  0  0  0  0  0  0  0
    2.4521    2.1536   -1.5082 C   0  0  0  0  0  0  0  0  0  0  0  0
    2.2125    2.9128    0.0863 S   0  0  0  0  0  0  0  0  0  0  0  0
    3.7008    3.6500    0.7335 C   0  0  0  0  0  0  0  0  0  0  0  0
    4.7020    2.6119    1.0454 C   0  0  0  0  0  0  0  0  0  0  0  0
    4.7456    2.0301    2.3014 C   0  0  0  0  0  0  0  0  0  0  0  0
    5.6643    1.0619    2.6216 C   0  0  0  0  0  0  0  0  0  0  0  0
    6.5792    0.6401    1.6849 C   0  0  0  0  0  0  0  0  0  0  0  0
    7.5021   -0.3220    1.9854 F   0  0  0  0  0  0  0  0  0  0  0  0
    6.5575    1.2019    0.4281 C   0  0  0  0  0  0  0  0  0  0  0  0
    5.6209    2.1784    0.1266 C   0  0  0  0  0  0  0  0  0  0  0  0
    1.3307   -4.7768   -0.8400 H   0  0  0  0  0  0  0  0  0  0  0  0
    0.8820   -6.4994   -0.8378 H   0  0  0  0  0  0  0  0  0  0  0  0
    1.4869   -5.6894    0.6766 H   0  0  0  0  0  0  0  0  0  0  0  0
   -1.2149   -6.0615    0.1829 H   0  0  0  0  0  0  0  0  0  0  0  0
   -0.9747   -4.5378   -0.7088 H   0  0  0  0  0  0  0  0  0  0  0  0
   -0.3574   -4.4590    3.3734 H   0  0  0  0  0  0  0  0  0  0  0  0
    0.6460   -5.6514    2.5233 H   0  0  0  0  0  0  0  0  0  0  0  0
   -1.6138   -6.3068    3.8969 H   0  0  0  0  0  0  0  0  0  0  0  0
   -1.0673   -7.2633    2.5147 H   0  0  0  0  0  0  0  0  0  0  0  0
   -2.3969   -6.0044    2.3303 H   0  0  0  0  0  0  0  0  0  0  0  0
    1.2202   -3.6123    1.1272 H   0  0  0  0  0  0  0  0  0  0  0  0
    0.0904   -2.8309    2.3814 H   0  0  0  0  0  0  0  0  0  0  0  0
   -0.2435   -2.6096   -0.6708 H   0  0  0  0  0  0  0  0  0  0  0  0
   -1.3283   -1.9405    0.6331 H   0  0  0  0  0  0  0  0  0  0  0  0
    0.9402    0.7449    1.5417 H   0  0  0  0  0  0  0  0  0  0  0  0
    0.0684   -0.5605    2.3322 H   0  0  0  0  0  0  0  0  0  0  0  0
   -0.3962    1.9161   -0.5733 H   0  0  0  0  0  0  0  0  0  0  0  0
   -2.5951    2.9025   -1.0554 H   0  0  0  0  0  0  0  0  0  0  0  0
   -5.6511    2.0936    2.0590 H   0  0  0  0  0  0  0  0  0  0  0  0
   -7.8654    3.0980    1.5760 H   0  0  0  0  0  0  0  0  0  0  0  0
   -6.6988    3.6685   -2.4361 H   0  0  0  0  0  0  0  0  0  0  0  0
   -4.4747    2.6625   -1.9489 H   0  0  0  0  0  0  0  0  0  0  0  0
   -4.3547    0.4109    1.8753 H   0  0  0  0  0  0  0  0  0  0  0  0
   -2.1864   -0.5684    2.3851 H   0  0  0  0  0  0  0  0  0  0  0  0
    3.7455   -0.6773   -0.7043 H   0  0  0  0  0  0  0  0  0  0  0  0
    2.9532    0.4841    0.3684 H   0  0  0  0  0  0  0  0  0  0  0  0
    3.2934   -0.5775   -3.0995 H   0  0  0  0  0  0  0  0  0  0  0  0
    3.3402   -0.2647   -5.3809 H   0  0  0  0  0  0  0  0  0  0  0  0
    4.2378    1.2149   -5.7630 H   0  0  0  0  0  0  0  0  0  0  0  0
    2.4444    1.0830   -6.1294 H   0  0  0  0  0  0  0  0  0  0  0  0
    4.1469    4.4068    0.0516 H   0  0  0  0  0  0  0  0  0  0  0  0
    3.4198    4.1292    1.7194 H   0  0  0  0  0  0  0  0  0  0  0  0
    4.0210    2.3572    3.0610 H   0  0  0  0  0  0  0  0  0  0  0  0
    5.6980    0.6095    3.5977 H   0  0  0  0  0  0  0  0  0  0  0  0
    7.2659    0.8829   -0.3238 H   0  0  0  0  0  0  0  0  0  0  0  0
    5.6016    2.6204   -0.8591 H   0  0  0  0  0  0  0  0  0  0  0  0
  1  2  1  0
  2  3  1  0
  3  4  1  0
  4  5  1  0
  3  6  1  0
  6  7  1  0
  7  8  1  0
  8  9  1  0
  9 10  1  0
 10 11  2  0
 11 12  1  0
 12 13  2  0
 13 14  1  0
 14 15  2  0
 15 16  1  0
 16 17  2  0
 17 18  1  0
 18 19  1  0
 18 20  1  0
 18 21  1  0
 17 22  1  0
 22 23  2  0
 13 24  1  0
 24 25  2  0
  8 26  1  0
 26 27  2  0
 26 28  1  0
 28 29  1  0
 29 30  1  0
 30 31  2  0
 31 32  1  0
 31 33  1  0
 33 34  2  0
 33 35  1  0
 35 36  2  0
 36 37  1  0
 37 38  1  0
 38 39  1  0
 39 40  2  0
 40 41  1  0
 41 42  2  0
 42 43  1  0
 42 44  1  0
 44 45  2  0
 25 10  1  0
 36 29  1  0
 45 39  1  0
 23 14  1  0
  1 46  1  0
  1 47  1  0
  1 48  1  0
  2 49  1  0
  2 50  1  0
  4 51  1  0
  4 52  1  0
  5 53  1  0
  5 54  1  0
  5 55  1  0
  6 56  1  0
  6 57  1  0
  7 58  1  0
  7 59  1  0
  9 60  1  0
  9 61  1  0
 11 62  1  0
 12 63  1  0
 15 64  1  0
 16 65  1  0
 22 66  1  0
 23 67  1  0
 24 68  1  0
 25 69  1  0
 28 70  1  0
 28 71  1  0
 30 72  1  0
 32 73  1  0
 32 74  1  0
 32 75  1  0
 38 76  1  0
 38 77  1  0
 40 78  1  0
 41 79  1  0
 44 80  1  0
 45 81  1  0
M  END
$$$$
