@<TRIPOS>MOLECULE
*****
 50 51 0 0 0
SMALL
GASTEIGER

@<TRIPOS>ATOM
      1 C           3.6848   -0.0040    5.5441 C.3     1  UNL1        0.0788
      2 O           2.9414    1.1087    5.0398 O.3     1  UNL1       -0.4951
      3 C           2.5094    1.0489    3.7125 C.ar    1  UNL1        0.1202
      4 C           1.7882    2.0939    3.1747 C.ar    1  UNL1       -0.0181
      5 C           1.3479    2.0480    1.8460 C.ar    1  UNL1       -0.0319
      6 C           1.6209    0.9682    1.0489 C.ar    1  UNL1        0.1057
      7 S           1.1161    0.8246   -0.6277 S.O2    1  UNL1        0.0618
      8 O           2.2253    0.0370   -1.3156 O.2     1  UNL1       -0.1528
      9 O           1.2814    2.2328   -1.2015 O.2     1  UNL1       -0.1528
     10 N          -0.3912    0.2200   -0.8483 N.3     1  UNL1       -0.1601
     11 C          -1.4859    0.9063   -0.3262 C.3     1  UNL1        0.0478
     12 C          -2.1453    1.8623   -1.2345 C.ar    1  UNL1       -0.0136
     13 C          -3.1539    1.3972   -2.0452 C.ar    1  UNL1       -0.0544
     14 C          -3.8285    2.2455   -2.9259 C.ar    1  UNL1       -0.0433
     15 C          -3.4662    3.5674   -2.9715 C.ar    1  UNL1        0.0276
     16 N          -2.4810    4.0053   -2.1746 N.ar    1  UNL1       -0.2629
     17 C          -1.8191    3.1863   -1.3147 C.ar    1  UNL1        0.0320
     18 C          -0.6574   -1.0647   -1.3641 C.3     1  UNL1        0.1124
     19 C          -0.1817   -1.2399   -2.7651 C.2     1  UNL1        0.2546
     20 O           0.6127   -0.4090   -3.3099 O.2     1  UNL1       -0.2719
     21 N          -0.5657   -2.3199   -3.5954 N.am    1  UNL1       -0.1961
     22 O          -0.0847   -2.4234   -4.8830 O.3     1  UNL1       -0.2951
     23 C          -0.1116   -2.1426   -0.4288 C.3     1  UNL1       -0.0209
     24 C          -0.7788   -1.9916    0.9507 C.3     1  UNL1       -0.0607
     25 C          -0.4270   -3.5430   -0.8730 C.3     1  UNL1       -0.0607
     26 C           2.3419   -0.0627    1.6054 C.ar    1  UNL1       -0.0319
     27 C           2.7841   -0.0336    2.9149 C.ar    1  UNL1       -0.0181
     28 H           4.5612   -0.1808    4.8562 H       1  UNL1        0.0660
     29 H           4.0076    0.1615    6.5733 H       1  UNL1        0.0660
     30 H           3.0480   -0.9024    5.4493 H       1  UNL1        0.0660
     31 H           1.5576    2.9676    3.7927 H       1  UNL1        0.0655
     32 H           0.7859    2.8560    1.4198 H       1  UNL1        0.0638
     33 H          -1.2473    1.5126    0.6035 H       1  UNL1        0.0494
     34 H          -2.2753    0.1872    0.0770 H       1  UNL1        0.0494
     35 H          -3.4677    0.3717   -2.0400 H       1  UNL1        0.0622
     36 H          -4.6252    1.9187   -3.5764 H       1  UNL1        0.0633
     37 H          -3.9620    4.2783   -3.6443 H       1  UNL1        0.0829
     38 H          -1.0312    3.5624   -0.6790 H       1  UNL1        0.0833
     39 H          -1.7706   -1.2433   -1.4098 H       1  UNL1        0.0579
     40 H          -1.2127   -3.0492   -3.2866 H       1  UNL1        0.1822
     41 H           0.2351   -3.3693   -4.9830 H       1  UNL1        0.2414
     42 H           0.9648   -2.0243   -0.3066 H       1  UNL1        0.0316
     43 H          -0.5728   -0.9823    1.3661 H       1  UNL1        0.0233
     44 H          -0.2942   -2.7209    1.6242 H       1  UNL1        0.0233
     45 H          -1.8642   -2.1899    0.8931 H       1  UNL1        0.0233
     46 H          -0.2090   -4.2518   -0.0046 H       1  UNL1        0.0233
     47 H           0.2522   -3.9043   -1.6617 H       1  UNL1        0.0233
     48 H          -1.5039   -3.7106   -1.0598 H       1  UNL1        0.0233
     49 H           2.5943   -0.9356    1.0409 H       1  UNL1        0.0638
     50 H           3.3533   -0.8691    3.3239 H       1  UNL1        0.0655
@<TRIPOS>BOND
     1     1     2    1
     2     2     3    1
     3     3     4   ar
     4     4     5   ar
     5     5     6   ar
     6     6     7    1
     7     7     8    2
     8     7     9    2
     9     7    10    1
    10    10    11    1
    11    11    12    1
    12    12    13   ar
    13    13    14   ar
    14    14    15   ar
    15    15    16   ar
    16    16    17   ar
    17    10    18    1
    18    18    19    1
    19    19    20    2
    20    19    21   am
    21    21    22    1
    22    18    23    1
    23    23    24    1
    24    23    25    1
    25     6    26   ar
    26    26    27   ar
    27    27     3   ar
    28    17    12   ar
    29     1    28    1
    30     1    29    1
    31     1    30    1
    32     4    31    1
    33     5    32    1
    34    11    33    1
    35    11    34    1
    36    13    35    1
    37    14    36    1
    38    15    37    1
    39    17    38    1
    40    18    39    1
    41    21    40    1
    42    22    41    1
    43    23    42    1
    44    24    43    1
    45    24    44    1
    46    24    45    1
    47    25    46    1
    48    25    47    1
    49    25    48    1
    50    26    49    1
    51    27    50    1
