
     RDKit          3D

 50 51  0  0  0  0  0  0  0  0999 V2000
    3.6848   -0.0040    5.5441 C   0  0  0  0  0  0  0  0  0  0  0  0
    2.9414    1.1087    5.0398 O   0  0  0  0  0  0  0  0  0  0  0  0
    2.5094    1.0489    3.7125 C   0  0  0  0  0  0  0  0  0  0  0  0
    1.7882    2.0939    3.1747 C   0  0  0  0  0  0  0  0  0  0  0  0
    1.3479    2.0480    1.8460 C   0  0  0  0  0  0  0  0  0  0  0  0
    1.6209    0.9682    1.0489 C   0  0  0  0  0  0  0  0  0  0  0  0
    1.1161    0.8246   -0.6277 S   0  0  0  0  0  6  0  0  0  0  0  0
    2.2253    0.0370   -1.3156 O   0  0  0  0  0  0  0  0  0  0  0  0
    1.2814    2.2328   -1.2015 O   0  0  0  0  0  0  0  0  0  0  0  0
   -0.3912    0.2200   -0.8483 N   0  0  0  0  0  0  0  0  0  0  0  0
   -1.4859    0.9063   -0.3262 C   0  0  0  0  0  0  0  0  0  0  0  0
   -2.1453    1.8623   -1.2345 C   0  0  0  0  0  0  0  0  0  0  0  0
   -3.1539    1.3972   -2.0452 C   0  0  0  0  0  0  0  0  0  0  0  0
   -3.8285    2.2455   -2.9259 C   0  0  0  0  0  0  0  0  0  0  0  0
   -3.4662    3.5674   -2.9715 C   0  0  0  0  0  0  0  0  0  0  0  0
   -2.4810    4.0053   -2.1746 N   0  0  0  0  0  0  0  0  0  0  0  0
   -1.8191    3.1863   -1.3147 C   0  0  0  0  0  0  0  0  0  0  0  0
   -0.6574   -1.0647   -1.3641 C   0  0  1  0  0  0  0  0  0  0  0  0
   -0.1817   -1.2399   -2.7651 C   0  0  0  0  0  0  0  0  0  0  0  0
    0.6127   -0.4090   -3.3099 O   0  0  0  0  0  0  0  0  0  0  0  0
   -0.5657   -2.3199   -3.5954 N   0  0  0  0  0  0  0  0  0  0  0  0
   -0.0847   -2.4234   -4.8830 O   0  0  0  0  0  0  0  0  0  0  0  0
   -0.1116   -2.1426   -0.4288 C   0  0  0  0  0  0  0  0  0  0  0  0
   -0.7788   -1.9916    0.9507 C   0  0  0  0  0  0  0  0  0  0  0  0
   -0.4270   -3.5430   -0.8730 C   0  0  0  0  0  0  0  0  0  0  0  0
    2.3419   -0.0627    1.6054 C   0  0  0  0  0  0  0  0  0  0  0  0
    2.7841   -0.0336    2.9149 C   0  0  0  0  0  0  0  0  0  0  0  0
    4.5612   -0.1808    4.8562 H   0  0  0  0  0  0  0  0  0  0  0  0
    4.0076    0.1615    6.5733 H   0  0  0  0  0  0  0  0  0  0  0  0
    3.0480   -0.9024    5.4493 H   0  0  0  0  0  0  0  0  0  0  0  0
    1.5576    2.9676    3.7927 H   0  0  0  0  0  0  0  0  0  0  0  0
    0.7859    2.8560    1.4198 H   0  0  0  0  0  0  0  0  0  0  0  0
   -1.2473    1.5126    0.6035 H   0  0  0  0  0  0  0  0  0  0  0  0
   -2.2753    0.1872    0.0770 H   0  0  0  0  0  0  0  0  0  0  0  0
   -3.4677    0.3717   -2.0400 H   0  0  0  0  0  0  0  0  0  0  0  0
   -4.6252    1.9187   -3.5764 H   0  0  0  0  0  0  0  0  0  0  0  0
   -3.9620    4.2783   -3.6443 H   0  0  0  0  0  0  0  0  0  0  0  0
   -1.0312    3.5624   -0.6790 H   0  0  0  0  0  0  0  0  0  0  0  0
   -1.7706   -1.2433   -1.4098 H   0  0  0  0  0  0  0  0  0  0  0  0
   -1.2127   -3.0492   -3.2866 H   0  0  0  0  0  0  0  0  0  0  0  0
    0.2351   -3.3693   -4.9830 H   0  0  0  0  0  0  0  0  0  0  0  0
    0.9648   -2.0243   -0.3066 H   0  0  0  0  0  0  0  0  0  0  0  0
   -0.5728   -0.9823    1.3661 H   0  0  0  0  0  0  0  0  0  0  0  0
   -0.2942   -2.7209    1.6242 H   0  0  0  0  0  0  0  0  0  0  0  0
   -1.8642   -2.1899    0.8931 H   0  0  0  0  0  0  0  0  0  0  0  0
   -0.2090   -4.2518   -0.0046 H   0  0  0  0  0  0  0  0  0  0  0  0
    0.2522   -3.9043   -1.6617 H   0  0  0  0  0  0  0  0  0  0  0  0
   -1.5039   -3.7106   -1.0598 H   0  0  0  0  0  0  0  0  0  0  0  0
    2.5943   -0.9356    1.0409 H   0  0  0  0  0  0  0  0  0  0  0  0
    3.3533   -0.8691    3.3239 H   0  0  0  0  0  0  0  0  0  0  0  0
  1  2  1  0
  2  3  1  0
  3  4  2  0
  4  5  1  0
  5  6  2  0
  6  7  1  0
  7  8  2  0
  7  9  2  0
  7 10  1  0
 10 11  1  0
 11 12  1  0
 12 13  2  0
 13 14  1  0
 14 15  2  0
 15 16  1  0
 16 17  2  0
 10 18  1  0
 18 19  1  0
 19 20  2  0
 19 21  1  0
 21 22  1  0
 18 23  1  0
 23 24  1  0
 23 25  1  0
  6 26  1  0
 26 27  2  0
 27  3  1  0
 17 12  1  0
  1 28  1  0
  1 29  1  0
  1 30  1  0
  4 31  1  0
  5 32  1  0
 11 33  1  0
 11 34  1  0
 13 35  1  0
 14 36  1  0
 15 37  1  0
 17 38  1  0
 18 39  1  6
 21 40  1  0
 22 41  1  0
 23 42  1  0
 24 43  1  0
 24 44  1  0
 24 45  1  0
 25 46  1  0
 25 47  1  0
 25 48  1  0
 26 49  1  0
 27 50  1  0
M  END
$$$$
