@<TRIPOS>MOLECULE
*****
 64 69 0 0 0
SMALL
GASTEIGER

@<TRIPOS>ATOM
      1 O           2.1602   -2.0273   -1.0116 O.2     1  UNL1       -0.2489
      2 C           1.3508   -1.3800   -0.3141 C.2     1  UNL1        0.3255
      3 OXT         0.0929   -1.8894   -0.0956 O.3     1  UNL1       -0.4793
      4 CA          1.7612   -0.0865    0.2608 C.3     1  UNL1        0.1221
      5 C           0.8913    0.9972   -0.2757 C.3     1  UNL1        0.0011
      6 C          -0.5445    0.8672   -0.0041 C.ar    1  UNL1       -0.0450
      7 C          -1.4255    0.2668   -0.8692 C.ar    1  UNL1       -0.0565
      8 C          -2.7658    0.1413   -0.6039 C.ar    1  UNL1       -0.0375
      9 C          -3.2746    0.6251    0.5628 C.ar    1  UNL1        0.0500
     10 N          -4.6575    0.5395    0.9246 N.ar    1  UNL1       -0.2767
     11 C          -5.7270    0.5817    0.1103 C.ar    1  UNL1        0.1490
     12 C          -5.7164    0.7257   -1.3409 C.ar    1  UNL1        0.0359
     13 C          -6.1955   -0.2469   -2.1926 C.ar    1  UNL1       -0.0482
     14 C          -6.1786   -0.0956   -3.5639 C.ar    1  UNL1       -0.0429
     15 C          -5.6628    1.0743   -4.1174 C.ar    1  UNL1        0.0276
     16 N          -5.2031    2.0053   -3.2740 N.ar    1  UNL1       -0.2626
     17 C          -5.2134    1.8709   -1.9327 C.ar    1  UNL1        0.0382
     18 N          -6.8157    0.4653    0.8911 N.ar    1  UNL1       -0.2255
     19 C          -6.4671    0.3494    2.1873 C.ar    1  UNL1        0.1089
     20 C          -7.1702    0.2078    3.3626 C.ar    1  UNL1       -0.0312
     21 C          -6.4874    0.1149    4.5488 C.ar    1  UNL1       -0.0414
     22 C          -5.1060    0.1626    4.5683 C.ar    1  UNL1        0.0300
     23 N          -4.4694    0.3020    3.3919 N.ar    1  UNL1       -0.2355
     24 C          -5.0869    0.3971    2.2071 C.ar    1  UNL1        0.1652
     25 C          -2.4035    1.2319    1.4439 C.ar    1  UNL1       -0.0375
     26 C          -1.0574    1.3640    1.1899 C.ar    1  UNL1       -0.0565
     27 N           3.1516    0.2176   -0.0482 N.pl3   1  UNL1       -0.3328
     28 C           4.2128   -0.6623    0.3841 C.2     1  UNL1        0.0359
     29 C           4.2671   -1.5363    1.3268 C.2     1  UNL1        0.0788
     30 BR          3.0071   -2.1636    2.6704 Br      1  UNL1       -0.0451
     31 C           5.6079   -1.8882    1.0281 C.2     1  UNL1        0.1830
     32 O           6.4348   -2.7184    1.5231 O.2     1  UNL1       -0.2905
     33 C           5.5746   -0.9121   -0.0362 C.3     1  UNL1        0.0728
     34 C           5.7317   -1.4690   -1.4459 C.3     1  UNL1       -0.0350
     35 C           6.2377   -0.3380   -2.3157 C.3     1  UNL1       -0.0518
     36 C           7.6996   -0.0672   -1.9481 C.3     1  UNL1       -0.0530
     37 C           7.8700   -0.1939   -0.4463 C.3     1  UNL1       -0.0518
     38 C           6.5465    0.2439    0.1817 C.3     1  UNL1       -0.0350
     39 HXT        -0.0386   -2.8992   -0.0801 H       1  UNL1        0.2951
     40 HA          1.6196   -0.0760    1.3835 H       1  UNL1        0.0617
     41 H           1.2209    2.0133    0.0540 H       1  UNL1        0.0337
     42 H           1.0101    1.0255   -1.3987 H       1  UNL1        0.0337
     43 H          -1.0492   -0.1167   -1.8006 H       1  UNL1        0.0621
     44 H          -3.4361   -0.3370   -1.3044 H       1  UNL1        0.0638
     45 H          -6.5980   -1.1575   -1.7875 H       1  UNL1        0.0626
     46 H          -6.5520   -0.8545   -4.2177 H       1  UNL1        0.0633
     47 H          -5.6265    1.2427   -5.1872 H       1  UNL1        0.0829
     48 H          -4.8262    2.6636   -1.3245 H       1  UNL1        0.0837
     49 H          -8.2364    0.1696    3.3609 H       1  UNL1        0.0640
     50 H          -7.0348    0.0016    5.4936 H       1  UNL1        0.0633
     51 H          -4.5761    0.0889    5.5043 H       1  UNL1        0.0830
     52 H          -2.7719    1.6292    2.3823 H       1  UNL1        0.0638
     53 H          -0.3760    1.8477    1.8971 H       1  UNL1        0.0621
     54 H           3.3610    1.0792   -0.5850 H       1  UNL1        0.1466
     55 H           6.4185   -2.3355   -1.4484 H       1  UNL1        0.0278
     56 H           4.7589   -1.7852   -1.8777 H       1  UNL1        0.0278
     57 H           6.1736   -0.6575   -3.3756 H       1  UNL1        0.0266
     58 H           5.6457    0.5517   -2.1044 H       1  UNL1        0.0266
     59 H           8.3023   -0.7999   -2.5122 H       1  UNL1        0.0265
     60 H           7.9420    0.9595   -2.2772 H       1  UNL1        0.0265
     61 H           8.7105    0.4244   -0.0658 H       1  UNL1        0.0266
     62 H           8.0806   -1.2390   -0.1330 H       1  UNL1        0.0266
     63 H           6.7120    0.3017    1.2797 H       1  UNL1        0.0278
     64 H           6.1966    1.1827   -0.2451 H       1  UNL1        0.0278
@<TRIPOS>BOND
     1     1     2    2
     2     2     3    1
     3     2     4    1
     4     4     5    1
     5     5     6    1
     6     6     7   ar
     7     7     8   ar
     8     8     9   ar
     9     9    10    1
    10    10    11   ar
    11    11    12    1
    12    12    13   ar
    13    13    14   ar
    14    14    15   ar
    15    15    16   ar
    16    16    17   ar
    17    11    18   ar
    18    18    19   ar
    19    19    20   ar
    20    20    21   ar
    21    21    22   ar
    22    22    23   ar
    23    23    24   ar
    24     9    25   ar
    25    25    26   ar
    26     4    27    1
    27    27    28    1
    28    28    29    2
    29    29    30    1
    30    29    31    1
    31    31    32    2
    32    31    33    1
    33    33    34    1
    34    34    35    1
    35    35    36    1
    36    36    37    1
    37    37    38    1
    38    26     6   ar
    39    33    28    1
    40    24    10   ar
    41    38    33    1
    42    17    12   ar
    43    24    19   ar
    44     3    39    1
    45     4    40    1
    46     5    41    1
    47     5    42    1
    48     7    43    1
    49     8    44    1
    50    13    45    1
    51    14    46    1
    52    15    47    1
    53    17    48    1
    54    20    49    1
    55    21    50    1
    56    22    51    1
    57    25    52    1
    58    26    53    1
    59    27    54    1
    60    34    55    1
    61    34    56    1
    62    35    57    1
    63    35    58    1
    64    36    59    1
    65    36    60    1
    66    37    61    1
    67    37    62    1
    68    38    63    1
    69    38    64    1
