@<TRIPOS>MOLECULE
*****
 46 49 0 0 0
SMALL
GASTEIGER

@<TRIPOS>ATOM
      1 N          -3.7488    2.4509    0.8356 N.am    1  UNL1       -0.3253
      2 C          -4.7944    2.2329   -0.0928 C.2     1  UNL1        0.2431
      3 O          -5.6348    3.1388   -0.2973 O.2     1  UNL1       -0.2704
      4 C          -4.9353    0.9853   -0.8286 C.ar    1  UNL1        0.0580
      5 C          -5.9614    0.7899   -1.7255 C.ar    1  UNL1        0.0399
      6 N          -6.0747   -0.3820   -2.4014 N.ar    1  UNL1       -0.2589
      7 C          -5.2103   -1.3961   -2.2371 C.ar    1  UNL1        0.0698
      8 C          -4.1748   -1.2219   -1.3437 C.ar    1  UNL1        0.1472
      9 O          -3.2784   -2.2344   -1.1490 O.3     1  UNL1       -0.4539
     10 C          -2.1020   -2.1380   -0.4174 C.ar    1  UNL1        0.1362
     11 C          -1.9362   -2.8641    0.7524 C.ar    1  UNL1       -0.0187
     12 C          -0.7854   -2.7775    1.4823 C.ar    1  UNL1       -0.0576
     13 C           0.2658   -1.9486    1.0673 C.ar    1  UNL1       -0.0520
     14 C           0.1320   -1.2206   -0.0855 C.ar    1  UNL1        0.0068
     15 C           1.1726   -0.3771   -0.5491 C.ar    1  UNL1        0.0415
     16 N           2.3692   -0.3511    0.2043 N.am    1  UNL1       -0.2810
     17 C           3.3325    0.6785    0.0895 C.2     1  UNL1        0.2483
     18 O           3.1832    1.6463   -0.6861 O.2     1  UNL1       -0.2699
     19 C           4.5849    0.6709    0.8870 C.ar    1  UNL1        0.0370
     20 C           4.8971   -0.2924    1.7997 C.ar    1  UNL1       -0.0496
     21 C           6.0906   -0.2710    2.5342 C.ar    1  UNL1       -0.0610
     22 C           6.9990    0.7418    2.3522 C.ar    1  UNL1       -0.0617
     23 C           6.6895    1.7185    1.4314 C.ar    1  UNL1       -0.0610
     24 C           5.5142    1.6947    0.7102 C.ar    1  UNL1       -0.0496
     25 C           1.0074    0.3296   -1.7125 C.ar    1  UNL1       -0.0399
     26 C          -0.1830    0.2001   -2.4121 C.ar    1  UNL1       -0.0593
     27 C          -1.2007   -0.6046   -1.9888 C.ar    1  UNL1       -0.0504
     28 C          -1.0434   -1.3243   -0.8092 C.ar    1  UNL1        0.0262
     29 C          -4.0304   -0.0262   -0.6316 C.ar    1  UNL1       -0.0043
     30 H          -3.5582    1.7672    1.5856 H       1  UNL1        0.1453
     31 H          -3.1669    3.3039    0.7648 H       1  UNL1        0.1453
     32 H          -6.6650    1.6015   -1.8664 H       1  UNL1        0.0837
     33 H          -5.3232   -2.3290   -2.7923 H       1  UNL1        0.0867
     34 H          -2.7682   -3.5052    1.0587 H       1  UNL1        0.0654
     35 H          -0.6509   -3.3485    2.4056 H       1  UNL1        0.0619
     36 H           1.1551   -1.9026    1.6823 H       1  UNL1        0.0624
     37 H           2.5988   -1.1411    0.8858 H       1  UNL1        0.1552
     38 H           4.1946   -1.1114    1.9681 H       1  UNL1        0.0625
     39 H           6.2820   -1.0607    3.2420 H       1  UNL1        0.0618
     40 H           7.9351    0.7760    2.9150 H       1  UNL1        0.0618
     41 H           7.3958    2.5390    1.2653 H       1  UNL1        0.0618
     42 H           5.2773    2.4758   -0.0196 H       1  UNL1        0.0625
     43 H           1.7922    0.9584   -2.0821 H       1  UNL1        0.0636
     44 H          -0.3128    0.7576   -3.3298 H       1  UNL1        0.0618
     45 H          -2.1239   -0.7282   -2.5396 H       1  UNL1        0.0625
     46 H          -3.2059    0.1082    0.0780 H       1  UNL1        0.0663
@<TRIPOS>BOND
     1     1     2   am
     2     2     3    2
     3     2     4    1
     4     4     5   ar
     5     5     6   ar
     6     6     7   ar
     7     7     8   ar
     8     8     9    1
     9     9    10    1
    10    10    11   ar
    11    11    12   ar
    12    12    13   ar
    13    13    14   ar
    14    14    15   ar
    15    15    16    1
    16    16    17   am
    17    17    18    2
    18    17    19    1
    19    19    20   ar
    20    20    21   ar
    21    21    22   ar
    22    22    23   ar
    23    23    24   ar
    24    15    25   ar
    25    25    26   ar
    26    26    27   ar
    27    27    28   ar
    28     8    29   ar
    29    29     4   ar
    30    28    10   ar
    31    28    14   ar
    32    24    19   ar
    33     1    30    1
    34     1    31    1
    35     5    32    1
    36     7    33    1
    37    11    34    1
    38    12    35    1
    39    13    36    1
    40    16    37    1
    41    20    38    1
    42    21    39    1
    43    22    40    1
    44    23    41    1
    45    24    42    1
    46    25    43    1
    47    26    44    1
    48    27    45    1
    49    29    46    1
