@<TRIPOS>MOLECULE
*****
 39 42 0 0 0
SMALL
GASTEIGER

@<TRIPOS>ATOM
      1 O           0.1886   -0.5030   -0.7440 O.2     1  UNL1       -0.2751
      2 C           0.3174    0.7200   -0.4618 C.2     1  UNL1        0.2226
      3 C          -0.6932    1.7406   -0.0693 C.3     1  UNL1        0.0495
      4 C          -2.0606    1.1944   -0.0113 C.ar    1  UNL1       -0.0380
      5 C          -2.7165    0.6186    1.0635 C.ar    1  UNL1       -0.0504
      6 C          -4.0020    0.1537    0.9558 C.ar    1  UNL1       -0.0176
      7 C          -4.7157    0.2301   -0.2207 C.ar    1  UNL1       -0.0179
      8 C          -5.9968   -0.2421   -0.2985 C.ar    1  UNL1       -0.0540
      9 C          -6.6071   -0.8103    0.8100 C.ar    1  UNL1       -0.0612
     10 C          -5.8804   -0.8800    1.9810 C.ar    1  UNL1       -0.0612
     11 C          -4.5815   -0.4092    2.0864 C.ar    1  UNL1       -0.0540
     12 C          -4.0545    0.8054   -1.2872 C.ar    1  UNL1       -0.0538
     13 C          -2.7607    1.2859   -1.2207 C.ar    1  UNL1       -0.0575
     14 N           1.6253    1.2956   -0.5043 N.am    1  UNL1       -0.2705
     15 C           2.7913    0.5538   -0.8502 C.ar    1  UNL1        0.1205
     16 C           3.6524   -0.1586   -0.0085 C.ar    1  UNL1        0.0012
     17 C           4.6112   -0.6848   -0.8516 C.ar    1  UNL1        0.0677
     18 N           4.3344   -0.3072   -2.1128 N.ar    1  UNL1       -0.1770
     19 N           3.2387    0.4419   -2.1355 N.ar    1  UNL1       -0.2637
     20 C           5.7778   -1.5414   -0.4346 C.3     1  UNL1        0.0032
     21 C           5.8114   -2.1602    0.8894 C.3     1  UNL1       -0.0441
     22 C           6.5773   -0.9076    0.6962 C.3     1  UNL1       -0.0441
     23 H          -0.6654    2.6427   -0.6975 H       1  UNL1        0.0407
     24 H          -0.4235    2.0761    0.9681 H       1  UNL1        0.0407
     25 H          -2.1293    0.5772    1.9600 H       1  UNL1        0.0626
     26 H          -6.5124   -0.1628   -1.2288 H       1  UNL1        0.0624
     27 H          -7.6295   -1.1872    0.7480 H       1  UNL1        0.0618
     28 H          -6.3866   -1.3285    2.8244 H       1  UNL1        0.0618
     29 H          -4.0758   -0.4974    3.0336 H       1  UNL1        0.0624
     30 H          -4.5908    0.8790   -2.2252 H       1  UNL1        0.0624
     31 H          -2.3312    1.7234   -2.1262 H       1  UNL1        0.0621
     32 H           1.8990    2.2889   -0.2988 H       1  UNL1        0.1562
     33 H           3.5543   -0.2498    1.0452 H       1  UNL1        0.0670
     34 H           2.8523    0.8377   -3.0211 H       1  UNL1        0.1903
     35 H           6.4505   -1.8743   -1.2674 H       1  UNL1        0.0364
     36 H           4.8829   -2.1703    1.4918 H       1  UNL1        0.0272
     37 H           6.4242   -3.0806    0.9965 H       1  UNL1        0.0272
     38 H           6.1535   -0.0288    1.2313 H       1  UNL1        0.0272
     39 H           7.6707   -0.8811    0.6589 H       1  UNL1        0.0272
@<TRIPOS>BOND
     1     1     2    2
     2     2     3    1
     3     3     4    1
     4     4     5   ar
     5     5     6   ar
     6     6     7   ar
     7     7     8   ar
     8     8     9   ar
     9     9    10   ar
    10    10    11   ar
    11     7    12   ar
    12    12    13   ar
    13     2    14   am
    14    14    15    1
    15    15    16   ar
    16    16    17   ar
    17    17    18   ar
    18    18    19   ar
    19    17    20    1
    20    20    21    1
    21    21    22    1
    22    13     4   ar
    23    19    15   ar
    24    22    20    1
    25    11     6   ar
    26     3    23    1
    27     3    24    1
    28     5    25    1
    29     8    26    1
    30     9    27    1
    31    10    28    1
    32    11    29    1
    33    12    30    1
    34    13    31    1
    35    14    32    1
    36    16    33    1
    37    19    34    1
    38    20    35    1
    39    21    36    1
    40    21    37    1
    41    22    38    1
    42    22    39    1
