@<TRIPOS>MOLECULE
*****
 54 57 0 0 0
SMALL
GASTEIGER

@<TRIPOS>ATOM
      1 C          -1.9621    3.4687   -2.2273 C.3     1  UNL1       -0.0584
      2 C          -2.0138    3.7176   -0.7546 C.3     1  UNL1        0.0034
      3 C          -1.5624    2.5130    0.0249 C.ar    1  UNL1        0.1169
      4 C          -2.2128    1.3241    0.2938 C.ar    1  UNL1        0.0708
      5 C          -3.5504    1.0189   -0.1527 C.2     1  UNL1        0.1971
      6 O          -4.2196    2.0738   -0.4441 O.2     1  UNL1       -0.2865
      7 C          -4.3389   -0.1718   -0.3611 C.ar    1  UNL1        0.0247
      8 C          -3.8284   -1.4313   -0.6648 C.ar    1  UNL1       -0.0333
      9 C          -4.5409   -2.5898   -0.8496 C.ar    1  UNL1        0.0610
     10 BR         -3.6059   -4.2139   -1.2639 Br      1  UNL1       -0.0465
     11 C          -5.8964   -2.5049   -0.7233 C.ar    1  UNL1        0.1447
     12 O          -6.6532   -3.6477   -0.9000 O.3     1  UNL1       -0.5045
     13 C          -6.4812   -1.2827   -0.4216 C.ar    1  UNL1        0.0610
     14 BR         -8.3798   -1.1883   -0.2502 Br      1  UNL1       -0.0465
     15 C          -5.7118   -0.1572   -0.2485 C.ar    1  UNL1       -0.0333
     16 C          -1.3015    0.6230    1.0477 C.ar    1  UNL1        0.0314
     17 C          -0.1524    1.3593    1.2217 C.ar    1  UNL1        0.1378
     18 O          -0.3834    2.4552    0.5916 O.2     1  UNL1       -0.4589
     19 C           0.9250    0.8869    1.9433 C.ar    1  UNL1        0.0079
     20 C           0.8690   -0.3638    2.5218 C.ar    1  UNL1        0.1120
     21 C          -0.2872   -1.1132    2.3549 C.ar    1  UNL1       -0.0343
     22 C          -1.3361   -0.6129    1.6315 C.ar    1  UNL1       -0.0484
     23 S           2.1505   -1.1026    3.4584 S.O2    1  UNL1        0.0725
     24 O           3.0461   -0.0117    4.0213 O.2     1  UNL1       -0.1500
     25 O           1.5954   -1.9736    4.5402 O.2     1  UNL1       -0.1500
     26 N           3.1025   -2.0496    2.3583 N.pl3   1  UNL1       -0.2163
     27 C           3.8412   -1.6159    1.2301 C.ar    1  UNL1        0.0482
     28 C           4.6675   -0.5033    1.3050 C.ar    1  UNL1       -0.0375
     29 C           5.3816   -0.1144    0.1701 C.ar    1  UNL1       -0.0336
     30 C           5.2475   -0.8521   -1.0100 C.ar    1  UNL1        0.1051
     31 C           4.4274   -1.9447   -1.0611 C.ar    1  UNL1       -0.0336
     32 C           3.7188   -2.3426    0.0400 C.ar    1  UNL1       -0.0375
     33 S           6.1707   -0.3207   -2.3956 S.O2    1  UNL1        0.0559
     34 N           5.2336    0.8348   -3.2619 N.3     1  UNL1       -0.2035
     35 O           6.5503   -1.4831   -3.2744 O.2     1  UNL1       -0.1533
     36 O           7.4585    0.3128   -1.8803 O.2     1  UNL1       -0.1533
     37 H          -1.2529    2.6659   -2.5059 H       1  UNL1        0.0234
     38 H          -1.6216    4.3756   -2.7620 H       1  UNL1        0.0234
     39 H          -2.9629    3.2106   -2.6153 H       1  UNL1        0.0234
     40 H          -2.9972    4.0232   -0.3726 H       1  UNL1        0.0341
     41 H          -1.3240    4.5523   -0.5409 H       1  UNL1        0.0341
     42 H          -2.7499   -1.4944   -0.7666 H       1  UNL1        0.0637
     43 H          -7.5177   -3.8177   -0.4143 H       1  UNL1        0.2922
     44 H          -6.2022    0.7854   -0.0124 H       1  UNL1        0.0637
     45 H           1.8325    1.4533    2.0852 H       1  UNL1        0.0674
     46 H          -0.3727   -2.1130    2.8010 H       1  UNL1        0.0637
     47 H          -2.2128   -1.2201    1.5455 H       1  UNL1        0.0625
     48 H           3.1638   -3.0829    2.5184 H       1  UNL1        0.1737
     49 H           4.7789    0.0736    2.2071 H       1  UNL1        0.0637
     50 H           6.0400    0.7647    0.2155 H       1  UNL1        0.0638
     51 H           4.3591   -2.4895   -2.0137 H       1  UNL1        0.0638
     52 H           3.0788   -3.2130   -0.0379 H       1  UNL1        0.0637
     53 H           4.2983    0.9299   -2.8131 H       1  UNL1        0.1442
     54 H           5.6954    1.7729   -3.1275 H       1  UNL1        0.1442
@<TRIPOS>BOND
     1     1     2    1
     2     2     3    1
     3     3     4   ar
     4     4     5    1
     5     5     6    2
     6     5     7    1
     7     7     8   ar
     8     8     9   ar
     9     9    10    1
    10     9    11   ar
    11    11    12    1
    12    11    13   ar
    13    13    14    1
    14    13    15   ar
    15     4    16   ar
    16    16    17   ar
    17    17    18   ar
    18    17    19   ar
    19    19    20   ar
    20    20    21   ar
    21    21    22   ar
    22    20    23    1
    23    23    24    2
    24    23    25    2
    25    23    26    1
    26    26    27    1
    27    27    28   ar
    28    28    29   ar
    29    29    30   ar
    30    30    31   ar
    31    31    32   ar
    32    30    33    1
    33    33    34    1
    34    33    35    2
    35    33    36    2
    36    18     3   ar
    37    32    27   ar
    38    15     7   ar
    39    22    16   ar
    40     1    37    1
    41     1    38    1
    42     1    39    1
    43     2    40    1
    44     2    41    1
    45     8    42    1
    46    12    43    1
    47    15    44    1
    48    19    45    1
    49    21    46    1
    50    22    47    1
    51    26    48    1
    52    28    49    1
    53    29    50    1
    54    31    51    1
    55    32    52    1
    56    34    53    1
    57    34    54    1
