@<TRIPOS>MOLECULE
*****
 67 71 0 0 0
SMALL
GASTEIGER

@<TRIPOS>ATOM
      1 C           6.2032    0.1211    1.0379 C.3     1  UNL1        0.0004
      2 N           5.5522    0.2820   -0.2583 N.pl3   1  UNL1       -0.3360
      3 C           6.3863    0.4939   -1.4212 C.3     1  UNL1        0.0004
      4 C           4.1459    0.2307   -0.3651 C.ar    1  UNL1        0.0292
      5 C           3.5351    0.3832   -1.5921 C.ar    1  UNL1       -0.0404
      6 C           2.1584    0.3263   -1.6518 C.ar    1  UNL1       -0.0563
      7 C           1.3443    0.1212   -0.5297 C.ar    1  UNL1       -0.0401
      8 C           2.0052   -0.0251    0.6719 C.ar    1  UNL1       -0.0563
      9 C           3.3801    0.0269    0.7640 C.ar    1  UNL1       -0.0404
     10 C          -0.1581    0.0726   -0.6694 C.3     1  UNL1        0.0066
     11 C          -0.6185   -1.3285   -0.6799 C.3     1  UNL1       -0.0337
     12 C          -1.7110   -1.7420    0.2257 C.3     1  UNL1        0.0078
     13 C          -1.1613   -2.3715    1.4619 C.3     1  UNL1       -0.0562
     14 C          -2.5564   -0.5115    0.4661 C.3     1  UNL1       -0.0259
     15 C          -3.7836   -1.0583    1.0771 C.3     1  UNL1       -0.0460
     16 C          -4.1146   -2.1118    0.0044 C.3     1  UNL1       -0.0162
     17 C          -2.7367   -2.6834   -0.3606 C.3     1  UNL1        0.1289
     18 O          -2.5766   -2.7555   -1.7509 O.3     1  UNL1       -0.3805
     19 C          -2.7216   -4.0384    0.2623 C.2     1  UNL1        0.1621
     20 C          -2.5097   -5.2155   -0.6606 C.3     1  UNL1       -0.0031
     21 O          -2.8574   -4.3827    1.4484 O.2     1  UNL1       -0.2946
     22 C          -1.7208    0.4207    1.2531 C.3     1  UNL1       -0.0150
     23 C          -2.5534    1.3767    2.0098 C.3     1  UNL1       -0.0422
     24 C          -1.6823    2.5865    2.3703 C.3     1  UNL1       -0.0268
     25 C          -1.3482    3.1570    1.0404 C.2     1  UNL1       -0.0409
     26 C          -1.7034    4.4011    0.6745 C.2     1  UNL1       -0.0158
     27 C          -1.2861    4.7847   -0.6685 C.2     1  UNL1        0.1567
     28 O          -2.1112    5.4520   -1.3614 O.2     1  UNL1       -0.2927
     29 C           0.0565    4.3873   -1.1557 C.3     1  UNL1        0.0139
     30 C           0.2691    2.9306   -0.9344 C.3     1  UNL1       -0.0204
     31 C          -0.6144    2.3386    0.0837 C.2     1  UNL1       -0.0436
     32 C          -0.8175    1.0290    0.2144 C.2     1  UNL1       -0.0553
     33 H           7.2548    0.4958    0.9823 H       1  UNL1        0.0428
     34 H           6.2628   -0.9442    1.3140 H       1  UNL1        0.0428
     35 H           5.7079    0.6966    1.8261 H       1  UNL1        0.0428
     36 H           6.0217   -0.0771   -2.2834 H       1  UNL1        0.0428
     37 H           6.3978    1.5720   -1.7038 H       1  UNL1        0.0428
     38 H           7.4464    0.1993   -1.1925 H       1  UNL1        0.0428
     39 H           4.0917    0.5451   -2.5060 H       1  UNL1        0.0636
     40 H           1.6968    0.4509   -2.6423 H       1  UNL1        0.0621
     41 H           1.4355   -0.1822    1.5596 H       1  UNL1        0.0621
     42 H           3.8278   -0.0968    1.7438 H       1  UNL1        0.0636
     43 H          -0.3053    0.4494   -1.7302 H       1  UNL1        0.0394
     44 H          -0.9166   -1.6951   -1.7097 H       1  UNL1        0.0280
     45 H           0.2591   -2.0033   -0.4472 H       1  UNL1        0.0280
     46 H          -0.2070   -1.8947    1.8362 H       1  UNL1        0.0236
     47 H          -0.7886   -3.3939    1.1454 H       1  UNL1        0.0236
     48 H          -1.8988   -2.4176    2.2634 H       1  UNL1        0.0236
     49 H          -2.8132   -0.0715   -0.5202 H       1  UNL1        0.0313
     50 H          -4.6109   -0.2941    0.9962 H       1  UNL1        0.0269
     51 H          -3.6967   -1.4831    2.0722 H       1  UNL1        0.0269
     52 H          -4.5744   -1.6250   -0.8632 H       1  UNL1        0.0297
     53 H          -4.8023   -2.8518    0.4042 H       1  UNL1        0.0297
     54 H          -1.9003   -3.4650   -1.9396 H       1  UNL1        0.2108
     55 H          -2.8655   -6.1601   -0.2485 H       1  UNL1        0.0307
     56 H          -1.4485   -5.3088   -0.9110 H       1  UNL1        0.0307
     57 H          -3.1522   -5.0302   -1.5708 H       1  UNL1        0.0307
     58 H          -1.0289   -0.0604    1.9733 H       1  UNL1        0.0349
     59 H          -3.4407    1.6680    1.4292 H       1  UNL1        0.0274
     60 H          -2.8017    0.9125    2.9892 H       1  UNL1        0.0274
     61 H          -2.2597    3.2626    2.9978 H       1  UNL1        0.0313
     62 H          -0.7683    2.1919    2.8579 H       1  UNL1        0.0313
     63 H          -2.2507    5.0384    1.3338 H       1  UNL1        0.0655
     64 H           0.1590    4.5987   -2.2538 H       1  UNL1        0.0348
     65 H           0.7841    5.0216   -0.5847 H       1  UNL1        0.0348
     66 H           1.3196    2.8381   -0.5483 H       1  UNL1        0.0317
     67 H           0.1723    2.4155   -1.9266 H       1  UNL1        0.0317
@<TRIPOS>BOND
     1     1     2    1
     2     2     3    1
     3     2     4    1
     4     4     5   ar
     5     5     6   ar
     6     6     7   ar
     7     7     8   ar
     8     8     9   ar
     9     7    10    1
    10    10    11    1
    11    11    12    1
    12    12    13    1
    13    12    14    1
    14    14    15    1
    15    15    16    1
    16    16    17    1
    17    17    18    1
    18    17    19    1
    19    19    20    1
    20    19    21    2
    21    14    22    1
    22    22    23    1
    23    23    24    1
    24    24    25    1
    25    25    26    2
    26    26    27    1
    27    27    28    2
    28    27    29    1
    29    29    30    1
    30    30    31    1
    31    31    32    2
    32     9     4   ar
    33    32    10    1
    34    17    12    1
    35    32    22    1
    36    31    25    1
    37     1    33    1
    38     1    34    1
    39     1    35    1
    40     3    36    1
    41     3    37    1
    42     3    38    1
    43     5    39    1
    44     6    40    1
    45     8    41    1
    46     9    42    1
    47    10    43    1
    48    11    44    1
    49    11    45    1
    50    13    46    1
    51    13    47    1
    52    13    48    1
    53    14    49    1
    54    15    50    1
    55    15    51    1
    56    16    52    1
    57    16    53    1
    58    18    54    1
    59    20    55    1
    60    20    56    1
    61    20    57    1
    62    22    58    1
    63    23    59    1
    64    23    60    1
    65    24    61    1
    66    24    62    1
    67    26    63    1
    68    29    64    1
    69    29    65    1
    70    30    66    1
    71    30    67    1
