
     RDKit          3D

 22 21  0  0  0  0  0  0  0  0999 V2000
   -2.2231    0.8627   -0.7855 C   0  0  0  0  0  0  0  0  0  0  0  0
   -1.1232    0.4702    0.1927 C   0  0  0  0  0  0  0  0  0  0  0  0
   -1.6187   -0.6476    1.0759 C   0  0  0  0  0  0  0  0  0  0  0  0
    0.0542    0.0410   -0.6345 C   0  0  0  0  0  0  0  0  0  0  0  0
    1.2128   -0.3731    0.2463 C   0  0  1  0  0  0  0  0  0  0  0  0
    2.3916   -0.8029   -0.6004 C   0  0  0  0  0  0  0  0  0  0  0  0
    1.6050    0.7909    1.0483 N   0  0  0  0  0  0  0  0  0  0  0  0
   -3.1790    0.8122   -0.2238 H   0  0  0  0  0  0  0  0  0  0  0  0
   -2.2421    0.1638   -1.6429 H   0  0  0  0  0  0  0  0  0  0  0  0
   -2.1089    1.9202   -1.1195 H   0  0  0  0  0  0  0  0  0  0  0  0
   -0.8391    1.3402    0.8118 H   0  0  0  0  0  0  0  0  0  0  0  0
   -1.2433   -1.6038    0.6449 H   0  0  0  0  0  0  0  0  0  0  0  0
   -1.2532   -0.5458    2.1060 H   0  0  0  0  0  0  0  0  0  0  0  0
   -2.7396   -0.6717    1.0192 H   0  0  0  0  0  0  0  0  0  0  0  0
    0.3421    0.8836   -1.2811 H   0  0  0  0  0  0  0  0  0  0  0  0
   -0.1996   -0.8398   -1.2577 H   0  0  0  0  0  0  0  0  0  0  0  0
    0.8628   -1.1357    0.9437 H   0  0  0  0  0  0  0  0  0  0  0  0
    3.0095    0.0655   -0.9008 H   0  0  0  0  0  0  0  0  0  0  0  0
    3.0558   -1.5034   -0.0422 H   0  0  0  0  0  0  0  0  0  0  0  0
    2.0239   -1.3862   -1.4824 H   0  0  0  0  0  0  0  0  0  0  0  0
    1.6949    1.5781    0.3481 H   0  0  0  0  0  0  0  0  0  0  0  0
    2.5173    0.5816    1.5337 H   0  0  0  0  0  0  0  0  0  0  0  0
  1  2  1  0
  2  3  1  0
  2  4  1  0
  4  5  1  0
  5  6  1  0
  5  7  1  0
  1  8  1  0
  1  9  1  0
  1 10  1  0
  2 11  1  0
  3 12  1  0
  3 13  1  0
  3 14  1  0
  4 15  1  0
  4 16  1  0
  5 17  1  1
  6 18  1  0
  6 19  1  0
  6 20  1  0
  7 21  1  0
  7 22  1  0
M  END
$$$$
