
     RDKit          3D

 32 34  0  0  0  0  0  0  0  0999 V2000
   -2.2391   -2.5063   -1.6430 O   0  0  0  0  0  0  0  0  0  0  0  0
   -1.6944   -1.5213   -1.0755 C   0  0  0  0  0  0  0  0  0  0  0  0
   -0.3026   -1.4087   -1.0142 C   0  0  0  0  0  0  0  0  0  0  0  0
    0.4254   -2.4323   -1.6073 O   0  0  0  0  0  0  0  0  0  0  0  0
    0.3329   -0.3735   -0.4180 C   0  0  0  0  0  0  0  0  0  0  0  0
    1.7750   -0.2155   -0.3305 C   0  0  0  0  0  0  0  0  0  0  0  0
    2.7252   -1.0641   -0.8231 C   0  0  0  0  0  0  0  0  0  0  0  0
    4.0921   -0.8440   -0.6995 C   0  0  0  0  0  0  0  0  0  0  0  0
    4.5222    0.2729   -0.0556 C   0  0  0  0  0  0  0  0  0  0  0  0
    5.8934    0.5615    0.1075 O   0  0  0  0  0  0  0  0  0  0  0  0
    3.6075    1.1659    0.4626 C   0  0  0  0  0  0  0  0  0  0  0  0
    4.0703    2.3247    1.1307 O   0  0  0  0  0  0  0  0  0  0  0  0
    2.2643    0.9320    0.3310 C   0  0  0  0  0  0  0  0  0  0  0  0
   -0.4563    0.5559    0.1209 O   0  0  0  0  0  0  0  0  0  0  0  0
   -1.7583    0.5030    0.0938 C   0  0  0  0  0  0  0  0  0  0  0  0
   -2.5404    1.4960    0.6694 C   0  0  0  0  0  0  0  0  0  0  0  0
   -3.9144    1.4776    0.6624 C   0  0  0  0  0  0  0  0  0  0  0  0
   -4.6536    2.5021    1.2560 O   0  0  0  0  0  0  0  0  0  0  0  0
   -4.5810    0.4340    0.0614 C   0  0  0  0  0  0  0  0  0  0  0  0
   -3.8371   -0.5623   -0.5160 C   0  0  0  0  0  0  0  0  0  0  0  0
   -4.4819   -1.6276   -1.1296 O   0  0  0  0  0  0  0  0  0  0  0  0
   -2.4508   -0.5331   -0.5028 C   0  0  0  0  0  0  0  0  0  0  0  0
    0.4432   -3.3226   -1.1086 H   0  0  0  0  0  0  0  0  0  0  0  0
    2.4128   -1.9545   -1.3366 H   0  0  0  0  0  0  0  0  0  0  0  0
    4.7927   -1.5417   -1.1044 H   0  0  0  0  0  0  0  0  0  0  0  0
    6.5931   -0.1596    0.0840 H   0  0  0  0  0  0  0  0  0  0  0  0
    5.0357    2.3468    1.4313 H   0  0  0  0  0  0  0  0  0  0  0  0
    1.5448    1.6341    0.7384 H   0  0  0  0  0  0  0  0  0  0  0  0
   -2.0258    2.3338    1.1519 H   0  0  0  0  0  0  0  0  0  0  0  0
   -5.4517    2.9328    0.8453 H   0  0  0  0  0  0  0  0  0  0  0  0
   -5.6663    0.3885    0.0380 H   0  0  0  0  0  0  0  0  0  0  0  0
   -4.4770   -1.7948   -2.1276 H   0  0  0  0  0  0  0  0  0  0  0  0
  1  2  2  0
  2  3  1  0
  3  4  1  0
  3  5  2  0
  5  6  1  0
  6  7  2  0
  7  8  1  0
  8  9  2  0
  9 10  1  0
  9 11  1  0
 11 12  1  0
 11 13  2  0
  5 14  1  0
 14 15  1  0
 15 16  2  0
 16 17  1  0
 17 18  1  0
 17 19  2  0
 19 20  1  0
 20 21  1  0
 20 22  2  0
 22  2  1  0
 13  6  1  0
 22 15  1  0
  4 23  1  0
  7 24  1  0
  8 25  1  0
 10 26  1  0
 12 27  1  0
 13 28  1  0
 16 29  1  0
 18 30  1  0
 19 31  1  0
 21 32  1  0
M  END
$$$$
