@<TRIPOS>MOLECULE
*****
 32 34 0 0 0
SMALL
GASTEIGER

@<TRIPOS>ATOM
      1 O          -2.2391   -2.5063   -1.6430 O.2     1  UNL1       -0.2830
      2 C          -1.6944   -1.5213   -1.0755 C.ar    1  UNL1        0.2379
      3 C          -0.3026   -1.4087   -1.0142 C.ar    1  UNL1        0.2082
      4 O           0.4254   -2.4323   -1.6073 O.3     1  UNL1       -0.5007
      5 C           0.3329   -0.3735   -0.4180 C.ar    1  UNL1        0.1807
      6 C           1.7750   -0.2155   -0.3305 C.ar    1  UNL1        0.0247
      7 C           2.7252   -1.0641   -0.8231 C.ar    1  UNL1       -0.0473
      8 C           4.0921   -0.8440   -0.6995 C.ar    1  UNL1       -0.0159
      9 C           4.5222    0.2729   -0.0556 C.ar    1  UNL1        0.1583
     10 O           5.8934    0.5615    0.1075 O.3     1  UNL1       -0.5033
     11 C           3.6075    1.1659    0.4626 C.ar    1  UNL1        0.1589
     12 O           4.0703    2.3247    1.1307 O.3     1  UNL1       -0.5033
     13 C           2.2643    0.9320    0.3310 C.ar    1  UNL1       -0.0057
     14 O          -0.4563    0.5559    0.1209 O.2     1  UNL1       -0.4507
     15 C          -1.7583    0.5030    0.0938 C.ar    1  UNL1        0.1465
     16 C          -2.5404    1.4960    0.6694 C.ar    1  UNL1        0.0231
     17 C          -3.9144    1.4776    0.6624 C.ar    1  UNL1        0.1239
     18 O          -4.6536    2.5021    1.2560 O.3     1  UNL1       -0.5065
     19 C          -4.5810    0.4340    0.0614 C.ar    1  UNL1        0.0223
     20 C          -3.8371   -0.5623   -0.5160 C.ar    1  UNL1        0.1348
     21 O          -4.4819   -1.6276   -1.1296 O.3     1  UNL1       -0.5058
     22 C          -2.4508   -0.5331   -0.5028 C.ar    1  UNL1        0.1092
     23 H           0.4432   -3.3226   -1.1086 H       1  UNL1        0.2924
     24 H           2.4128   -1.9545   -1.3366 H       1  UNL1        0.0626
     25 H           4.7927   -1.5417   -1.1044 H       1  UNL1        0.0655
     26 H           6.5931   -0.1596    0.0840 H       1  UNL1        0.2923
     27 H           5.0357    2.3468    1.4313 H       1  UNL1        0.2923
     28 H           1.5448    1.6341    0.7384 H       1  UNL1        0.0662
     29 H          -2.0258    2.3338    1.1519 H       1  UNL1        0.0691
     30 H          -5.4517    2.9328    0.8453 H       1  UNL1        0.2921
     31 H          -5.6663    0.3885    0.0380 H       1  UNL1        0.0691
     32 H          -4.4770   -1.7948   -2.1276 H       1  UNL1        0.2922
@<TRIPOS>BOND
     1     1     2    2
     2     2     3   ar
     3     3     4    1
     4     3     5   ar
     5     5     6    1
     6     6     7   ar
     7     7     8   ar
     8     8     9   ar
     9     9    10    1
    10     9    11   ar
    11    11    12    1
    12    11    13   ar
    13     5    14   ar
    14    14    15   ar
    15    15    16   ar
    16    16    17   ar
    17    17    18    1
    18    17    19   ar
    19    19    20   ar
    20    20    21    1
    21    20    22   ar
    22    22     2   ar
    23    13     6   ar
    24    22    15   ar
    25     4    23    1
    26     7    24    1
    27     8    25    1
    28    10    26    1
    29    12    27    1
    30    13    28    1
    31    16    29    1
    32    18    30    1
    33    19    31    1
    34    21    32    1
