
     RDKit          3D

 54 58  0  0  0  0  0  0  0  0999 V2000
    7.1349    3.0043   -0.0074 C   0  0  0  0  0  0  0  0  0  0  0  0
    6.8417    1.5385    0.2021 C   0  0  0  0  0  0  0  0  0  0  0  0
    7.8073    0.5736    0.0164 C   0  0  0  0  0  0  0  0  0  0  0  0
    7.5169   -0.7765    0.2108 C   0  0  0  0  0  0  0  0  0  0  0  0
    6.2625   -1.1616    0.5898 C   0  0  0  0  0  0  0  0  0  0  0  0
    5.3212   -0.1890    0.7676 C   0  0  0  0  0  0  0  0  0  0  0  0
    3.9303   -0.4853    1.1604 C   0  0  0  0  0  0  0  0  0  0  0  0
    3.5148   -0.8633    2.3754 N   0  0  0  0  0  0  0  0  0  0  0  0
    2.1866   -1.0237    2.2861 N   0  0  0  0  0  0  0  0  0  0  0  0
    1.7573   -0.7607    1.0634 C   0  0  0  0  0  0  0  0  0  0  0  0
    2.8394   -0.4257    0.3593 N   0  0  0  0  0  0  0  0  0  0  0  0
    2.7892   -0.0822   -1.0516 C   0  0  0  0  0  0  0  0  0  0  0  0
    1.7110   -0.8908   -1.7361 C   0  0  0  0  0  0  0  0  0  0  0  0
    0.4554   -0.8074   -1.0022 N   0  0  0  0  0  0  0  0  0  0  0  0
   -0.7415   -0.7696   -1.7487 C   0  0  0  0  0  0  0  0  0  0  0  0
   -0.6198   -0.8295   -3.0273 O   0  0  0  0  0  0  0  0  0  0  0  0
   -2.0856   -0.6670   -1.1930 C   0  0  0  0  0  0  0  0  0  0  0  0
   -2.8147    0.4871   -1.4856 C   0  0  0  0  0  0  0  0  0  0  0  0
   -4.0977    0.6145   -0.9948 C   0  0  0  0  0  0  0  0  0  0  0  0
   -4.7151   -0.3397   -0.2206 C   0  0  0  0  0  0  0  0  0  0  0  0
   -6.0812   -0.1520    0.2774 C   0  0  0  0  0  0  0  0  0  0  0  0
   -6.4941    1.1604    0.5601 C   0  0  0  0  0  0  0  0  0  0  0  0
   -7.7623    1.4233    1.0269 C   0  0  0  0  0  0  0  0  0  0  0  0
   -8.6629    0.4026    1.2313 C   0  0  0  0  0  0  0  0  0  0  0  0
   -8.2700   -0.8763    0.9606 C   0  0  0  0  0  0  0  0  0  0  0  0
   -6.9828   -1.1537    0.4842 C   0  0  0  0  0  0  0  0  0  0  0  0
   -3.9887   -1.4745    0.0625 C   0  0  0  0  0  0  0  0  0  0  0  0
   -2.6786   -1.6311   -0.4257 C   0  0  0  0  0  0  0  0  0  0  0  0
    0.4021   -0.7751    0.4269 C   0  0  2  0  0  0  0  0  0  0  0  0
   -0.3714    0.4480    0.8728 C   0  0  0  0  0  0  0  0  0  0  0  0
    5.6182    1.1281    0.5753 N   0  0  0  0  0  0  0  0  0  0  0  0
    6.9274    3.5933    0.8872 H   0  0  0  0  0  0  0  0  0  0  0  0
    8.2294    3.0694   -0.2713 H   0  0  0  0  0  0  0  0  0  0  0  0
    6.5803    3.3518   -0.9030 H   0  0  0  0  0  0  0  0  0  0  0  0
    8.8061    0.9133   -0.2836 H   0  0  0  0  0  0  0  0  0  0  0  0
    8.3085   -1.5165    0.0547 H   0  0  0  0  0  0  0  0  0  0  0  0
    5.9944   -2.1932    0.7497 H   0  0  0  0  0  0  0  0  0  0  0  0
    2.5758    1.0017   -1.1138 H   0  0  0  0  0  0  0  0  0  0  0  0
    3.7319   -0.2632   -1.5907 H   0  0  0  0  0  0  0  0  0  0  0  0
    1.9787   -1.9608   -1.8030 H   0  0  0  0  0  0  0  0  0  0  0  0
    1.5822   -0.5023   -2.7511 H   0  0  0  0  0  0  0  0  0  0  0  0
   -2.3482    1.2529   -2.0945 H   0  0  0  0  0  0  0  0  0  0  0  0
   -4.6823    1.5082   -1.2150 H   0  0  0  0  0  0  0  0  0  0  0  0
   -5.8078    1.9772    0.4121 H   0  0  0  0  0  0  0  0  0  0  0  0
   -8.0875    2.4422    1.2521 H   0  0  0  0  0  0  0  0  0  0  0  0
   -9.6441    0.6549    1.6018 H   0  0  0  0  0  0  0  0  0  0  0  0
   -8.9635   -1.6818    1.1187 H   0  0  0  0  0  0  0  0  0  0  0  0
   -6.6987   -2.1659    0.2780 H   0  0  0  0  0  0  0  0  0  0  0  0
   -4.4143   -2.2655    0.6662 H   0  0  0  0  0  0  0  0  0  0  0  0
   -2.1222   -2.5238   -0.2005 H   0  0  0  0  0  0  0  0  0  0  0  0
   -0.1012   -1.7172    0.7831 H   0  0  0  0  0  0  0  0  0  0  0  0
   -0.5046    1.1970    0.0678 H   0  0  0  0  0  0  0  0  0  0  0  0
    0.2728    0.9977    1.6323 H   0  0  0  0  0  0  0  0  0  0  0  0
   -1.3357    0.1855    1.3617 H   0  0  0  0  0  0  0  0  0  0  0  0
  1  2  1  0
  2  3  2  0
  3  4  1  0
  4  5  2  0
  5  6  1  0
  6  7  1  0
  7  8  2  0
  8  9  1  0
  9 10  2  0
 10 11  1  0
 11 12  1  0
 12 13  1  0
 13 14  1  0
 14 15  1  0
 15 16  2  0
 15 17  1  0
 17 18  2  0
 18 19  1  0
 19 20  2  0
 20 21  1  0
 21 22  2  0
 22 23  1  0
 23 24  2  0
 24 25  1  0
 25 26  2  0
 20 27  1  0
 27 28  2  0
 14 29  1  0
 29 30  1  0
  6 31  2  0
 31  2  1  0
 11  7  1  0
 28 17  1  0
 29 10  1  0
 26 21  1  0
  1 32  1  0
  1 33  1  0
  1 34  1  0
  3 35  1  0
  4 36  1  0
  5 37  1  0
 12 38  1  0
 12 39  1  0
 13 40  1  0
 13 41  1  0
 18 42  1  0
 19 43  1  0
 22 44  1  0
 23 45  1  0
 24 46  1  0
 25 47  1  0
 26 48  1  0
 27 49  1  0
 28 50  1  0
 29 51  1  1
 30 52  1  0
 30 53  1  0
 30 54  1  0
M  END
$$$$
