@<TRIPOS>MOLECULE
*****
 54 58 0 0 0
SMALL
GASTEIGER

@<TRIPOS>ATOM
      1 C           7.1349    3.0043   -0.0074 C.3     1  UNL1       -0.0223
      2 C           6.8417    1.5385    0.2021 C.ar    1  UNL1        0.0390
      3 C           7.8073    0.5736    0.0164 C.ar    1  UNL1       -0.0406
      4 C           7.5169   -0.7765    0.2108 C.ar    1  UNL1       -0.0580
      5 C           6.2625   -1.1616    0.5898 C.ar    1  UNL1       -0.0326
      6 C           5.3212   -0.1890    0.7676 C.ar    1  UNL1        0.1083
      7 C           3.9303   -0.4853    1.1604 C.ar    1  UNL1        0.1827
      8 N           3.5148   -0.8633    2.3754 N.ar    1  UNL1       -0.1275
      9 N           2.1866   -1.0237    2.2861 N.ar    1  UNL1       -0.1320
     10 C           1.7573   -0.7607    1.0634 C.ar    1  UNL1        0.1542
     11 N           2.8394   -0.4257    0.3593 N.ar    1  UNL1       -0.3067
     12 C           2.7892   -0.0822   -1.0516 C.3     1  UNL1        0.0423
     13 C           1.7110   -0.8908   -1.7361 C.3     1  UNL1        0.0338
     14 N           0.4554   -0.8074   -1.0022 N.am    1  UNL1       -0.2860
     15 C          -0.7415   -0.7696   -1.7487 C.2     1  UNL1        0.2472
     16 O          -0.6198   -0.8295   -3.0273 O.2     1  UNL1       -0.2700
     17 C          -2.0856   -0.6670   -1.1930 C.ar    1  UNL1        0.0370
     18 C          -2.8147    0.4871   -1.4856 C.ar    1  UNL1       -0.0491
     19 C          -4.0977    0.6145   -0.9948 C.ar    1  UNL1       -0.0533
     20 C          -4.7151   -0.3397   -0.2206 C.ar    1  UNL1       -0.0178
     21 C          -6.0812   -0.1520    0.2774 C.ar    1  UNL1       -0.0179
     22 C          -6.4941    1.1604    0.5601 C.ar    1  UNL1       -0.0540
     23 C          -7.7623    1.4233    1.0269 C.ar    1  UNL1       -0.0612
     24 C          -8.6629    0.4026    1.2313 C.ar    1  UNL1       -0.0617
     25 C          -8.2700   -0.8763    0.9606 C.ar    1  UNL1       -0.0612
     26 C          -6.9828   -1.1537    0.4842 C.ar    1  UNL1       -0.0540
     27 C          -3.9887   -1.4745    0.0625 C.ar    1  UNL1       -0.0533
     28 C          -2.6786   -1.6311   -0.4257 C.ar    1  UNL1       -0.0491
     29 C           0.4021   -0.7751    0.4269 C.3     1  UNL1        0.0834
     30 C          -0.3714    0.4480    0.8728 C.3     1  UNL1       -0.0393
     31 N           5.6182    1.1281    0.5753 N.ar    1  UNL1       -0.2488
     32 H           6.9274    3.5933    0.8872 H       1  UNL1        0.0292
     33 H           8.2294    3.0694   -0.2713 H       1  UNL1        0.0292
     34 H           6.5803    3.3518   -0.9030 H       1  UNL1        0.0292
     35 H           8.8061    0.9133   -0.2836 H       1  UNL1        0.0635
     36 H           8.3085   -1.5165    0.0547 H       1  UNL1        0.0619
     37 H           5.9944   -2.1932    0.7497 H       1  UNL1        0.0640
     38 H           2.5758    1.0017   -1.1138 H       1  UNL1        0.0508
     39 H           3.7319   -0.2632   -1.5907 H       1  UNL1        0.0508
     40 H           1.9787   -1.9608   -1.8030 H       1  UNL1        0.0482
     41 H           1.5822   -0.5023   -2.7511 H       1  UNL1        0.0482
     42 H          -2.3482    1.2529   -2.0945 H       1  UNL1        0.0625
     43 H          -4.6823    1.5082   -1.2150 H       1  UNL1        0.0624
     44 H          -5.8078    1.9772    0.4121 H       1  UNL1        0.0624
     45 H          -8.0875    2.4422    1.2521 H       1  UNL1        0.0618
     46 H          -9.6441    0.6549    1.6018 H       1  UNL1        0.0618
     47 H          -8.9635   -1.6818    1.1187 H       1  UNL1        0.0618
     48 H          -6.6987   -2.1659    0.2780 H       1  UNL1        0.0624
     49 H          -4.4143   -2.2655    0.6662 H       1  UNL1        0.0624
     50 H          -2.1222   -2.5238   -0.2005 H       1  UNL1        0.0625
     51 H          -0.1012   -1.7172    0.7831 H       1  UNL1        0.0579
     52 H          -0.5046    1.1970    0.0678 H       1  UNL1        0.0252
     53 H           0.2728    0.9977    1.6323 H       1  UNL1        0.0252
     54 H          -1.3357    0.1855    1.3617 H       1  UNL1        0.0252
@<TRIPOS>BOND
     1     1     2    1
     2     2     3   ar
     3     3     4   ar
     4     4     5   ar
     5     5     6   ar
     6     6     7    1
     7     7     8   ar
     8     8     9   ar
     9     9    10   ar
    10    10    11   ar
    11    11    12    1
    12    12    13    1
    13    13    14    1
    14    14    15   am
    15    15    16    2
    16    15    17    1
    17    17    18   ar
    18    18    19   ar
    19    19    20   ar
    20    20    21    1
    21    21    22   ar
    22    22    23   ar
    23    23    24   ar
    24    24    25   ar
    25    25    26   ar
    26    20    27   ar
    27    27    28   ar
    28    14    29    1
    29    29    30    1
    30     6    31   ar
    31    31     2   ar
    32    11     7   ar
    33    28    17   ar
    34    29    10    1
    35    26    21   ar
    36     1    32    1
    37     1    33    1
    38     1    34    1
    39     3    35    1
    40     4    36    1
    41     5    37    1
    42    12    38    1
    43    12    39    1
    44    13    40    1
    45    13    41    1
    46    18    42    1
    47    19    43    1
    48    22    44    1
    49    23    45    1
    50    24    46    1
    51    25    47    1
    52    26    48    1
    53    27    49    1
    54    28    50    1
    55    29    51    1
    56    30    52    1
    57    30    53    1
    58    30    54    1
