
     RDKit          3D

 58 62  0  0  0  0  0  0  0  0999 V2000
   -1.7568    3.1971   -1.6004 C   0  0  0  0  0  0  0  0  0  0  0  0
   -1.1250    1.9710   -1.8615 O   0  0  0  0  0  0  0  0  0  0  0  0
   -1.6468    0.8220   -1.2837 C   0  0  0  0  0  0  0  0  0  0  0  0
   -2.7761    0.8656   -0.4570 C   0  0  0  0  0  0  0  0  0  0  0  0
   -3.2376   -0.3232    0.0829 C   0  0  0  0  0  0  0  0  0  0  0  0
   -4.4103   -0.2788    0.9414 C   0  0  0  0  0  0  0  0  0  0  0  0
   -5.5166    0.4607    0.5835 C   0  0  0  0  0  0  0  0  0  0  0  0
   -6.6550    0.5273    1.3774 C   0  0  0  0  0  0  0  0  0  0  0  0
   -6.6393   -0.1862    2.5594 C   0  0  0  0  0  0  0  0  0  0  0  0
   -8.0579   -0.1448    3.6184 Cl  0  0  0  0  0  0  0  0  0  0  0  0
   -5.5459   -0.9365    2.9457 C   0  0  0  0  0  0  0  0  0  0  0  0
   -5.5427   -1.6969    4.2161 C   0  0  0  0  0  0  0  0  0  0  0  0
   -4.4179   -0.9854    2.1303 C   0  0  0  0  0  0  0  0  0  0  0  0
   -2.6261   -1.5221   -0.1678 C   0  0  0  0  0  0  0  0  0  0  0  0
   -3.1243   -2.6634    0.3913 F   0  0  0  0  0  0  0  0  0  0  0  0
   -1.5156   -1.5298   -0.9865 C   0  0  0  0  0  0  0  0  0  0  0  0
   -1.0147   -0.3750   -1.5498 C   0  0  0  0  0  0  0  0  0  0  0  0
    0.1301   -0.3877   -2.3931 N   0  0  0  0  0  0  0  0  0  0  0  0
    0.0556   -0.9183   -3.6368 C   0  0  0  0  0  0  0  0  0  0  0  0
   -1.0544   -1.3865   -3.9932 O   0  0  0  0  0  0  0  0  0  0  0  0
    1.0972   -0.9728   -4.5090 C   0  0  0  0  0  0  0  0  0  0  0  0
    2.3138   -0.4634   -4.1274 C   0  0  0  0  0  0  0  0  0  0  0  0
    2.3952    0.0824   -2.8516 C   0  0  0  0  0  0  0  0  0  0  0  0
    3.5921    0.5961   -2.4454 C   0  0  0  0  0  0  0  0  0  0  0  0
    3.7589    1.1589   -1.1885 C   0  0  0  0  0  0  0  0  0  0  0  0
    5.3326    1.7909   -0.7868 S   0  0  0  0  0  6  0  0  0  0  0  0
    5.9446    2.3211   -2.0585 O   0  0  0  0  0  0  0  0  0  0  0  0
    5.2372    2.8988    0.2308 O   0  0  0  0  0  0  0  0  0  0  0  0
    6.3095    0.4983   -0.2073 N   0  0  0  0  0  0  0  0  0  0  0  0
    5.9245   -0.1957    0.9553 C   0  0  0  0  0  0  0  0  0  0  0  0
    6.7214   -1.2174    1.3874 N   0  0  0  0  0  0  0  0  0  0  0  0
    6.4066   -1.9063    2.4818 C   0  0  0  0  0  0  0  0  0  0  0  0
    5.2665   -1.6221    3.2272 C   0  0  0  0  0  0  0  0  0  0  0  0
    4.4855   -0.5864    2.7640 C   0  0  0  0  0  0  0  0  0  0  0  0
    4.8383    0.0730    1.6678 N   0  0  0  0  0  0  0  0  0  0  0  0
    2.6798    1.1924   -0.3419 C   0  0  0  0  0  0  0  0  0  0  0  0
    1.4565    0.6721   -0.7450 C   0  0  0  0  0  0  0  0  0  0  0  0
    1.3171    0.1178   -2.0001 C   0  0  0  0  0  0  0  0  0  0  0  0
   -2.7141    3.3247   -2.1387 H   0  0  0  0  0  0  0  0  0  0  0  0
   -1.0505    3.9980   -1.9590 H   0  0  0  0  0  0  0  0  0  0  0  0
   -1.9599    3.3741   -0.5257 H   0  0  0  0  0  0  0  0  0  0  0  0
   -3.2498    1.8151   -0.2663 H   0  0  0  0  0  0  0  0  0  0  0  0
   -5.5655    1.0360   -0.3408 H   0  0  0  0  0  0  0  0  0  0  0  0
   -7.5284    1.1123    1.0928 H   0  0  0  0  0  0  0  0  0  0  0  0
   -5.8218   -2.7454    4.1093 H   0  0  0  0  0  0  0  0  0  0  0  0
   -6.3138   -1.2078    4.8752 H   0  0  0  0  0  0  0  0  0  0  0  0
   -4.5866   -1.5979    4.7673 H   0  0  0  0  0  0  0  0  0  0  0  0
   -3.5861   -1.5820    2.4674 H   0  0  0  0  0  0  0  0  0  0  0  0
   -1.0427   -2.4758   -1.1772 H   0  0  0  0  0  0  0  0  0  0  0  0
    0.9614   -1.4103   -5.4817 H   0  0  0  0  0  0  0  0  0  0  0  0
    3.1752   -0.4870   -4.7964 H   0  0  0  0  0  0  0  0  0  0  0  0
    4.4430    0.5662   -3.1220 H   0  0  0  0  0  0  0  0  0  0  0  0
    7.1927    0.2299   -0.7240 H   0  0  0  0  0  0  0  0  0  0  0  0
    7.0181   -2.7227    2.8510 H   0  0  0  0  0  0  0  0  0  0  0  0
    5.0208   -2.1871    4.1131 H   0  0  0  0  0  0  0  0  0  0  0  0
    3.5997   -0.3303    3.3022 H   0  0  0  0  0  0  0  0  0  0  0  0
    2.7917    1.6381    0.6530 H   0  0  0  0  0  0  0  0  0  0  0  0
    0.6165    0.7050   -0.0688 H   0  0  0  0  0  0  0  0  0  0  0  0
  1  2  1  0
  2  3  1  0
  3  4  2  0
  4  5  1  0
  5  6  1  0
  6  7  2  0
  7  8  1  0
  8  9  2  0
  9 10  1  0
  9 11  1  0
 11 12  1  0
 11 13  2  0
  5 14  2  0
 14 15  1  0
 14 16  1  0
 16 17  2  0
 17 18  1  0
 18 19  1  0
 19 20  2  0
 19 21  1  0
 21 22  2  0
 22 23  1  0
 23 24  2  0
 24 25  1  0
 25 26  1  0
 26 27  2  0
 26 28  2  0
 26 29  1  0
 29 30  1  0
 30 31  2  0
 31 32  1  0
 32 33  2  0
 33 34  1  0
 34 35  2  0
 25 36  2  0
 36 37  1  0
 37 38  2  0
 17  3  1  0
 38 18  1  0
 13  6  1  0
 38 23  1  0
 35 30  1  0
  1 39  1  0
  1 40  1  0
  1 41  1  0
  4 42  1  0
  7 43  1  0
  8 44  1  0
 12 45  1  0
 12 46  1  0
 12 47  1  0
 13 48  1  0
 16 49  1  0
 21 50  1  0
 22 51  1  0
 24 52  1  0
 29 53  1  0
 32 54  1  0
 33 55  1  0
 34 56  1  0
 36 57  1  0
 37 58  1  0
M  END
$$$$
