@<TRIPOS>MOLECULE
*****
 58 62 0 0 0
SMALL
GASTEIGER

@<TRIPOS>ATOM
      1 C          -1.7568    3.1971   -1.6004 C.3     1  UNL1        0.0789
      2 O          -1.1250    1.9710   -1.8615 O.3     1  UNL1       -0.4930
      3 C          -1.6468    0.8220   -1.2837 C.ar    1  UNL1        0.1446
      4 C          -2.7761    0.8656   -0.4570 C.ar    1  UNL1       -0.0074
      5 C          -3.2376   -0.3232    0.0829 C.ar    1  UNL1        0.0209
      6 C          -4.4103   -0.2788    0.9414 C.ar    1  UNL1       -0.0147
      7 C          -5.5166    0.4607    0.5835 C.ar    1  UNL1       -0.0525
      8 C          -6.6550    0.5273    1.3774 C.ar    1  UNL1       -0.0426
      9 C          -6.6393   -0.1862    2.5594 C.ar    1  UNL1        0.0439
     10 CL         -8.0579   -0.1448    3.6184 Cl      1  UNL1       -0.0833
     11 C          -5.5459   -0.9365    2.9457 C.ar    1  UNL1       -0.0316
     12 C          -5.5427   -1.6969    4.2161 C.3     1  UNL1       -0.0383
     13 C          -4.4179   -0.9854    2.1303 C.ar    1  UNL1       -0.0496
     14 C          -2.6261   -1.5221   -0.1678 C.ar    1  UNL1        0.1333
     15 F          -3.1243   -2.6634    0.3913 F       1  UNL1       -0.2048
     16 C          -1.5156   -1.5298   -0.9865 C.ar    1  UNL1        0.0017
     17 C          -1.0147   -0.3750   -1.5498 C.ar    1  UNL1        0.0943
     18 N           0.1301   -0.3877   -2.3931 N.ar    1  UNL1       -0.2733
     19 C           0.0556   -0.9183   -3.6368 C.ar    1  UNL1        0.2563
     20 O          -1.0544   -1.3865   -3.9932 O.2     1  UNL1       -0.2673
     21 C           1.0972   -0.9728   -4.5090 C.ar    1  UNL1        0.0039
     22 C           2.3138   -0.4634   -4.1274 C.ar    1  UNL1       -0.0474
     23 C           2.3952    0.0824   -2.8516 C.ar    1  UNL1        0.0009
     24 C           3.5921    0.5961   -2.4454 C.ar    1  UNL1       -0.0259
     25 C           3.7589    1.1589   -1.1885 C.ar    1  UNL1        0.1093
     26 S           5.3326    1.7909   -0.7868 S.O2    1  UNL1        0.0746
     27 O           5.9446    2.3211   -2.0585 O.2     1  UNL1       -0.1499
     28 O           5.2372    2.8988    0.2308 O.2     1  UNL1       -0.1499
     29 N           6.3095    0.4983   -0.2073 N.pl3   1  UNL1       -0.1836
     30 C           5.9245   -0.1957    0.9553 C.ar    1  UNL1        0.2347
     31 N           6.7214   -1.2174    1.3874 N.ar    1  UNL1       -0.2217
     32 C           6.4066   -1.9063    2.4818 C.ar    1  UNL1        0.0327
     33 C           5.2665   -1.6221    3.2272 C.ar    1  UNL1       -0.0253
     34 C           4.4855   -0.5864    2.7640 C.ar    1  UNL1        0.0327
     35 N           4.8383    0.0730    1.6678 N.ar    1  UNL1       -0.2217
     36 C           2.6798    1.1924   -0.3419 C.ar    1  UNL1       -0.0331
     37 C           1.4565    0.6721   -0.7450 C.ar    1  UNL1       -0.0353
     38 C           1.3171    0.1178   -2.0001 C.ar    1  UNL1        0.0574
     39 H          -2.7141    3.3247   -2.1387 H       1  UNL1        0.0660
     40 H          -1.0505    3.9980   -1.9590 H       1  UNL1        0.0660
     41 H          -1.9599    3.3741   -0.5257 H       1  UNL1        0.0660
     42 H          -3.2498    1.8151   -0.2663 H       1  UNL1        0.0662
     43 H          -5.5655    1.0360   -0.3408 H       1  UNL1        0.0624
     44 H          -7.5284    1.1123    1.0928 H       1  UNL1        0.0632
     45 H          -5.8218   -2.7454    4.1093 H       1  UNL1        0.0278
     46 H          -6.3138   -1.2078    4.8752 H       1  UNL1        0.0278
     47 H          -4.5866   -1.5979    4.7673 H       1  UNL1        0.0278
     48 H          -3.5861   -1.5820    2.4674 H       1  UNL1        0.0627
     49 H          -1.0427   -2.4758   -1.1772 H       1  UNL1        0.0668
     50 H           0.9614   -1.4103   -5.4817 H       1  UNL1        0.0672
     51 H           3.1752   -0.4870   -4.7964 H       1  UNL1        0.0626
     52 H           4.4430    0.5662   -3.1220 H       1  UNL1        0.0644
     53 H           7.1927    0.2299   -0.7240 H       1  UNL1        0.1767
     54 H           7.0181   -2.7227    2.8510 H       1  UNL1        0.0831
     55 H           5.0208   -2.1871    4.1131 H       1  UNL1        0.0648
     56 H           3.5997   -0.3303    3.3022 H       1  UNL1        0.0831
     57 H           2.7917    1.6381    0.6530 H       1  UNL1        0.0638
     58 H           0.6165    0.7050   -0.0688 H       1  UNL1        0.0639
@<TRIPOS>BOND
     1     1     2    1
     2     2     3    1
     3     3     4   ar
     4     4     5   ar
     5     5     6    1
     6     6     7   ar
     7     7     8   ar
     8     8     9   ar
     9     9    10    1
    10     9    11   ar
    11    11    12    1
    12    11    13   ar
    13     5    14   ar
    14    14    15    1
    15    14    16   ar
    16    16    17   ar
    17    17    18    1
    18    18    19   ar
    19    19    20    2
    20    19    21   ar
    21    21    22   ar
    22    22    23   ar
    23    23    24   ar
    24    24    25   ar
    25    25    26    1
    26    26    27    2
    27    26    28    2
    28    26    29    1
    29    29    30    1
    30    30    31   ar
    31    31    32   ar
    32    32    33   ar
    33    33    34   ar
    34    34    35   ar
    35    25    36   ar
    36    36    37   ar
    37    37    38   ar
    38    17     3   ar
    39    38    18   ar
    40    13     6   ar
    41    38    23   ar
    42    35    30   ar
    43     1    39    1
    44     1    40    1
    45     1    41    1
    46     4    42    1
    47     7    43    1
    48     8    44    1
    49    12    45    1
    50    12    46    1
    51    12    47    1
    52    13    48    1
    53    16    49    1
    54    21    50    1
    55    22    51    1
    56    24    52    1
    57    29    53    1
    58    32    54    1
    59    33    55    1
    60    34    56    1
    61    36    57    1
    62    37    58    1
