@<TRIPOS>MOLECULE
*****
 38 40 0 0 0
SMALL
GASTEIGER

@<TRIPOS>ATOM
      1 O          -8.3697   -0.4938   -0.0623 O.2     1  UNL1        0.0414
      2 N          -7.3933   -0.2705   -0.7887 N.pl3   1  UNL1        0.0796
      3 O          -7.5770   -0.1246   -2.1336 O.co2   1  UNL1       -0.5760
      4 C          -6.0996   -0.1716   -0.2188 C.ar    1  UNL1        0.2732
      5 C          -5.9059   -0.3111    1.1440 C.ar    1  UNL1        0.0162
      6 C          -4.6405   -0.2107    1.6553 C.ar    1  UNL1       -0.0461
      7 C          -3.5609    0.0230    0.8623 C.ar    1  UNL1        0.0013
      8 C          -2.1861    0.1190    1.4576 C.ar    1  UNL1        0.0803
      9 C          -1.9645   -0.0246    2.8046 C.ar    1  UNL1        0.0049
     10 S          -0.1568    0.1777    2.9280 S.2     1  UNL1       -0.0586
     11 C           0.0053    0.4310    1.0830 C.ar    1  UNL1        0.1783
     12 N           1.3587    0.6516    0.5769 N.pl3   1  UNL1       -0.2153
     13 N           1.8773   -0.1709   -0.4020 N.2     1  UNL1       -0.1898
     14 C           3.0822   -0.0502   -0.7951 C.2     1  UNL1        0.0369
     15 C           3.9871    0.9796   -0.2206 C.3     1  UNL1       -0.0128
     16 C           5.3961    0.6129   -0.6196 C.3     1  UNL1       -0.0479
     17 C           5.6359   -0.8471   -0.3498 C.3     1  UNL1       -0.0524
     18 C           4.7979   -1.7331   -1.2468 C.3     1  UNL1       -0.0479
     19 C           3.6727   -0.9273   -1.8576 C.3     1  UNL1       -0.0128
     20 N          -1.0962    0.3403    0.7493 N.ar    1  UNL1       -0.2236
     21 C          -3.7756    0.1587   -0.4889 C.ar    1  UNL1       -0.0461
     22 C          -5.0254    0.0672   -1.0570 C.ar    1  UNL1        0.0162
     23 H          -6.7697   -0.4980    1.7823 H       1  UNL1        0.0685
     24 H          -4.4825   -0.3198    2.7297 H       1  UNL1        0.0626
     25 H          -2.6482   -0.2153    3.6698 H       1  UNL1        0.0716
     26 H           1.8796    1.4196    0.9738 H       1  UNL1        0.1765
     27 H           3.6590    1.9479   -0.6140 H       1  UNL1        0.0325
     28 H           3.9473    0.9500    0.8955 H       1  UNL1        0.0325
     29 H           6.0955    1.1891    0.0008 H       1  UNL1        0.0269
     30 H           5.5822    0.7965   -1.6911 H       1  UNL1        0.0269
     31 H           6.6831   -1.1186   -0.5117 H       1  UNL1        0.0265
     32 H           5.3431   -1.0477    0.6989 H       1  UNL1        0.0265
     33 H           4.3470   -2.5869   -0.6917 H       1  UNL1        0.0269
     34 H           5.4050   -2.1830   -2.0578 H       1  UNL1        0.0269
     35 H           2.9424   -1.6031   -2.3078 H       1  UNL1        0.0325
     36 H           4.0745   -0.2624   -2.6550 H       1  UNL1        0.0325
     37 H          -2.9201    0.3450   -1.1205 H       1  UNL1        0.0626
     38 H          -5.1999    0.1741   -2.1212 H       1  UNL1        0.0685
@<TRIPOS>UNITY_ATOM_ATTR
2 1
charge 1
3 1
charge -1
@<TRIPOS>BOND
     1     1     2    2
     2     2     3    1
     3     2     4    1
     4     4     5   ar
     5     5     6   ar
     6     6     7   ar
     7     7     8    1
     8     8     9   ar
     9     9    10   ar
    10    10    11   ar
    11    11    12    1
    12    12    13    1
    13    13    14    2
    14    14    15    1
    15    15    16    1
    16    16    17    1
    17    17    18    1
    18    18    19    1
    19    11    20   ar
    20     7    21   ar
    21    21    22   ar
    22    22     4   ar
    23    20     8   ar
    24    19    14    1
    25     5    23    1
    26     6    24    1
    27     9    25    1
    28    12    26    1
    29    15    27    1
    30    15    28    1
    31    16    29    1
    32    16    30    1
    33    17    31    1
    34    17    32    1
    35    18    33    1
    36    18    34    1
    37    19    35    1
    38    19    36    1
    39    21    37    1
    40    22    38    1
