
     RDKit          3D

 38 40  0  0  0  0  0  0  0  0999 V2000
   -8.3697   -0.4938   -0.0623 O   0  0  0  0  0  0  0  0  0  0  0  0
   -7.3933   -0.2705   -0.7887 N   0  0  0  0  0  4  0  0  0  0  0  0
   -7.5770   -0.1246   -2.1336 O   0  0  0  0  0  1  0  0  0  0  0  0
   -6.0996   -0.1716   -0.2188 C   0  0  0  0  0  0  0  0  0  0  0  0
   -5.9059   -0.3111    1.1440 C   0  0  0  0  0  0  0  0  0  0  0  0
   -4.6405   -0.2107    1.6553 C   0  0  0  0  0  0  0  0  0  0  0  0
   -3.5609    0.0230    0.8623 C   0  0  0  0  0  0  0  0  0  0  0  0
   -2.1861    0.1190    1.4576 C   0  0  0  0  0  0  0  0  0  0  0  0
   -1.9645   -0.0246    2.8046 C   0  0  0  0  0  0  0  0  0  0  0  0
   -0.1568    0.1777    2.9280 S   0  0  0  0  0  0  0  0  0  0  0  0
    0.0053    0.4310    1.0830 C   0  0  0  0  0  0  0  0  0  0  0  0
    1.3587    0.6516    0.5769 N   0  0  0  0  0  0  0  0  0  0  0  0
    1.8773   -0.1709   -0.4020 N   0  0  0  0  0  0  0  0  0  0  0  0
    3.0822   -0.0502   -0.7951 C   0  0  0  0  0  0  0  0  0  0  0  0
    3.9871    0.9796   -0.2206 C   0  0  0  0  0  0  0  0  0  0  0  0
    5.3961    0.6129   -0.6196 C   0  0  0  0  0  0  0  0  0  0  0  0
    5.6359   -0.8471   -0.3498 C   0  0  0  0  0  0  0  0  0  0  0  0
    4.7979   -1.7331   -1.2468 C   0  0  0  0  0  0  0  0  0  0  0  0
    3.6727   -0.9273   -1.8576 C   0  0  0  0  0  0  0  0  0  0  0  0
   -1.0962    0.3403    0.7493 N   0  0  0  0  0  0  0  0  0  0  0  0
   -3.7756    0.1587   -0.4889 C   0  0  0  0  0  0  0  0  0  0  0  0
   -5.0254    0.0672   -1.0570 C   0  0  0  0  0  0  0  0  0  0  0  0
   -6.7697   -0.4980    1.7823 H   0  0  0  0  0  0  0  0  0  0  0  0
   -4.4825   -0.3198    2.7297 H   0  0  0  0  0  0  0  0  0  0  0  0
   -2.6482   -0.2153    3.6698 H   0  0  0  0  0  0  0  0  0  0  0  0
    1.8796    1.4196    0.9738 H   0  0  0  0  0  0  0  0  0  0  0  0
    3.6590    1.9479   -0.6140 H   0  0  0  0  0  0  0  0  0  0  0  0
    3.9473    0.9500    0.8955 H   0  0  0  0  0  0  0  0  0  0  0  0
    6.0955    1.1891    0.0008 H   0  0  0  0  0  0  0  0  0  0  0  0
    5.5822    0.7965   -1.6911 H   0  0  0  0  0  0  0  0  0  0  0  0
    6.6831   -1.1186   -0.5117 H   0  0  0  0  0  0  0  0  0  0  0  0
    5.3431   -1.0477    0.6989 H   0  0  0  0  0  0  0  0  0  0  0  0
    4.3470   -2.5869   -0.6917 H   0  0  0  0  0  0  0  0  0  0  0  0
    5.4050   -2.1830   -2.0578 H   0  0  0  0  0  0  0  0  0  0  0  0
    2.9424   -1.6031   -2.3078 H   0  0  0  0  0  0  0  0  0  0  0  0
    4.0745   -0.2624   -2.6550 H   0  0  0  0  0  0  0  0  0  0  0  0
   -2.9201    0.3450   -1.1205 H   0  0  0  0  0  0  0  0  0  0  0  0
   -5.1999    0.1741   -2.1212 H   0  0  0  0  0  0  0  0  0  0  0  0
  1  2  2  0
  2  3  1  0
  2  4  1  0
  4  5  2  0
  5  6  1  0
  6  7  2  0
  7  8  1  0
  8  9  2  0
  9 10  1  0
 10 11  1  0
 11 12  1  0
 12 13  1  0
 13 14  2  3
 14 15  1  0
 15 16  1  0
 16 17  1  0
 17 18  1  0
 18 19  1  0
 11 20  2  0
  7 21  1  0
 21 22  2  0
 22  4  1  0
 20  8  1  0
 19 14  1  0
  5 23  1  0
  6 24  1  0
  9 25  1  0
 12 26  1  0
 15 27  1  0
 15 28  1  0
 16 29  1  0
 16 30  1  0
 17 31  1  0
 17 32  1  0
 18 33  1  0
 18 34  1  0
 19 35  1  0
 19 36  1  0
 21 37  1  0
 22 38  1  0
M  CHG  2   2   1   3  -1
M  END
$$$$
