@<TRIPOS>MOLECULE
*****
 46 50 0 0 0
SMALL
GASTEIGER

@<TRIPOS>ATOM
      1 N           3.5262   -4.0666   -0.6765 N.1     1  UNL1       -0.1893
      2 C           3.4282   -3.2047    0.1112 C.1     1  UNL1        0.1192
      3 C           3.3127   -2.1343    1.0567 C.ar    1  UNL1        0.1438
      4 C           4.1749   -1.9592    2.1446 C.ar    1  UNL1        0.0643
      5 N           3.7387   -0.8753    2.7702 N.ar    1  UNL1       -0.2348
      6 C           2.6757   -0.3783    2.1442 C.ar    1  UNL1        0.1385
      7 C           1.8963    0.7233    2.4254 C.ar    1  UNL1       -0.0181
      8 C           0.8309    1.0245    1.6005 C.ar    1  UNL1       -0.0477
      9 C           0.5286    0.2411    0.4942 C.ar    1  UNL1        0.0173
     10 C          -0.5861    0.5533   -0.3689 C.ar    1  UNL1        0.0781
     11 C          -0.7015    1.7555   -1.0694 C.ar    1  UNL1        0.0967
     12 C           0.2386    2.8743   -1.0571 C.ar    1  UNL1        0.0026
     13 C           1.5299    2.7750   -1.5011 C.ar    1  UNL1       -0.0498
     14 C           2.3703    3.8581   -1.4666 C.ar    1  UNL1       -0.0258
     15 C           1.9604    5.0931   -0.9864 C.ar    1  UNL1        0.1234
     16 F           2.7596    6.1805   -0.9377 F       1  UNL1       -0.2055
     17 C           0.6628    5.2094   -0.5356 C.ar    1  UNL1       -0.0258
     18 C          -0.1838    4.1146   -0.5715 C.ar    1  UNL1       -0.0498
     19 N          -1.8603    1.6384   -1.7402 N.ar    1  UNL1       -0.2351
     20 C          -2.4151    0.4417   -1.4661 C.ar    1  UNL1        0.0973
     21 N          -1.6356   -0.2473   -0.6140 N.ar    1  UNL1       -0.3265
     22 C          -1.9166   -1.5742   -0.1012 C.3     1  UNL1        0.0360
     23 C          -3.2876   -1.6295    0.5595 C.3     1  UNL1       -0.0321
     24 C          -3.5862   -3.0953    0.5381 C.3     1  UNL1       -0.0511
     25 C          -2.8663   -3.6570   -0.6595 C.3     1  UNL1       -0.0511
     26 C          -2.0897   -2.5106   -1.2681 C.3     1  UNL1       -0.0321
     27 C           1.3387   -0.8499    0.2564 C.ar    1  UNL1        0.0216
     28 N           2.3896   -1.1440    1.0732 N.ar    1  UNL1       -0.2906
     29 H           5.0165   -2.5506    2.4419 H       1  UNL1        0.0859
     30 H           2.1606    1.3082    3.2926 H       1  UNL1        0.0654
     31 H           0.2483    1.8980    1.8607 H       1  UNL1        0.0626
     32 H           1.8899    1.8448   -1.8789 H       1  UNL1        0.0625
     33 H           3.4082    3.8188   -1.8125 H       1  UNL1        0.0646
     34 H           0.2791    6.1565   -0.1449 H       1  UNL1        0.0646
     35 H          -1.1984    4.2027   -0.2202 H       1  UNL1        0.0625
     36 H          -3.3545    0.0766   -1.8687 H       1  UNL1        0.1029
     37 H          -1.1978   -1.9111    0.6421 H       1  UNL1        0.0528
     38 H          -3.9681   -1.0283   -0.0646 H       1  UNL1        0.0285
     39 H          -3.2484   -1.1943    1.5797 H       1  UNL1        0.0285
     40 H          -4.6903   -3.2916    0.4762 H       1  UNL1        0.0266
     41 H          -3.2589   -3.5529    1.4898 H       1  UNL1        0.0266
     42 H          -2.1078   -4.3905   -0.2843 H       1  UNL1        0.0266
     43 H          -3.5320   -4.1448   -1.3804 H       1  UNL1        0.0266
     44 H          -1.1479   -2.8819   -1.6881 H       1  UNL1        0.0285
     45 H          -2.7231   -1.9920   -2.0192 H       1  UNL1        0.0285
     46 H           1.1911   -1.5239   -0.5755 H       1  UNL1        0.0820
@<TRIPOS>BOND
     1     1     2    3
     2     2     3    1
     3     3     4   ar
     4     4     5   ar
     5     5     6   ar
     6     6     7   ar
     7     7     8   ar
     8     8     9   ar
     9     9    10    1
    10    10    11   ar
    11    11    12    1
    12    12    13   ar
    13    13    14   ar
    14    14    15   ar
    15    15    16    1
    16    15    17   ar
    17    17    18   ar
    18    11    19   ar
    19    19    20   ar
    20    20    21   ar
    21    21    22    1
    22    22    23    1
    23    23    24    1
    24    24    25    1
    25    25    26    1
    26     9    27   ar
    27    27    28   ar
    28    28     3   ar
    29    28     6   ar
    30    21    10   ar
    31    26    22    1
    32    18    12   ar
    33     4    29    1
    34     7    30    1
    35     8    31    1
    36    13    32    1
    37    14    33    1
    38    17    34    1
    39    18    35    1
    40    20    36    1
    41    22    37    1
    42    23    38    1
    43    23    39    1
    44    24    40    1
    45    24    41    1
    46    25    42    1
    47    25    43    1
    48    26    44    1
    49    26    45    1
    50    27    46    1
