@<TRIPOS>MOLECULE
*****
 69 71 0 0 0
SMALL
GASTEIGER

@<TRIPOS>ATOM
      1 C           7.6428   -1.5261    1.0972 C.3     1  UNL1       -0.0130
      2 N           6.5383   -0.7041    0.5251 N.3     1  UNL1       -0.3069
      3 C           5.5114   -0.7742    1.5802 C.3     1  UNL1       -0.0130
      4 C           6.0971   -1.3348   -0.6731 C.3     1  UNL1        0.0141
      5 C           5.1321   -0.5852   -1.5280 C.3     1  UNL1        0.0275
      6 N           3.8976   -0.2122   -0.9836 N.am    1  UNL1       -0.2987
      7 C           2.7585   -1.1059   -1.0755 C.3     1  UNL1        0.0305
      8 C           1.5684   -0.4030   -1.6078 C.3     1  UNL1        0.0308
      9 N           0.8592    0.4888   -0.6935 N.am    1  UNL1       -0.2955
     10 C          -0.4579    0.0830   -0.3678 C.2     1  UNL1        0.2490
     11 O          -0.8118   -1.0781   -0.8030 O.2     1  UNL1       -0.2699
     12 C          -1.4481    0.8557    0.4118 C.ar    1  UNL1        0.0657
     13 C          -1.5695    2.2003    0.4720 C.ar    1  UNL1       -0.0370
     14 C          -2.5705    2.7745    1.1500 C.ar    1  UNL1       -0.0023
     15 C          -2.9402    4.1916    1.3793 C.3     1  UNL1       -0.0064
     16 C          -3.8842    4.7104    0.3238 C.3     1  UNL1       -0.0556
     17 C          -3.4962    4.3281    2.7758 C.3     1  UNL1       -0.0556
     18 C          -1.6682    5.0044    1.3016 C.3     1  UNL1       -0.0556
     19 S          -3.4994    1.3640    1.8084 S.2     1  UNL1       -0.0771
     20 C          -2.4247    0.1365    1.0906 C.ar    1  UNL1        0.0853
     21 N          -2.5917   -1.2710    1.2213 N.am    1  UNL1       -0.2629
     22 C          -3.3913   -1.8955    0.2063 C.2     1  UNL1        0.3085
     23 O          -3.8943   -1.1988   -0.7229 O.2     1  UNL1       -0.2521
     24 N          -3.6540   -3.2926    0.1897 N.am    1  UNL1       -0.2678
     25 C          -4.4455   -3.8221   -0.8633 C.ar    1  UNL1        0.0546
     26 C          -3.8605   -4.2672   -2.0179 C.ar    1  UNL1       -0.0389
     27 C          -4.6139   -4.7779   -3.0484 C.ar    1  UNL1       -0.0585
     28 C          -5.9800   -4.8439   -2.9211 C.ar    1  UNL1       -0.0419
     29 C          -6.5820   -4.4024   -1.7720 C.ar    1  UNL1        0.0610
     30 CL         -8.3326   -4.4943   -1.6254 Cl      1  UNL1       -0.0820
     31 C          -5.8093   -3.8831   -0.7241 C.ar    1  UNL1        0.0804
     32 CL         -6.6091   -3.3300    0.7262 Cl      1  UNL1       -0.0801
     33 C           1.3594    1.6665   -0.0644 C.3     1  UNL1        0.0233
     34 C           2.7241    1.4924    0.5299 C.3     1  UNL1        0.0399
     35 C           3.7977    1.0726   -0.3630 C.2     1  UNL1        0.2171
     36 O           4.6997    1.9089   -0.5989 O.2     1  UNL1       -0.2755
     37 H           8.5815   -1.2623    0.5827 H       1  UNL1        0.0391
     38 H           7.3822   -2.5836    0.9316 H       1  UNL1        0.0391
     39 H           7.7749   -1.3077    2.1649 H       1  UNL1        0.0391
     40 H           5.8799   -1.3943    2.4315 H       1  UNL1        0.0391
     41 H           4.6209   -1.2276    1.1090 H       1  UNL1        0.0391
     42 H           5.2684    0.2502    1.9377 H       1  UNL1        0.0391
     43 H           5.7345   -2.3710   -0.4503 H       1  UNL1        0.0442
     44 H           7.0078   -1.5105   -1.3260 H       1  UNL1        0.0442
     45 H           5.7247    0.3273   -1.8972 H       1  UNL1        0.0477
     46 H           5.0272   -1.1849   -2.4858 H       1  UNL1        0.0477
     47 H           3.0265   -1.9043   -1.7943 H       1  UNL1        0.0480
     48 H           2.5263   -1.5953   -0.1255 H       1  UNL1        0.0480
     49 H           1.7729    0.1895   -2.5290 H       1  UNL1        0.0480
     50 H           0.8314   -1.1858   -1.9298 H       1  UNL1        0.0480
     51 H          -0.8711    2.9042   -0.0832 H       1  UNL1        0.0634
     52 H          -4.9490    4.4975    0.6162 H       1  UNL1        0.0238
     53 H          -3.8064    5.8156    0.2689 H       1  UNL1        0.0238
     54 H          -3.6531    4.2648   -0.6654 H       1  UNL1        0.0238
     55 H          -4.5059    3.9011    2.7821 H       1  UNL1        0.0238
     56 H          -3.4891    5.3980    3.1156 H       1  UNL1        0.0238
     57 H          -2.8729    3.6750    3.4292 H       1  UNL1        0.0238
     58 H          -1.5781    5.7410    2.1234 H       1  UNL1        0.0238
     59 H          -1.6237    5.5714    0.3303 H       1  UNL1        0.0238
     60 H          -0.7612    4.3665    1.3448 H       1  UNL1        0.0238
     61 H          -2.1816   -1.8317    1.9783 H       1  UNL1        0.1569
     62 H          -3.2449   -3.8680    0.9643 H       1  UNL1        0.1564
     63 H          -2.7749   -4.1957   -2.0752 H       1  UNL1        0.0637
     64 H          -4.0872   -5.1089   -3.9246 H       1  UNL1        0.0619
     65 H          -6.5561   -5.2530   -3.7547 H       1  UNL1        0.0633
     66 H           0.7384    1.8960    0.8768 H       1  UNL1        0.0469
     67 H           1.3528    2.5640   -0.6894 H       1  UNL1        0.0469
     68 H           2.6523    0.8466    1.4488 H       1  UNL1        0.0374
     69 H           3.0014    2.5009    0.9592 H       1  UNL1        0.0374
@<TRIPOS>BOND
     1     1     2    1
     2     2     3    1
     3     2     4    1
     4     4     5    1
     5     5     6    1
     6     6     7    1
     7     7     8    1
     8     8     9    1
     9     9    10   am
    10    10    11    2
    11    10    12    1
    12    12    13   ar
    13    13    14   ar
    14    14    15    1
    15    15    16    1
    16    15    17    1
    17    15    18    1
    18    14    19   ar
    19    19    20   ar
    20    20    21    1
    21    21    22   am
    22    22    23    2
    23    22    24   am
    24    24    25    1
    25    25    26   ar
    26    26    27   ar
    27    27    28   ar
    28    28    29   ar
    29    29    30    1
    30    29    31   ar
    31    31    32    1
    32     9    33    1
    33    33    34    1
    34    34    35    1
    35    35    36    2
    36    35     6   am
    37    20    12   ar
    38    31    25   ar
    39     1    37    1
    40     1    38    1
    41     1    39    1
    42     3    40    1
    43     3    41    1
    44     3    42    1
    45     4    43    1
    46     4    44    1
    47     5    45    1
    48     5    46    1
    49     7    47    1
    50     7    48    1
    51     8    49    1
    52     8    50    1
    53    13    51    1
    54    16    52    1
    55    16    53    1
    56    16    54    1
    57    17    55    1
    58    17    56    1
    59    17    57    1
    60    18    58    1
    61    18    59    1
    62    18    60    1
    63    21    61    1
    64    24    62    1
    65    26    63    1
    66    27    64    1
    67    28    65    1
    68    33    66    1
    69    33    67    1
    70    34    68    1
    71    34    69    1
