@<TRIPOS>MOLECULE
*****
 65 68 0 0 0
SMALL
GASTEIGER

@<TRIPOS>ATOM
      1 C          -3.7997    2.2242    1.9229 C.3     1  UNL1       -0.0131
      2 N          -4.9733    1.7303    1.2264 N.3     1  UNL1       -0.3083
      3 C          -6.0768    2.6392    1.3584 C.3     1  UNL1       -0.0131
      4 C          -4.5952    1.5141   -0.1568 C.3     1  UNL1       -0.0016
      5 C          -3.6095    0.3451   -0.2030 C.3     1  UNL1       -0.0382
      6 C          -3.2386    0.1460   -1.6313 C.3     1  UNL1       -0.0292
      7 C          -2.2671   -0.9707   -1.8826 C.3     1  UNL1        0.0484
      8 N          -1.0311   -0.7236   -1.1726 N.am    1  UNL1       -0.3070
      9 C           0.1985   -0.4294   -1.8233 C.2     1  UNL1        0.2336
     10 O           0.1285   -0.3987   -3.0976 O.2     1  UNL1       -0.2738
     11 C           1.4541   -0.1783   -1.1194 C.3     1  UNL1        0.0965
     12 N           2.4898    0.0821   -2.1111 N.3     1  UNL1       -0.3173
     13 C           1.4230    1.0084   -0.1874 C.3     1  UNL1       -0.0104
     14 C           2.8775    1.4628   -0.0636 C.3     1  UNL1        0.0156
     15 N           3.6251    0.2997    0.3705 N.pl3   1  UNL1       -0.3144
     16 C           5.0248    0.4159    0.4594 C.ar    1  UNL1        0.1337
     17 N           5.7986   -0.2914   -0.3815 N.ar    1  UNL1       -0.2200
     18 C           7.1468   -0.2015   -0.3435 C.ar    1  UNL1        0.1204
     19 N           7.7501    0.6078    0.5479 N.ar    1  UNL1       -0.2178
     20 C           7.0396    1.3396    1.4141 C.ar    1  UNL1        0.1432
     21 N           7.4166    2.1911    2.3710 N.ar    1  UNL1       -0.3457
     22 C           6.2995    2.6545    2.9567 C.ar    1  UNL1        0.0042
     23 C           5.1821    2.0791    2.3522 C.ar    1  UNL1       -0.0318
     24 C           5.6447    1.2392    1.3665 C.ar    1  UNL1        0.0585
     25 C           2.9871   -0.9438    0.7055 C.3     1  UNL1        0.0156
     26 C           1.9382   -1.3526   -0.3025 C.3     1  UNL1       -0.0104
     27 C          -2.8120   -2.3104   -1.6735 C.ar    1  UNL1       -0.0271
     28 C          -2.8889   -2.9063   -0.4223 C.ar    1  UNL1       -0.0554
     29 C          -3.4057   -4.1715   -0.2365 C.ar    1  UNL1       -0.0431
     30 C          -3.8670   -4.8818   -1.3295 C.ar    1  UNL1        0.0410
     31 CL         -4.5350   -6.4927   -1.1690 Cl      1  UNL1       -0.0835
     32 C          -3.8088   -4.3325   -2.5725 C.ar    1  UNL1       -0.0431
     33 C          -3.2889   -3.0697   -2.7293 C.ar    1  UNL1       -0.0554
     34 H          -4.0621    2.9122    2.7587 H       1  UNL1        0.0391
     35 H          -3.1284    2.7140    1.1898 H       1  UNL1        0.0391
     36 H          -3.2560    1.3224    2.2870 H       1  UNL1        0.0391
     37 H          -5.9444    3.3325    2.2317 H       1  UNL1        0.0391
     38 H          -6.2053    3.3058    0.4745 H       1  UNL1        0.0391
     39 H          -7.0265    2.1156    1.5022 H       1  UNL1        0.0391
     40 H          -5.4738    1.2872   -0.8031 H       1  UNL1        0.0426
     41 H          -4.1151    2.4155   -0.6107 H       1  UNL1        0.0426
     42 H          -4.1539   -0.5162    0.2334 H       1  UNL1        0.0278
     43 H          -2.7468    0.6666    0.4202 H       1  UNL1        0.0278
     44 H          -2.7630    1.0870   -1.9927 H       1  UNL1        0.0287
     45 H          -4.1634    0.0176   -2.2281 H       1  UNL1        0.0287
     46 H          -2.0192   -0.8766   -2.9777 H       1  UNL1        0.0548
     47 H          -1.0250   -0.7590   -0.1404 H       1  UNL1        0.1493
     48 H           2.0539    0.6545   -2.8672 H       1  UNL1        0.1192
     49 H           2.7305   -0.8461   -2.5295 H       1  UNL1        0.1192
     50 H           1.1025    0.7028    0.8496 H       1  UNL1        0.0303
     51 H           0.8666    1.8643   -0.5718 H       1  UNL1        0.0303
     52 H           2.9870    2.3483    0.5496 H       1  UNL1        0.0465
     53 H           3.2323    1.7007   -1.1056 H       1  UNL1        0.0465
     54 H           7.7549   -0.7815   -1.0317 H       1  UNL1        0.1048
     55 H           8.3904    2.4699    2.6422 H       1  UNL1        0.1668
     56 H           6.2271    3.3645    3.7731 H       1  UNL1        0.0807
     57 H           4.1485    2.2436    2.5971 H       1  UNL1        0.0640
     58 H           2.5052   -0.8283    1.6864 H       1  UNL1        0.0465
     59 H           3.7758   -1.7149    0.7927 H       1  UNL1        0.0465
     60 H           1.1132   -1.8545    0.2411 H       1  UNL1        0.0303
     61 H           2.3955   -2.1180   -0.9647 H       1  UNL1        0.0303
     62 H          -2.5388   -2.3852    0.4584 H       1  UNL1        0.0621
     63 H          -3.4560   -4.6184    0.7550 H       1  UNL1        0.0632
     64 H          -4.1703   -4.8782   -3.4579 H       1  UNL1        0.0632
     65 H          -3.2624   -2.6728   -3.7376 H       1  UNL1        0.0621
@<TRIPOS>BOND
     1     1     2    1
     2     2     3    1
     3     2     4    1
     4     4     5    1
     5     5     6    1
     6     6     7    1
     7     7     8    1
     8     8     9   am
     9     9    10    2
    10     9    11    1
    11    11    12    1
    12    11    13    1
    13    13    14    1
    14    14    15    1
    15    15    16    1
    16    16    17   ar
    17    17    18   ar
    18    18    19   ar
    19    19    20   ar
    20    20    21   ar
    21    21    22   ar
    22    22    23   ar
    23    23    24   ar
    24    15    25    1
    25    25    26    1
    26     7    27    1
    27    27    28   ar
    28    28    29   ar
    29    29    30   ar
    30    30    31    1
    31    30    32   ar
    32    32    33   ar
    33    26    11    1
    34    33    27   ar
    35    24    16   ar
    36    24    20   ar
    37     1    34    1
    38     1    35    1
    39     1    36    1
    40     3    37    1
    41     3    38    1
    42     3    39    1
    43     4    40    1
    44     4    41    1
    45     5    42    1
    46     5    43    1
    47     6    44    1
    48     6    45    1
    49     7    46    1
    50     8    47    1
    51    12    48    1
    52    12    49    1
    53    13    50    1
    54    13    51    1
    55    14    52    1
    56    14    53    1
    57    18    54    1
    58    21    55    1
    59    22    56    1
    60    23    57    1
    61    25    58    1
    62    25    59    1
    63    26    60    1
    64    26    61    1
    65    28    62    1
    66    29    63    1
    67    32    64    1
    68    33    65    1
