
     RDKit          3D

 65 68  0  0  0  0  0  0  0  0999 V2000
   -3.7997    2.2242    1.9229 C   0  0  0  0  0  0  0  0  0  0  0  0
   -4.9733    1.7303    1.2264 N   0  0  0  0  0  0  0  0  0  0  0  0
   -6.0768    2.6392    1.3584 C   0  0  0  0  0  0  0  0  0  0  0  0
   -4.5952    1.5141   -0.1568 C   0  0  0  0  0  0  0  0  0  0  0  0
   -3.6095    0.3451   -0.2030 C   0  0  0  0  0  0  0  0  0  0  0  0
   -3.2386    0.1460   -1.6313 C   0  0  0  0  0  0  0  0  0  0  0  0
   -2.2671   -0.9707   -1.8826 C   0  0  0  0  0  0  0  0  0  0  0  0
   -1.0311   -0.7236   -1.1726 N   0  0  0  0  0  0  0  0  0  0  0  0
    0.1985   -0.4294   -1.8233 C   0  0  0  0  0  0  0  0  0  0  0  0
    0.1285   -0.3987   -3.0976 O   0  0  0  0  0  0  0  0  0  0  0  0
    1.4541   -0.1783   -1.1194 C   0  0  0  0  0  0  0  0  0  0  0  0
    2.4898    0.0821   -2.1111 N   0  0  0  0  0  0  0  0  0  0  0  0
    1.4230    1.0084   -0.1874 C   0  0  0  0  0  0  0  0  0  0  0  0
    2.8775    1.4628   -0.0636 C   0  0  0  0  0  0  0  0  0  0  0  0
    3.6251    0.2997    0.3705 N   0  0  0  0  0  0  0  0  0  0  0  0
    5.0248    0.4159    0.4594 C   0  0  0  0  0  0  0  0  0  0  0  0
    5.7986   -0.2914   -0.3815 N   0  0  0  0  0  0  0  0  0  0  0  0
    7.1468   -0.2015   -0.3435 C   0  0  0  0  0  0  0  0  0  0  0  0
    7.7501    0.6078    0.5479 N   0  0  0  0  0  0  0  0  0  0  0  0
    7.0396    1.3396    1.4141 C   0  0  0  0  0  0  0  0  0  0  0  0
    7.4166    2.1911    2.3710 N   0  0  0  0  0  0  0  0  0  0  0  0
    6.2995    2.6545    2.9567 C   0  0  0  0  0  0  0  0  0  0  0  0
    5.1821    2.0791    2.3522 C   0  0  0  0  0  0  0  0  0  0  0  0
    5.6447    1.2392    1.3665 C   0  0  0  0  0  0  0  0  0  0  0  0
    2.9871   -0.9438    0.7055 C   0  0  0  0  0  0  0  0  0  0  0  0
    1.9382   -1.3526   -0.3025 C   0  0  0  0  0  0  0  0  0  0  0  0
   -2.8120   -2.3104   -1.6735 C   0  0  0  0  0  0  0  0  0  0  0  0
   -2.8889   -2.9063   -0.4223 C   0  0  0  0  0  0  0  0  0  0  0  0
   -3.4057   -4.1715   -0.2365 C   0  0  0  0  0  0  0  0  0  0  0  0
   -3.8670   -4.8818   -1.3295 C   0  0  0  0  0  0  0  0  0  0  0  0
   -4.5350   -6.4927   -1.1690 Cl  0  0  0  0  0  0  0  0  0  0  0  0
   -3.8088   -4.3325   -2.5725 C   0  0  0  0  0  0  0  0  0  0  0  0
   -3.2889   -3.0697   -2.7293 C   0  0  0  0  0  0  0  0  0  0  0  0
   -4.0621    2.9122    2.7587 H   0  0  0  0  0  0  0  0  0  0  0  0
   -3.1284    2.7140    1.1898 H   0  0  0  0  0  0  0  0  0  0  0  0
   -3.2560    1.3224    2.2870 H   0  0  0  0  0  0  0  0  0  0  0  0
   -5.9444    3.3325    2.2317 H   0  0  0  0  0  0  0  0  0  0  0  0
   -6.2053    3.3058    0.4745 H   0  0  0  0  0  0  0  0  0  0  0  0
   -7.0265    2.1156    1.5022 H   0  0  0  0  0  0  0  0  0  0  0  0
   -5.4738    1.2872   -0.8031 H   0  0  0  0  0  0  0  0  0  0  0  0
   -4.1151    2.4155   -0.6107 H   0  0  0  0  0  0  0  0  0  0  0  0
   -4.1539   -0.5162    0.2334 H   0  0  0  0  0  0  0  0  0  0  0  0
   -2.7468    0.6666    0.4202 H   0  0  0  0  0  0  0  0  0  0  0  0
   -2.7630    1.0870   -1.9927 H   0  0  0  0  0  0  0  0  0  0  0  0
   -4.1634    0.0176   -2.2281 H   0  0  0  0  0  0  0  0  0  0  0  0
   -2.0192   -0.8766   -2.9777 H   0  0  0  0  0  0  0  0  0  0  0  0
   -1.0250   -0.7590   -0.1404 H   0  0  0  0  0  0  0  0  0  0  0  0
    2.0539    0.6545   -2.8672 H   0  0  0  0  0  0  0  0  0  0  0  0
    2.7305   -0.8461   -2.5295 H   0  0  0  0  0  0  0  0  0  0  0  0
    1.1025    0.7028    0.8496 H   0  0  0  0  0  0  0  0  0  0  0  0
    0.8666    1.8643   -0.5718 H   0  0  0  0  0  0  0  0  0  0  0  0
    2.9870    2.3483    0.5496 H   0  0  0  0  0  0  0  0  0  0  0  0
    3.2323    1.7007   -1.1056 H   0  0  0  0  0  0  0  0  0  0  0  0
    7.7549   -0.7815   -1.0317 H   0  0  0  0  0  0  0  0  0  0  0  0
    8.3904    2.4699    2.6422 H   0  0  0  0  0  0  0  0  0  0  0  0
    6.2271    3.3645    3.7731 H   0  0  0  0  0  0  0  0  0  0  0  0
    4.1485    2.2436    2.5971 H   0  0  0  0  0  0  0  0  0  0  0  0
    2.5052   -0.8283    1.6864 H   0  0  0  0  0  0  0  0  0  0  0  0
    3.7758   -1.7149    0.7927 H   0  0  0  0  0  0  0  0  0  0  0  0
    1.1132   -1.8545    0.2411 H   0  0  0  0  0  0  0  0  0  0  0  0
    2.3955   -2.1180   -0.9647 H   0  0  0  0  0  0  0  0  0  0  0  0
   -2.5388   -2.3852    0.4584 H   0  0  0  0  0  0  0  0  0  0  0  0
   -3.4560   -4.6184    0.7550 H   0  0  0  0  0  0  0  0  0  0  0  0
   -4.1703   -4.8782   -3.4579 H   0  0  0  0  0  0  0  0  0  0  0  0
   -3.2624   -2.6728   -3.7376 H   0  0  0  0  0  0  0  0  0  0  0  0
  1  2  1  0
  2  3  1  0
  2  4  1  0
  4  5  1  0
  5  6  1  0
  6  7  1  0
  7  8  1  0
  8  9  1  0
  9 10  2  0
  9 11  1  0
 11 12  1  0
 11 13  1  0
 13 14  1  0
 14 15  1  0
 15 16  1  0
 16 17  2  0
 17 18  1  0
 18 19  2  0
 19 20  1  0
 20 21  1  0
 21 22  1  0
 22 23  2  0
 23 24  1  0
 15 25  1  0
 25 26  1  0
  7 27  1  0
 27 28  2  0
 28 29  1  0
 29 30  2  0
 30 31  1  0
 30 32  1  0
 32 33  2  0
 26 11  1  0
 33 27  1  0
 24 16  1  0
 24 20  2  0
  1 34  1  0
  1 35  1  0
  1 36  1  0
  3 37  1  0
  3 38  1  0
  3 39  1  0
  4 40  1  0
  4 41  1  0
  5 42  1  0
  5 43  1  0
  6 44  1  0
  6 45  1  0
  7 46  1  0
  8 47  1  0
 12 48  1  0
 12 49  1  0
 13 50  1  0
 13 51  1  0
 14 52  1  0
 14 53  1  0
 18 54  1  0
 21 55  1  0
 22 56  1  0
 23 57  1  0
 25 58  1  0
 25 59  1  0
 26 60  1  0
 26 61  1  0
 28 62  1  0
 29 63  1  0
 32 64  1  0
 33 65  1  0
M  END
$$$$
