
     RDKit          3D

 45 45  0  0  0  0  0  0  0  0999 V2000
   -1.4861    1.2279   -1.7690 C   0  0  2  0  0  0  0  0  0  0  0  0
   -0.6264    2.1834   -2.5173 N   0  0  0  0  0  0  0  0  0  0  0  0
   -1.3696    1.5331   -0.3184 C   0  0  0  0  0  0  0  0  0  0  0  0
   -2.1786    0.6681    0.5756 C   0  0  0  0  0  0  0  0  0  0  0  0
   -3.9323    0.8057    0.1163 S   0  0  0  0  0  0  0  0  0  0  0  0
   -4.8842   -0.2575    1.2208 C   0  0  0  0  0  0  0  0  0  0  0  0
   -4.5726   -1.7122    1.0139 C   0  0  0  0  0  0  0  0  0  0  0  0
   -6.3615    0.0114    0.9359 C   0  0  0  0  0  0  0  0  0  0  0  0
   -1.0130   -0.1446   -2.1706 C   0  0  2  0  0  0  0  0  0  0  0  0
   -1.7766   -1.1003   -1.5609 O   0  0  0  0  0  0  0  0  0  0  0  0
    0.4350   -0.3397   -1.8279 C   0  0  0  0  0  0  0  0  0  0  0  0
    0.2538   -1.3229   -1.0605 O   0  0  0  0  0  0  0  0  0  0  0  0
    1.6604    0.2798   -2.1695 N   0  0  0  0  0  0  0  0  0  0  0  0
    2.8052   -0.2453   -1.5990 N   0  0  0  0  0  0  0  0  0  0  0  0
    3.2217    0.2940   -0.3508 C   0  0  0  0  0  0  0  0  0  0  0  0
    2.5377    1.2113    0.1691 O   0  0  0  0  0  0  0  0  0  0  0  0
    4.4037   -0.1566    0.3678 C   0  0  0  0  0  0  0  0  0  0  0  0
    4.6953    0.4479    1.5689 C   0  0  0  0  0  0  0  0  0  0  0  0
    5.8158    0.0525    2.2953 C   0  0  0  0  0  0  0  0  0  0  0  0
    6.1653    0.8415    3.8254 Cl  0  0  0  0  0  0  0  0  0  0  0  0
    6.6682   -0.9415    1.8567 C   0  0  0  0  0  0  0  0  0  0  0  0
    6.3557   -1.5326    0.6507 C   0  0  0  0  0  0  0  0  0  0  0  0
    5.2415   -1.1515   -0.0891 C   0  0  0  0  0  0  0  0  0  0  0  0
   -2.5496    1.3626   -2.0895 H   0  0  0  0  0  0  0  0  0  0  0  0
   -0.0272    2.6582   -1.8113 H   0  0  0  0  0  0  0  0  0  0  0  0
   -1.2697    2.9231   -2.8713 H   0  0  0  0  0  0  0  0  0  0  0  0
   -0.3003    1.4149   -0.0019 H   0  0  0  0  0  0  0  0  0  0  0  0
   -1.5915    2.6193   -0.1151 H   0  0  0  0  0  0  0  0  0  0  0  0
   -2.0918    0.9958    1.6581 H   0  0  0  0  0  0  0  0  0  0  0  0
   -1.8429   -0.3695    0.5282 H   0  0  0  0  0  0  0  0  0  0  0  0
   -4.6635    0.0340    2.2680 H   0  0  0  0  0  0  0  0  0  0  0  0
   -3.6505   -1.8502    0.4140 H   0  0  0  0  0  0  0  0  0  0  0  0
   -4.3914   -2.2452    1.9743 H   0  0  0  0  0  0  0  0  0  0  0  0
   -5.4112   -2.2191    0.5211 H   0  0  0  0  0  0  0  0  0  0  0  0
   -6.5434   -0.0983   -0.1589 H   0  0  0  0  0  0  0  0  0  0  0  0
   -6.6382    1.0177    1.3077 H   0  0  0  0  0  0  0  0  0  0  0  0
   -6.9375   -0.7537    1.4914 H   0  0  0  0  0  0  0  0  0  0  0  0
   -1.1485   -0.2492   -3.2720 H   0  0  0  0  0  0  0  0  0  0  0  0
   -1.4601   -2.0170   -1.5872 H   0  0  0  0  0  0  0  0  0  0  0  0
    1.4269    1.0548   -2.8273 H   0  0  0  0  0  0  0  0  0  0  0  0
    3.3714   -1.0120   -2.0392 H   0  0  0  0  0  0  0  0  0  0  0  0
    4.0843    1.2372    1.9937 H   0  0  0  0  0  0  0  0  0  0  0  0
    7.5221   -1.2052    2.4643 H   0  0  0  0  0  0  0  0  0  0  0  0
    7.0258   -2.3118    0.3094 H   0  0  0  0  0  0  0  0  0  0  0  0
    5.0288   -1.6382   -1.0309 H   0  0  0  0  0  0  0  0  0  0  0  0
  1  2  1  0
  1  3  1  0
  3  4  1  0
  4  5  1  0
  5  6  1  0
  6  7  1  0
  6  8  1  0
  1  9  1  0
  9 10  1  0
  9 11  1  0
 11 12  2  0
 11 13  1  0
 13 14  1  0
 14 15  1  0
 15 16  2  0
 15 17  1  0
 17 18  2  0
 18 19  1  0
 19 20  1  0
 19 21  2  0
 21 22  1  0
 22 23  2  0
 23 17  1  0
  1 24  1  6
  2 25  1  0
  2 26  1  0
  3 27  1  0
  3 28  1  0
  4 29  1  0
  4 30  1  0
  6 31  1  0
  7 32  1  0
  7 33  1  0
  7 34  1  0
  8 35  1  0
  8 36  1  0
  8 37  1  0
  9 38  1  6
 10 39  1  0
 13 40  1  0
 14 41  1  0
 18 42  1  0
 21 43  1  0
 22 44  1  0
 23 45  1  0
M  END
$$$$
