
     RDKit          3D

 57 62  0  0  0  0  0  0  0  0999 V2000
    1.7840    0.9212   -4.4668 C   0  0  0  0  0  0  0  0  0  0  0  0
    1.9194    0.5347   -3.0215 C   0  0  0  0  0  0  0  0  0  0  0  0
    3.0420    0.3158   -2.3027 C   0  0  0  0  0  0  0  0  0  0  0  0
    2.7099   -0.0100   -1.0410 N   0  0  0  0  0  0  0  0  0  0  0  0
    3.7012   -0.2942   -0.0637 C   0  0  0  0  0  0  0  0  0  0  0  0
    3.5111   -1.3242    0.9430 C   0  0  0  0  0  0  0  0  0  0  0  0
    4.4010   -2.2516    0.2668 N   0  0  0  0  0  0  0  0  0  0  0  0
    5.4741   -2.7677    1.0940 C   0  0  0  0  0  0  0  0  0  0  0  0
    4.7755   -1.1977   -0.6336 C   0  0  0  0  0  0  0  0  0  0  0  0
    1.3633    0.0006   -0.9509 C   0  0  0  0  0  0  0  0  0  0  0  0
    0.8536    0.3382   -2.1790 C   0  0  0  0  0  0  0  0  0  0  0  0
   -0.5920    0.3341   -2.0747 C   0  0  0  0  0  0  0  0  0  0  0  0
   -1.4124    0.5951   -2.9907 O   0  0  0  0  0  0  0  0  0  0  0  0
   -0.9435   -0.0187   -0.7468 N   0  0  0  0  0  0  0  0  0  0  0  0
   -2.2963   -0.1586   -0.2455 C   0  0  0  0  0  0  0  0  0  0  0  0
   -2.5515   -0.5335    1.0446 C   0  0  0  0  0  0  0  0  0  0  0  0
   -3.8400   -0.6613    1.5187 C   0  0  0  0  0  0  0  0  0  0  0  0
   -4.1369   -1.0687    2.9217 C   0  0  0  0  0  0  0  0  0  0  0  0
   -4.8799   -0.4014    0.6580 C   0  0  0  0  0  0  0  0  0  0  0  0
   -6.2316   -0.4366    0.8166 N   0  0  0  0  0  0  0  0  0  0  0  0
   -6.7678   -0.0947   -0.3392 N   0  0  0  0  0  0  0  0  0  0  0  0
   -5.8086    0.1599   -1.2378 N   0  0  0  0  0  0  0  0  0  0  0  0
   -5.9610    0.5652   -2.6211 C   0  0  0  0  0  0  0  0  0  0  0  0
   -4.6167   -0.0238   -0.6422 C   0  0  0  0  0  0  0  0  0  0  0  0
   -3.3169    0.0860   -1.0546 N   0  0  0  0  0  0  0  0  0  0  0  0
    0.2778   -0.2062   -0.0124 C   0  0  0  0  0  0  0  0  0  0  0  0
    0.3272    0.7787    1.1301 C   0  0  0  0  0  0  0  0  0  0  0  0
   -0.0605    2.0851    0.9425 C   0  0  0  0  0  0  0  0  0  0  0  0
   -0.0090    2.9964    1.9840 C   0  0  0  0  0  0  0  0  0  0  0  0
    0.4287    2.6278    3.2322 C   0  0  0  0  0  0  0  0  0  0  0  0
    0.5060    3.7461    4.5617 Cl  0  0  0  0  0  0  0  0  0  0  0  0
    0.8201    1.3242    3.4360 C   0  0  0  0  0  0  0  0  0  0  0  0
    0.7632    0.4292    2.3900 C   0  0  0  0  0  0  0  0  0  0  0  0
    1.5398    0.0554   -5.0965 H   0  0  0  0  0  0  0  0  0  0  0  0
    2.7686    1.3864   -4.7464 H   0  0  0  0  0  0  0  0  0  0  0  0
    1.0367    1.7292   -4.5744 H   0  0  0  0  0  0  0  0  0  0  0  0
    4.0501    0.4057   -2.7384 H   0  0  0  0  0  0  0  0  0  0  0  0
    4.1879    0.6372    0.3260 H   0  0  0  0  0  0  0  0  0  0  0  0
    2.5421   -1.7963    1.1049 H   0  0  0  0  0  0  0  0  0  0  0  0
    3.9676   -1.0544    1.9351 H   0  0  0  0  0  0  0  0  0  0  0  0
    6.0013   -1.9842    1.6482 H   0  0  0  0  0  0  0  0  0  0  0  0
    6.1513   -3.3311    0.3966 H   0  0  0  0  0  0  0  0  0  0  0  0
    5.0410   -3.5394    1.7659 H   0  0  0  0  0  0  0  0  0  0  0  0
    5.8111   -0.8382   -0.5201 H   0  0  0  0  0  0  0  0  0  0  0  0
    4.5918   -1.5237   -1.6872 H   0  0  0  0  0  0  0  0  0  0  0  0
   -1.7664   -0.7436    1.7304 H   0  0  0  0  0  0  0  0  0  0  0  0
   -5.1342   -0.6946    3.2365 H   0  0  0  0  0  0  0  0  0  0  0  0
   -3.3980   -0.6214    3.6054 H   0  0  0  0  0  0  0  0  0  0  0  0
   -4.1931   -2.1863    3.0192 H   0  0  0  0  0  0  0  0  0  0  0  0
   -7.0586    0.6527   -2.8264 H   0  0  0  0  0  0  0  0  0  0  0  0
   -5.5732   -0.1850   -3.3179 H   0  0  0  0  0  0  0  0  0  0  0  0
   -5.5390    1.5757   -2.8103 H   0  0  0  0  0  0  0  0  0  0  0  0
    0.2240   -1.2133    0.4319 H   0  0  0  0  0  0  0  0  0  0  0  0
   -0.4084    2.4189   -0.0114 H   0  0  0  0  0  0  0  0  0  0  0  0
   -0.3185    4.0191    1.8155 H   0  0  0  0  0  0  0  0  0  0  0  0
    1.1634    1.0340    4.4139 H   0  0  0  0  0  0  0  0  0  0  0  0
    1.0793   -0.5923    2.5838 H   0  0  0  0  0  0  0  0  0  0  0  0
  1  2  1  0
  2  3  2  0
  3  4  1  0
  4  5  1  0
  5  6  1  0
  6  7  1  0
  7  8  1  0
  7  9  1  0
  4 10  1  0
 10 11  2  0
 11 12  1  0
 12 13  2  0
 12 14  1  0
 14 15  1  0
 15 16  2  0
 16 17  1  0
 17 18  1  0
 17 19  2  0
 19 20  1  0
 20 21  2  0
 21 22  1  0
 22 23  1  0
 22 24  1  0
 24 25  2  0
 14 26  1  0
 26 27  1  0
 27 28  2  0
 28 29  1  0
 29 30  2  0
 30 31  1  0
 30 32  1  0
 32 33  2  0
 11  2  1  0
 25 15  1  0
 33 27  1  0
  9  5  1  0
 26 10  1  0
 24 19  1  0
  1 34  1  0
  1 35  1  0
  1 36  1  0
  3 37  1  0
  5 38  1  0
  6 39  1  0
  6 40  1  0
  8 41  1  0
  8 42  1  0
  8 43  1  0
  9 44  1  0
  9 45  1  0
 16 46  1  0
 18 47  1  0
 18 48  1  0
 18 49  1  0
 23 50  1  0
 23 51  1  0
 23 52  1  0
 26 53  1  0
 28 54  1  0
 29 55  1  0
 32 56  1  0
 33 57  1  0
M  END
$$$$
