@<TRIPOS>MOLECULE
*****
 57 62 0 0 0
SMALL
GASTEIGER

@<TRIPOS>ATOM
      1 C           1.7840    0.9212   -4.4668 C.3     1  UNL1       -0.0376
      2 C           1.9194    0.5347   -3.0215 C.ar    1  UNL1       -0.0205
      3 C           3.0420    0.3158   -2.3027 C.ar    1  UNL1        0.0090
      4 N           2.7099   -0.0100   -1.0410 N.ar    1  UNL1       -0.3423
      5 C           3.7012   -0.2942   -0.0637 C.3     1  UNL1        0.0597
      6 C           3.5111   -1.3242    0.9430 C.3     1  UNL1        0.0207
      7 N           4.4010   -2.2516    0.2668 N.3     1  UNL1       -0.3013
      8 C           5.4741   -2.7677    1.0940 C.3     1  UNL1       -0.0126
      9 C           4.7755   -1.1977   -0.6336 C.3     1  UNL1        0.0207
     10 C           1.3633    0.0006   -0.9509 C.ar    1  UNL1        0.0571
     11 C           0.8536    0.3382   -2.1790 C.ar    1  UNL1        0.0630
     12 C          -0.5920    0.3341   -2.0747 C.2     1  UNL1        0.2548
     13 O          -1.4124    0.5951   -2.9907 O.2     1  UNL1       -0.2695
     14 N          -0.9435   -0.0187   -0.7468 N.am    1  UNL1       -0.2388
     15 C          -2.2963   -0.1586   -0.2455 C.ar    1  UNL1        0.1313
     16 C          -2.5515   -0.5335    1.0446 C.ar    1  UNL1       -0.0161
     17 C          -3.8400   -0.6613    1.5187 C.ar    1  UNL1       -0.0164
     18 C          -4.1369   -1.0687    2.9217 C.3     1  UNL1       -0.0374
     19 C          -4.8799   -0.4014    0.6580 C.ar    1  UNL1        0.1345
     20 N          -6.2316   -0.4366    0.8166 N.ar    1  UNL1       -0.1276
     21 N          -6.7678   -0.0947   -0.3392 N.ar    1  UNL1       -0.0635
     22 N          -5.8086    0.1599   -1.2378 N.ar    1  UNL1       -0.2297
     23 C          -5.9610    0.5652   -2.6211 C.3     1  UNL1        0.0341
     24 C          -4.6167   -0.0238   -0.6422 C.ar    1  UNL1        0.1803
     25 N          -3.3169    0.0860   -1.0546 N.ar    1  UNL1       -0.2108
     26 C           0.2778   -0.2062   -0.0124 C.3     1  UNL1        0.0986
     27 C           0.3272    0.7787    1.1301 C.ar    1  UNL1       -0.0207
     28 C          -0.0605    2.0851    0.9425 C.ar    1  UNL1       -0.0550
     29 C          -0.0090    2.9964    1.9840 C.ar    1  UNL1       -0.0431
     30 C           0.4287    2.6278    3.2322 C.ar    1  UNL1        0.0410
     31 CL          0.5060    3.7461    4.5617 Cl      1  UNL1       -0.0835
     32 C           0.8201    1.3242    3.4360 C.ar    1  UNL1       -0.0431
     33 C           0.7632    0.4292    2.3900 C.ar    1  UNL1       -0.0550
     34 H           1.5398    0.0554   -5.0965 H       1  UNL1        0.0278
     35 H           2.7686    1.3864   -4.7464 H       1  UNL1        0.0278
     36 H           1.0367    1.7292   -4.5744 H       1  UNL1        0.0278
     37 H           4.0501    0.4057   -2.7384 H       1  UNL1        0.0812
     38 H           4.1879    0.6372    0.3260 H       1  UNL1        0.0553
     39 H           2.5421   -1.7963    1.1049 H       1  UNL1        0.0447
     40 H           3.9676   -1.0544    1.9351 H       1  UNL1        0.0447
     41 H           6.0013   -1.9842    1.6482 H       1  UNL1        0.0391
     42 H           6.1513   -3.3311    0.3966 H       1  UNL1        0.0391
     43 H           5.0410   -3.5394    1.7659 H       1  UNL1        0.0391
     44 H           5.8111   -0.8382   -0.5201 H       1  UNL1        0.0447
     45 H           4.5918   -1.5237   -1.6872 H       1  UNL1        0.0447
     46 H          -1.7664   -0.7436    1.7304 H       1  UNL1        0.0655
     47 H          -5.1342   -0.6946    3.2365 H       1  UNL1        0.0278
     48 H          -3.3980   -0.6214    3.6054 H       1  UNL1        0.0278
     49 H          -4.1931   -2.1863    3.0192 H       1  UNL1        0.0278
     50 H          -7.0586    0.6527   -2.8264 H       1  UNL1        0.0474
     51 H          -5.5732   -0.1850   -3.3179 H       1  UNL1        0.0474
     52 H          -5.5390    1.5757   -2.8103 H       1  UNL1        0.0474
     53 H           0.2240   -1.2133    0.4319 H       1  UNL1        0.0620
     54 H          -0.4084    2.4189   -0.0114 H       1  UNL1        0.0621
     55 H          -0.3185    4.0191    1.8155 H       1  UNL1        0.0632
     56 H           1.1634    1.0340    4.4139 H       1  UNL1        0.0632
     57 H           1.0793   -0.5923    2.5838 H       1  UNL1        0.0621
@<TRIPOS>BOND
     1     1     2    1
     2     2     3   ar
     3     3     4   ar
     4     4     5    1
     5     5     6    1
     6     6     7    1
     7     7     8    1
     8     7     9    1
     9     4    10   ar
    10    10    11   ar
    11    11    12    1
    12    12    13    2
    13    12    14   am
    14    14    15    1
    15    15    16   ar
    16    16    17   ar
    17    17    18    1
    18    17    19   ar
    19    19    20   ar
    20    20    21   ar
    21    21    22   ar
    22    22    23    1
    23    22    24   ar
    24    24    25   ar
    25    14    26    1
    26    26    27    1
    27    27    28   ar
    28    28    29   ar
    29    29    30   ar
    30    30    31    1
    31    30    32   ar
    32    32    33   ar
    33    11     2   ar
    34    25    15   ar
    35    33    27   ar
    36     9     5    1
    37    26    10    1
    38    24    19   ar
    39     1    34    1
    40     1    35    1
    41     1    36    1
    42     3    37    1
    43     5    38    1
    44     6    39    1
    45     6    40    1
    46     8    41    1
    47     8    42    1
    48     8    43    1
    49     9    44    1
    50     9    45    1
    51    16    46    1
    52    18    47    1
    53    18    48    1
    54    18    49    1
    55    23    50    1
    56    23    51    1
    57    23    52    1
    58    26    53    1
    59    28    54    1
    60    29    55    1
    61    32    56    1
    62    33    57    1
