
     RDKit          3D

 34 33  0  0  0  0  0  0  0  0999 V2000
    2.5318   -0.3320    0.7791 C   0  0  1  0  0  0  0  0  0  0  0  0
    3.2030   -0.1682    2.0767 N   0  0  0  0  0  0  0  0  0  0  0  0
    1.5167    0.7706    0.5663 C   0  0  0  0  0  0  0  0  0  0  0  0
    0.8058    0.6407   -0.7517 C   0  0  0  0  0  0  0  0  0  0  0  0
    0.0407   -0.5989   -0.9728 C   0  0  0  0  0  0  0  0  0  0  0  0
   -1.0641   -0.9715   -0.0948 C   0  0  0  0  0  0  0  0  0  0  0  0
   -2.2147   -0.1470    0.0337 N   0  0  0  0  0  4  0  0  0  0  0  0
   -2.5226    0.5399   -1.1786 C   0  0  0  0  0  0  0  0  0  0  0  0
   -1.9547    0.8405    1.0774 C   0  0  0  0  0  0  0  0  0  0  0  0
   -3.3814   -0.9245    0.4930 C   0  0  0  0  0  0  0  0  0  0  0  0
    3.6350   -0.2711   -0.2325 C   0  0  0  0  0  0  0  0  0  0  0  0
    4.3962   -0.2607   -1.4039 O   0  0  0  0  0  0  0  0  0  0  0  0
    4.8525   -0.1109    0.0489 O   0  0  0  0  0  0  0  0  0  0  0  0
    2.0304   -1.3199    0.7909 H   0  0  0  0  0  0  0  0  0  0  0  0
    3.1435    0.8784    2.2604 H   0  0  0  0  0  0  0  0  0  0  0  0
    2.5598   -0.6019    2.7803 H   0  0  0  0  0  0  0  0  0  0  0  0
    2.1199    1.7230    0.4798 H   0  0  0  0  0  0  0  0  0  0  0  0
    0.8981    0.8407    1.4499 H   0  0  0  0  0  0  0  0  0  0  0  0
    1.6544    0.6191   -1.5239 H   0  0  0  0  0  0  0  0  0  0  0  0
    0.2494    1.5448   -1.0501 H   0  0  0  0  0  0  0  0  0  0  0  0
    0.8134   -1.4423   -1.0551 H   0  0  0  0  0  0  0  0  0  0  0  0
   -0.3350   -0.5513   -2.0396 H   0  0  0  0  0  0  0  0  0  0  0  0
   -0.7422   -1.1539    0.9831 H   0  0  0  0  0  0  0  0  0  0  0  0
   -1.4567   -1.9804   -0.4552 H   0  0  0  0  0  0  0  0  0  0  0  0
   -2.0897    1.5696   -1.1244 H   0  0  0  0  0  0  0  0  0  0  0  0
   -2.2379   -0.0175   -2.0900 H   0  0  0  0  0  0  0  0  0  0  0  0
   -3.6578    0.6615   -1.1690 H   0  0  0  0  0  0  0  0  0  0  0  0
   -2.9015    1.2977    1.4391 H   0  0  0  0  0  0  0  0  0  0  0  0
   -1.3632    1.6754    0.6703 H   0  0  0  0  0  0  0  0  0  0  0  0
   -1.3956    0.3798    1.9036 H   0  0  0  0  0  0  0  0  0  0  0  0
   -4.0185   -0.2645    1.1176 H   0  0  0  0  0  0  0  0  0  0  0  0
   -3.1121   -1.8174    1.0494 H   0  0  0  0  0  0  0  0  0  0  0  0
   -3.9802   -1.1167   -0.4311 H   0  0  0  0  0  0  0  0  0  0  0  0
    3.9771    0.0689   -2.2671 H   0  0  0  0  0  0  0  0  0  0  0  0
  1  2  1  0
  1  3  1  0
  3  4  1  0
  4  5  1  0
  5  6  1  0
  6  7  1  0
  7  8  1  0
  7  9  1  0
  7 10  1  0
  1 11  1  0
 11 12  1  0
 11 13  2  0
  1 14  1  1
  2 15  1  0
  2 16  1  0
  3 17  1  0
  3 18  1  0
  4 19  1  0
  4 20  1  0
  5 21  1  0
  5 22  1  0
  6 23  1  0
  6 24  1  0
  8 25  1  0
  8 26  1  0
  8 27  1  0
  9 28  1  0
  9 29  1  0
  9 30  1  0
 10 31  1  0
 10 32  1  0
 10 33  1  0
 12 34  1  0
M  CHG  1   7   1
M  END
$$$$
