@<TRIPOS>MOLECULE
*****
 69 74 0 0 0
SMALL
GASTEIGER

@<TRIPOS>ATOM
      1 C          -5.7160    3.3787   -0.8566 C.3     1  UNL1       -0.0380
      2 C          -6.4349    2.2400   -0.2086 C.ar    1  UNL1       -0.0279
      3 C          -7.7917    2.0657   -0.3683 C.ar    1  UNL1       -0.0557
      4 C          -8.4347    1.0180    0.2297 C.ar    1  UNL1       -0.0433
      5 C          -7.7342    0.1178    1.0035 C.ar    1  UNL1        0.0279
      6 N          -6.4262    0.3239    1.1308 N.ar    1  UNL1       -0.2583
      7 C          -5.7467    1.3377    0.5640 C.ar    1  UNL1        0.0581
      8 C          -4.2878    1.4673    0.7779 C.3     1  UNL1        0.0415
      9 N          -3.5209    1.0477   -0.3849 N.3     1  UNL1       -0.2965
     10 C          -3.7482   -0.3206   -0.7313 C.3     1  UNL1        0.0017
     11 C          -2.4982   -0.9585   -1.3484 C.3     1  UNL1       -0.0095
     12 C          -1.3341   -0.9045   -0.4242 C.3     1  UNL1        0.1240
     13 C          -1.5314    0.1764    0.5898 C.3     1  UNL1       -0.0095
     14 C          -2.1314    1.3726   -0.1476 C.3     1  UNL1        0.0017
     15 C          -0.0360   -0.5700   -1.1311 C.2     1  UNL1        0.2516
     16 O           0.0840    0.0252   -2.2233 O.2     1  UNL1       -0.2724
     17 N           1.0418   -1.0577   -0.3285 N.am    1  UNL1       -0.1920
     18 C           2.4041   -0.6096   -0.3196 C.ar    1  UNL1        0.0455
     19 C           3.3772   -1.1935    0.4539 C.ar    1  UNL1       -0.0392
     20 C           4.6860   -0.7468    0.4678 C.ar    1  UNL1       -0.0523
     21 C           5.0844    0.3187   -0.3026 C.ar    1  UNL1       -0.0178
     22 C           6.4616    0.7883   -0.2852 C.ar    1  UNL1       -0.0178
     23 C           7.2213    0.6806    0.8863 C.ar    1  UNL1       -0.0533
     24 C           8.5288    1.1085    0.9576 C.ar    1  UNL1       -0.0472
     25 C           9.1365    1.6665   -0.1474 C.ar    1  UNL1        0.0589
     26 C          10.5300    2.1283   -0.0907 C.2     1  UNL1        0.3368
     27 O          11.2261    2.0392    0.9476 O.2     1  UNL1       -0.2451
     28 O          11.1061    2.6837   -1.2195 O.3     1  UNL1       -0.4771
     29 C           8.3892    1.7725   -1.3004 C.ar    1  UNL1       -0.0472
     30 C           7.0798    1.3479   -1.3844 C.ar    1  UNL1       -0.0533
     31 C           4.1262    0.9169   -1.0840 C.ar    1  UNL1       -0.0523
     32 C           2.8007    0.4624   -1.0961 C.ar    1  UNL1       -0.0392
     33 C           0.4469   -2.0827    0.4838 C.2     1  UNL1        0.3219
     34 O           1.0323   -2.7850    1.3417 O.2     1  UNL1       -0.2512
     35 N          -0.9637   -2.1842    0.1543 N.am    1  UNL1       -0.2229
     36 C          -1.7093   -3.3559    0.4032 C.ar    1  UNL1        0.1478
     37 C          -2.3643   -3.5056    1.6129 C.ar    1  UNL1        0.0679
     38 N          -3.0817   -4.6124    1.8845 N.ar    1  UNL1       -0.2583
     39 C          -3.2013   -5.6300    0.9988 C.ar    1  UNL1        0.0458
     40 C          -2.5472   -5.4764   -0.2045 C.ar    1  UNL1        0.0478
     41 N          -1.8309   -4.3733   -0.4780 N.ar    1  UNL1       -0.2368
     42 H          -4.9441    3.7972   -0.1801 H       1  UNL1        0.0278
     43 H          -6.4713    4.1755   -1.0206 H       1  UNL1        0.0278
     44 H          -5.2569    3.0034   -1.7769 H       1  UNL1        0.0278
     45 H          -8.3314    2.7982   -0.9916 H       1  UNL1        0.0621
     46 H          -9.5015    0.8835    0.1022 H       1  UNL1        0.0633
     47 H          -8.2563   -0.7143    1.4762 H       1  UNL1        0.0829
     48 H          -4.0288    0.8315    1.6660 H       1  UNL1        0.0491
     49 H          -3.9987    2.5040    1.0744 H       1  UNL1        0.0491
     50 H          -4.0931   -0.8981    0.1479 H       1  UNL1        0.0427
     51 H          -4.5463   -0.3770   -1.4886 H       1  UNL1        0.0427
     52 H          -2.2748   -0.3611   -2.2585 H       1  UNL1        0.0303
     53 H          -2.7909   -1.9793   -1.6709 H       1  UNL1        0.0303
     54 H          -0.5416    0.4507    1.0316 H       1  UNL1        0.0303
     55 H          -2.2479   -0.0999    1.3766 H       1  UNL1        0.0303
     56 H          -2.0111    2.2450    0.4931 H       1  UNL1        0.0427
     57 H          -1.6501    1.5268   -1.1376 H       1  UNL1        0.0427
     58 H           3.1197   -2.0299    1.0730 H       1  UNL1        0.0636
     59 H           5.3748   -1.2849    1.1196 H       1  UNL1        0.0624
     60 H           6.7095    0.2340    1.7430 H       1  UNL1        0.0624
     61 H           9.0766    1.0054    1.8810 H       1  UNL1        0.0626
     62 H          11.9133    3.3231   -1.1459 H       1  UNL1        0.2954
     63 H           8.8823    2.2147   -2.1645 H       1  UNL1        0.0626
     64 H           6.5092    1.4431   -2.3084 H       1  UNL1        0.0624
     65 H           4.3380    1.7649   -1.7286 H       1  UNL1        0.0624
     66 H           2.0643    0.9525   -1.7159 H       1  UNL1        0.0636
     67 H          -2.3254   -2.7338    2.3922 H       1  UNL1        0.0865
     68 H          -3.7816   -6.5190    1.2265 H       1  UNL1        0.0845
     69 H          -2.6280   -6.2743   -0.9253 H       1  UNL1        0.0846
@<TRIPOS>BOND
     1     1     2    1
     2     2     3   ar
     3     3     4   ar
     4     4     5   ar
     5     5     6   ar
     6     6     7   ar
     7     7     8    1
     8     8     9    1
     9     9    10    1
    10    10    11    1
    11    11    12    1
    12    12    13    1
    13    13    14    1
    14    12    15    1
    15    15    16    2
    16    15    17   am
    17    17    18    1
    18    18    19   ar
    19    19    20   ar
    20    20    21   ar
    21    21    22    1
    22    22    23   ar
    23    23    24   ar
    24    24    25   ar
    25    25    26    1
    26    26    27    2
    27    26    28    1
    28    25    29   ar
    29    29    30   ar
    30    21    31   ar
    31    31    32   ar
    32    17    33   am
    33    33    34    2
    34    33    35   am
    35    35    36    1
    36    36    37   ar
    37    37    38   ar
    38    38    39   ar
    39    39    40   ar
    40    40    41   ar
    41     7     2   ar
    42    14     9    1
    43    32    18   ar
    44    41    36   ar
    45    35    12    1
    46    30    22   ar
    47     1    42    1
    48     1    43    1
    49     1    44    1
    50     3    45    1
    51     4    46    1
    52     5    47    1
    53     8    48    1
    54     8    49    1
    55    10    50    1
    56    10    51    1
    57    11    52    1
    58    11    53    1
    59    13    54    1
    60    13    55    1
    61    14    56    1
    62    14    57    1
    63    19    58    1
    64    20    59    1
    65    23    60    1
    66    24    61    1
    67    28    62    1
    68    29    63    1
    69    30    64    1
    70    31    65    1
    71    32    66    1
    72    37    67    1
    73    39    68    1
    74    40    69    1
