@<TRIPOS>MOLECULE
*****
 34 35 0 0 0
SMALL
GASTEIGER

@<TRIPOS>ATOM
      1 C          -4.0856    0.0562    0.1892 C.3     1  UNL1        0.0006
      2 N          -2.8868   -0.7725    0.2685 N.pl3   1  UNL1       -0.3304
      3 C          -3.0265   -2.1980    0.5023 C.3     1  UNL1        0.0006
      4 C          -1.5912   -0.2334    0.1248 C.ar    1  UNL1        0.1171
      5 C          -1.1675    1.0577   -0.0983 C.ar    1  UNL1        0.0592
      6 C          -2.0439    2.2509   -0.2451 C.3     1  UNL1       -0.0208
      7 N           0.1881    1.1151   -0.1702 N.ar    1  UNL1       -0.2823
      8 C           0.9740    2.3354   -0.3989 C.3     1  UNL1        0.0292
      9 N           0.6495   -0.1127    0.0018 N.ar    1  UNL1       -0.2156
     10 C          -0.3989   -0.9237    0.1782 C.ar    1  UNL1        0.2932
     11 O          -0.1976   -2.1529    0.3625 O.2     1  UNL1       -0.2638
     12 C           2.0441   -0.4109   -0.0159 C.ar    1  UNL1        0.0674
     13 C           2.3966   -1.4980   -0.7783 C.ar    1  UNL1       -0.0362
     14 C           3.7316   -1.8674   -0.8582 C.ar    1  UNL1       -0.0598
     15 C           4.7004   -1.1460   -0.1750 C.ar    1  UNL1       -0.0616
     16 C           4.3330   -0.0443    0.5961 C.ar    1  UNL1       -0.0598
     17 C           2.9914    0.3074    0.6618 C.ar    1  UNL1       -0.0362
     18 H          -4.9832   -0.6178    0.0397 H       1  UNL1        0.0428
     19 H          -4.3207    0.5727    1.1399 H       1  UNL1        0.0428
     20 H          -4.0907    0.7282   -0.6734 H       1  UNL1        0.0428
     21 H          -2.3089   -2.5660    1.2635 H       1  UNL1        0.0428
     22 H          -4.0503   -2.3704    0.8902 H       1  UNL1        0.0428
     23 H          -2.9630   -2.7651   -0.4451 H       1  UNL1        0.0428
     24 H          -2.4531    2.3620   -1.2695 H       1  UNL1        0.0293
     25 H          -1.4381    3.1980   -0.1039 H       1  UNL1        0.0293
     26 H          -2.7981    2.3206    0.5622 H       1  UNL1        0.0293
     27 H           1.0776    2.8614    0.5804 H       1  UNL1        0.0472
     28 H           0.4291    2.9805   -1.0988 H       1  UNL1        0.0472
     29 H           1.9459    2.0921   -0.8421 H       1  UNL1        0.0472
     30 H           1.7359   -2.1300   -1.3491 H       1  UNL1        0.0639
     31 H           4.1227   -2.7161   -1.4363 H       1  UNL1        0.0618
     32 H           5.7368   -1.4161   -0.2245 H       1  UNL1        0.0618
     33 H           5.0775    0.5439    1.1465 H       1  UNL1        0.0618
     34 H           2.6700    1.1591    1.2525 H       1  UNL1        0.0639
@<TRIPOS>BOND
     1     1     2    1
     2     2     3    1
     3     2     4    1
     4     4     5   ar
     5     5     6    1
     6     5     7   ar
     7     7     8    1
     8     7     9   ar
     9     9    10   ar
    10    10    11    2
    11     9    12    1
    12    12    13   ar
    13    13    14   ar
    14    14    15   ar
    15    15    16   ar
    16    16    17   ar
    17    10     4   ar
    18    17    12   ar
    19     1    18    1
    20     1    19    1
    21     1    20    1
    22     3    21    1
    23     3    22    1
    24     3    23    1
    25     6    24    1
    26     6    25    1
    27     6    26    1
    28     8    27    1
    29     8    28    1
    30     8    29    1
    31    13    30    1
    32    14    31    1
    33    15    32    1
    34    16    33    1
    35    17    34    1
