@<TRIPOS>MOLECULE
*****
 176 182 0 0 0
SMALL
GASTEIGER

@<TRIPOS>ATOM
      1 C         -10.7423   -0.0969   -1.5453 C.3     1  UNL1        0.1025
      2 C         -11.6556   -0.6019   -2.5957 C.3     1  UNL1       -0.0243
      3 C         -10.7627   -1.3930   -3.5202 C.3     1  UNL1       -0.0350
      4 C          -9.3780   -0.9679   -3.2001 C.3     1  UNL1        0.0156
      5 N          -9.4735    0.1355   -2.2828 N.am    1  UNL1       -0.2884
      6 C          -8.5050    1.1374   -1.8464 C.2     1  UNL1        0.2368
      7 O          -8.8411    1.0248   -0.7242 O.2     1  UNL1       -0.2735
      8 C          -7.4616    1.9151   -2.6404 C.3     1  UNL1        0.1019
      9 N          -6.1625    1.4755   -2.4049 N.am    1  UNL1       -0.3021
     10 C          -5.0631    1.2044   -1.6536 C.2     1  UNL1        0.2376
     11 O          -5.3734    1.8478   -0.6550 O.2     1  UNL1       -0.2736
     12 C          -3.7473    0.3923   -1.8114 C.3     1  UNL1        0.1366
     13 N          -2.8219    1.0611   -0.9343 N.am    1  UNL1       -0.2969
     14 C          -1.4820    1.6877   -0.8191 C.2     1  UNL1        0.2469
     15 O          -1.2943    1.3396   -2.0115 O.2     1  UNL1       -0.2701
     16 C          -1.2765    2.3265    0.6903 C.ar    1  UNL1        0.0656
     17 C          -0.4944    1.5204    1.3291 C.ar    1  UNL1        0.1191
     18 N           0.4999    0.9188    0.7289 N.ar    1  UNL1       -0.2389
     19 C           1.1600    0.0834    1.6461 C.ar    1  UNL1        0.1211
     20 C           0.5936    0.0485    2.9606 C.ar    1  UNL1        0.1612
     21 O          -0.3598    0.6759    3.4477 O.2     1  UNL1       -0.4511
     22 C          -0.9971    1.4909    2.5972 C.ar    1  UNL1        0.1574
     23 C          -2.0599    2.2146    3.0589 C.ar    1  UNL1       -0.0060
     24 C          -2.2786    2.3147    4.5766 C.3     1  UNL1       -0.0362
     25 C          -2.8178    3.0788    2.2335 C.ar    1  UNL1       -0.0545
     26 C          -2.4029    3.1899    0.8527 C.ar    1  UNL1       -0.0471
     27 C           1.1778   -0.7943    3.9144 C.ar    1  UNL1        0.0424
     28 C           0.6136   -1.2779    5.1313 C.3     1  UNL1       -0.0324
     29 C           2.3522   -1.4029    3.5417 C.ar    1  UNL1        0.2067
     30 O           3.0243   -2.1813    4.3222 O.2     1  UNL1       -0.2855
     31 C           2.8375   -1.1964    2.3307 C.ar    1  UNL1        0.0867
     32 N           4.1825   -1.5144    2.2293 N.pl3   1  UNL1       -0.3544
     33 C           2.3477   -0.4979    1.2825 C.ar    1  UNL1        0.0899
     34 C           3.1711   -0.2661    0.1368 C.2     1  UNL1        0.2488
     35 O           4.3420    0.1411    0.4645 O.2     1  UNL1       -0.2700
     36 N           3.1763   -0.3262   -1.2443 N.am    1  UNL1       -0.2969
     37 C           4.0418   -0.0154   -2.3521 C.3     1  UNL1        0.1366
     38 C           4.6231    1.3212   -2.4474 C.3     1  UNL1        0.1270
     39 C           3.3305    2.2619   -2.1637 C.3     1  UNL1       -0.0254
     40 O           5.5413    1.8492   -1.5372 O.3     1  UNL1       -0.4580
     41 C           6.5322    2.6251   -2.1080 C.2     1  UNL1        0.3284
     42 O           6.6642    2.6593   -3.3899 O.2     1  UNL1       -0.2487
     43 C           7.6331    3.5932   -1.5274 C.3     1  UNL1        0.1250
     44 C           8.7838    3.7383   -2.3587 C.3     1  UNL1       -0.0177
     45 C           9.7098    2.5714   -2.5907 C.3     1  UNL1       -0.0605
     46 C           9.5617    5.0315   -2.1108 C.3     1  UNL1       -0.0605
     47 N           7.7069    3.1637   -0.1702 N.am    1  UNL1       -0.2895
     48 C           6.7001    3.1139    0.8563 C.3     1  UNL1        0.0041
     49 C           8.8616    2.6658    0.5523 C.2     1  UNL1        0.2334
     50 O           9.3366    3.8806    0.6427 O.2     1  UNL1       -0.2739
     51 C           9.7796    1.7698    1.2158 C.3     1  UNL1        0.0909
     52 N           9.6576    0.3705    0.9002 N.am    1  UNL1       -0.2942
     53 C          10.2738    0.1806   -0.3830 C.3     1  UNL1        0.0037
     54 C           9.2355   -0.8016    1.0041 C.2     1  UNL1        0.2363
     55 O           8.0434   -0.1682    1.5005 O.2     1  UNL1       -0.2736
     56 C           9.1964   -2.2235    0.9293 C.3     1  UNL1        0.1025
     57 C          10.6946   -2.7111    0.8489 C.3     1  UNL1       -0.0243
     58 C          10.5170   -3.6868   -0.3002 C.3     1  UNL1       -0.0350
     59 C           9.0720   -4.1883    0.0568 C.3     1  UNL1        0.0156
     60 N           8.4293   -2.9327    0.0523 N.am    1  UNL1       -0.2884
     61 C           7.4181   -2.6168   -0.8012 C.2     1  UNL1        0.2368
     62 O           7.5690   -1.4023   -0.9240 O.2     1  UNL1       -0.2735
     63 C           6.2219   -3.3751   -1.5262 C.3     1  UNL1        0.1019
     64 N           5.2236   -2.3528   -1.7160 N.am    1  UNL1       -0.3021
     65 C           5.1513   -1.0795   -2.4723 C.2     1  UNL1        0.2376
     66 O           6.1872   -1.1106   -3.1291 O.2     1  UNL1       -0.2736
     67 C           5.7904   -4.3047   -0.4180 C.3     1  UNL1       -0.0197
     68 C           4.5128   -5.0113   -0.7004 C.3     1  UNL1       -0.0605
     69 C           5.6520   -3.4068    0.7819 C.3     1  UNL1       -0.0605
     70 C          -4.1904   -1.0056   -1.3640 C.3     1  UNL1        0.1270
     71 C          -3.1865   -2.0183   -1.7316 C.3     1  UNL1       -0.0254
     72 O          -4.8123   -0.8915   -0.1268 O.3     1  UNL1       -0.4580
     73 C          -6.1721   -1.2280    0.1163 C.2     1  UNL1        0.3284
     74 O          -6.9603   -1.7259   -0.7826 O.2     1  UNL1       -0.2487
     75 C          -6.6547   -0.9626    1.4311 C.3     1  UNL1        0.1250
     76 C          -5.5919   -1.1769    2.5686 C.3     1  UNL1       -0.0177
     77 C          -4.5118   -0.1625    2.3059 C.3     1  UNL1       -0.0605
     78 C          -5.0541   -2.5387    2.6202 C.3     1  UNL1       -0.0605
     79 N          -7.9192   -1.3918    1.9115 N.am    1  UNL1       -0.2895
     80 C          -8.0579   -2.8491    1.8160 C.3     1  UNL1        0.0041
     81 C          -9.0952   -1.0385    2.7001 C.2     1  UNL1        0.2334
     82 O          -8.2682   -0.5817    3.5471 O.2     1  UNL1       -0.2739
     83 C         -10.5706   -1.3520    2.3096 C.3     1  UNL1        0.0909
     84 N         -10.6194   -1.0757    0.9152 N.am    1  UNL1       -0.2942
     85 C         -11.9959   -0.5517    0.8345 C.3     1  UNL1        0.0037
     86 C         -10.5603   -1.0266   -0.4367 C.2     1  UNL1        0.2363
     87 O         -10.3009   -2.1984   -0.6844 O.2     1  UNL1       -0.2736
     88 C          -7.6143    3.3868   -2.2139 C.3     1  UNL1       -0.0197
     89 C          -6.5113    4.2181   -2.7834 C.3     1  UNL1       -0.0605
     90 C          -7.8927    3.6749   -0.8145 C.3     1  UNL1       -0.0605
     91 H         -11.1462    0.9335   -1.2178 H       1  UNL1        0.0597
     92 H         -12.1438    0.2014   -3.1368 H       1  UNL1        0.0288
     93 H         -12.4074   -1.3171   -2.1542 H       1  UNL1        0.0288
     94 H         -11.0270   -1.2650   -4.5795 H       1  UNL1        0.0281
     95 H         -10.8217   -2.4943   -3.2360 H       1  UNL1        0.0281
     96 H          -8.7938   -1.7963   -2.7291 H       1  UNL1        0.0465
     97 H          -8.8677   -0.6003   -4.0853 H       1  UNL1        0.0465
     98 H          -7.7081    1.8565   -3.7054 H       1  UNL1        0.0597
     99 H          -5.6117    1.2888   -3.3081 H       1  UNL1        0.1495
    100 H          -3.3768    0.3341   -2.8018 H       1  UNL1        0.0632
    101 H          -3.4054    1.1085   -0.0258 H       1  UNL1        0.1499
    102 H          -3.2749    2.6844    4.8381 H       1  UNL1        0.0279
    103 H          -1.5642    3.1724    4.9672 H       1  UNL1        0.0279
    104 H          -2.0283    1.3804    5.1029 H       1  UNL1        0.0279
    105 H          -3.5699    3.7213    2.5554 H       1  UNL1        0.0622
    106 H          -2.9392    3.8209    0.1347 H       1  UNL1        0.0626
    107 H          -0.1286   -2.0839    4.6878 H       1  UNL1        0.0280
    108 H          -0.0415   -0.5280    5.5521 H       1  UNL1        0.0280
    109 H           1.2727   -1.8312    5.7837 H       1  UNL1        0.0280
    110 H           5.1969   -1.1402    2.3655 H       1  UNL1        0.1424
    111 H           3.7237   -2.4570    2.0470 H       1  UNL1        0.1424
    112 H           2.1981   -0.7332   -1.4674 H       1  UNL1        0.1499
    113 H           3.4522   -0.2393   -3.2969 H       1  UNL1        0.0632
    114 H           4.8510    1.6034   -3.4530 H       1  UNL1        0.0755
    115 H           3.1314    2.9309   -2.9866 H       1  UNL1        0.0266
    116 H           3.6320    2.9129   -1.2852 H       1  UNL1        0.0266
    117 H           2.4713    1.6574   -1.9096 H       1  UNL1        0.0266
    118 H           6.8813    4.4772   -1.5474 H       1  UNL1        0.0619
    119 H           8.3953    3.9137   -3.4365 H       1  UNL1        0.0319
    120 H          10.3004    2.6190   -3.5045 H       1  UNL1        0.0233
    121 H          10.5306    2.6258   -1.7881 H       1  UNL1        0.0233
    122 H           9.1675    1.6317   -2.6151 H       1  UNL1        0.0233
    123 H           8.9488    5.7231   -1.4455 H       1  UNL1        0.0233
    124 H          10.5695    4.8525   -1.6528 H       1  UNL1        0.0233
    125 H           9.7388    5.5886   -3.0484 H       1  UNL1        0.0233
    126 H           5.6950    2.9847    0.4034 H       1  UNL1        0.0429
    127 H           6.7187    4.0367    1.4375 H       1  UNL1        0.0429
    128 H           6.8819    2.2082    1.5069 H       1  UNL1        0.0429
    129 H          10.7857    2.0819    1.2970 H       1  UNL1        0.0560
    130 H           9.3592    1.8414    2.3800 H       1  UNL1        0.0560
    131 H           9.4284    0.5047   -1.1215 H       1  UNL1        0.0429
    132 H          11.1616    0.8289   -0.5038 H       1  UNL1        0.0429
    133 H          10.5096   -0.7749   -0.8322 H       1  UNL1        0.0429
    134 H           8.9374   -2.5570    2.0412 H       1  UNL1        0.0597
    135 H          11.0203   -3.2627    1.7377 H       1  UNL1        0.0288
    136 H          11.4241   -1.9142    0.7292 H       1  UNL1        0.0288
    137 H          10.3904   -3.1862   -1.2497 H       1  UNL1        0.0281
    138 H          11.1966   -4.5215   -0.2110 H       1  UNL1        0.0281
    139 H           8.7468   -4.8832   -0.7329 H       1  UNL1        0.0465
    140 H           9.0593   -4.6919    1.0094 H       1  UNL1        0.0465
    141 H           6.6661   -3.7904   -2.4270 H       1  UNL1        0.0597
    142 H           4.2556   -2.4004   -1.3811 H       1  UNL1        0.1495
    143 H           6.6053   -5.0386   -0.1278 H       1  UNL1        0.0318
    144 H           3.6763   -4.2172   -0.5345 H       1  UNL1        0.0233
    145 H           4.4647   -5.3727   -1.7182 H       1  UNL1        0.0233
    146 H           4.3616   -5.7413    0.0903 H       1  UNL1        0.0233
    147 H           6.5331   -3.0459    1.2935 H       1  UNL1        0.0233
    148 H           5.0501   -3.9346    1.5215 H       1  UNL1        0.0233
    149 H           5.1102   -2.4924    0.4325 H       1  UNL1        0.0233
    150 H          -5.0809   -1.2202   -2.1208 H       1  UNL1        0.0755
    151 H          -2.1536   -1.6136   -1.6692 H       1  UNL1        0.0266
    152 H          -3.2830   -2.1446   -2.9054 H       1  UNL1        0.0266
    153 H          -3.3649   -3.0078   -1.3777 H       1  UNL1        0.0266
    154 H          -6.7064    0.2369    1.6076 H       1  UNL1        0.0619
    155 H          -6.0814   -0.9366    3.5307 H       1  UNL1        0.0319
    156 H          -3.6400   -0.5811    1.7846 H       1  UNL1        0.0233
    157 H          -4.9273    0.6636    1.6304 H       1  UNL1        0.0233
    158 H          -4.1888    0.3582    3.1984 H       1  UNL1        0.0233
    159 H          -4.8834   -3.0261    1.6462 H       1  UNL1        0.0233
    160 H          -5.6602   -3.2280    3.2906 H       1  UNL1        0.0233
    161 H          -4.0588   -2.5051    3.1042 H       1  UNL1        0.0233
    162 H          -8.0609   -3.2411    2.8971 H       1  UNL1        0.0429
    163 H          -9.0265   -3.1143    1.4339 H       1  UNL1        0.0429
    164 H          -7.3009   -3.3683    1.2467 H       1  UNL1        0.0429
    165 H         -10.7097   -2.4260    2.4800 H       1  UNL1        0.0560
    166 H         -11.2016   -0.7363    2.9465 H       1  UNL1        0.0560
    167 H         -12.3317   -0.2339    1.8328 H       1  UNL1        0.0429
    168 H         -12.6452   -1.5170    0.6808 H       1  UNL1        0.0429
    169 H         -12.2676    0.1750    0.1194 H       1  UNL1        0.0429
    170 H          -8.5496    3.7366   -2.8252 H       1  UNL1        0.0318
    171 H          -5.5954    4.0948   -2.1093 H       1  UNL1        0.0233
    172 H          -6.2555    4.0291   -3.8162 H       1  UNL1        0.0233
    173 H          -6.7877    5.2706   -2.6524 H       1  UNL1        0.0233
    174 H          -8.6224    4.5594   -0.7064 H       1  UNL1        0.0233
    175 H          -6.9965    4.0426   -0.2221 H       1  UNL1        0.0233
    176 H          -8.4024    2.8988   -0.2093 H       1  UNL1        0.0233
@<TRIPOS>BOND
     1     1     2    1
     2     2     3    1
     3     3     4    1
     4     4     5    1
     5     5     6   am
     6     6     7    2
     7     6     8    1
     8     8     9    1
     9     9    10   am
    10    10    11    2
    11    10    12    1
    12    12    13    1
    13    13    14   am
    14    14    15    2
    15    14    16    1
    16    16    17   ar
    17    17    18   ar
    18    18    19   ar
    19    19    20    1
    20    20    21   ar
    21    21    22   ar
    22    22    23   ar
    23    23    24    1
    24    23    25   ar
    25    25    26   ar
    26    20    27   ar
    27    27    28    1
    28    27    29   ar
    29    29    30    2
    30    29    31   ar
    31    31    32    1
    32    31    33   ar
    33    33    34    1
    34    34    35    2
    35    34    36   am
    36    36    37    1
    37    37    38    1
    38    38    39    1
    39    38    40    1
    40    40    41    1
    41    41    42    2
    42    41    43    1
    43    43    44    1
    44    44    45    1
    45    44    46    1
    46    43    47    1
    47    47    48    1
    48    47    49   am
    49    49    50    2
    50    49    51    1
    51    51    52    1
    52    52    53    1
    53    52    54   am
    54    54    55    2
    55    54    56    1
    56    56    57    1
    57    57    58    1
    58    58    59    1
    59    59    60    1
    60    60    61   am
    61    61    62    2
    62    61    63    1
    63    63    64    1
    64    64    65   am
    65    65    66    2
    66    63    67    1
    67    67    68    1
    68    67    69    1
    69    12    70    1
    70    70    71    1
    71    70    72    1
    72    72    73    1
    73    73    74    2
    74    73    75    1
    75    75    76    1
    76    76    77    1
    77    76    78    1
    78    75    79    1
    79    79    80    1
    80    79    81   am
    81    81    82    2
    82    81    83    1
    83    83    84    1
    84    84    85    1
    85    84    86   am
    86    86    87    2
    87     8    88    1
    88    88    89    1
    89    88    90    1
    90     5     1    1
    91    26    16   ar
    92    65    37    1
    93    86     1    1
    94    22    17   ar
    95    60    56    1
    96    33    19   ar
    97     1    91    1
    98     2    92    1
    99     2    93    1
   100     3    94    1
   101     3    95    1
   102     4    96    1
   103     4    97    1
   104     8    98    1
   105     9    99    1
   106    12   100    1
   107    13   101    1
   108    24   102    1
   109    24   103    1
   110    24   104    1
   111    25   105    1
   112    26   106    1
   113    28   107    1
   114    28   108    1
   115    28   109    1
   116    32   110    1
   117    32   111    1
   118    36   112    1
   119    37   113    1
   120    38   114    1
   121    39   115    1
   122    39   116    1
   123    39   117    1
   124    43   118    1
   125    44   119    1
   126    45   120    1
   127    45   121    1
   128    45   122    1
   129    46   123    1
   130    46   124    1
   131    46   125    1
   132    48   126    1
   133    48   127    1
   134    48   128    1
   135    51   129    1
   136    51   130    1
   137    53   131    1
   138    53   132    1
   139    53   133    1
   140    56   134    1
   141    57   135    1
   142    57   136    1
   143    58   137    1
   144    58   138    1
   145    59   139    1
   146    59   140    1
   147    63   141    1
   148    64   142    1
   149    67   143    1
   150    68   144    1
   151    68   145    1
   152    68   146    1
   153    69   147    1
   154    69   148    1
   155    69   149    1
   156    70   150    1
   157    71   151    1
   158    71   152    1
   159    71   153    1
   160    75   154    1
   161    76   155    1
   162    77   156    1
   163    77   157    1
   164    77   158    1
   165    78   159    1
   166    78   160    1
   167    78   161    1
   168    80   162    1
   169    80   163    1
   170    80   164    1
   171    83   165    1
   172    83   166    1
   173    85   167    1
   174    85   168    1
   175    85   169    1
   176    88   170    1
   177    89   171    1
   178    89   172    1
   179    89   173    1
   180    90   174    1
   181    90   175    1
   182    90   176    1
