
     RDKit          3D

176182  0  0  0  0  0  0  0  0999 V2000
  -10.7423   -0.0969   -1.5453 C   0  0  2  0  0  0  0  0  0  0  0  0
  -11.6556   -0.6019   -2.5957 C   0  0  0  0  0  0  0  0  0  0  0  0
  -10.7627   -1.3930   -3.5202 C   0  0  0  0  0  0  0  0  0  0  0  0
   -9.3780   -0.9679   -3.2001 C   0  0  0  0  0  0  0  0  0  0  0  0
   -9.4735    0.1355   -2.2828 N   0  0  0  0  0  0  0  0  0  0  0  0
   -8.5050    1.1374   -1.8464 C   0  0  0  0  0  0  0  0  0  0  0  0
   -8.8411    1.0248   -0.7242 O   0  0  0  0  0  0  0  0  0  0  0  0
   -7.4616    1.9151   -2.6404 C   0  0  2  0  0  0  0  0  0  0  0  0
   -6.1625    1.4755   -2.4049 N   0  0  0  0  0  0  0  0  0  0  0  0
   -5.0631    1.2044   -1.6536 C   0  0  0  0  0  0  0  0  0  0  0  0
   -5.3734    1.8478   -0.6550 O   0  0  0  0  0  0  0  0  0  0  0  0
   -3.7473    0.3923   -1.8114 C   0  0  1  0  0  0  0  0  0  0  0  0
   -2.8219    1.0611   -0.9343 N   0  0  0  0  0  0  0  0  0  0  0  0
   -1.4820    1.6877   -0.8191 C   0  0  0  0  0  0  0  0  0  0  0  0
   -1.2943    1.3396   -2.0115 O   0  0  0  0  0  0  0  0  0  0  0  0
   -1.2765    2.3265    0.6903 C   0  0  0  0  0  0  0  0  0  0  0  0
   -0.4944    1.5204    1.3291 C   0  0  0  0  0  0  0  0  0  0  0  0
    0.4999    0.9188    0.7289 N   0  0  0  0  0  0  0  0  0  0  0  0
    1.1600    0.0834    1.6461 C   0  0  0  0  0  0  0  0  0  0  0  0
    0.5936    0.0485    2.9606 C   0  0  0  0  0  0  0  0  0  0  0  0
   -0.3598    0.6759    3.4477 O   0  0  0  0  0  0  0  0  0  0  0  0
   -0.9971    1.4909    2.5972 C   0  0  0  0  0  0  0  0  0  0  0  0
   -2.0599    2.2146    3.0589 C   0  0  0  0  0  0  0  0  0  0  0  0
   -2.2786    2.3147    4.5766 C   0  0  0  0  0  0  0  0  0  0  0  0
   -2.8178    3.0788    2.2335 C   0  0  0  0  0  0  0  0  0  0  0  0
   -2.4029    3.1899    0.8527 C   0  0  0  0  0  0  0  0  0  0  0  0
    1.1778   -0.7943    3.9144 C   0  0  0  0  0  0  0  0  0  0  0  0
    0.6136   -1.2779    5.1313 C   0  0  0  0  0  0  0  0  0  0  0  0
    2.3522   -1.4029    3.5417 C   0  0  0  0  0  0  0  0  0  0  0  0
    3.0243   -2.1813    4.3222 O   0  0  0  0  0  0  0  0  0  0  0  0
    2.8375   -1.1964    2.3307 C   0  0  0  0  0  0  0  0  0  0  0  0
    4.1825   -1.5144    2.2293 N   0  0  0  0  0  0  0  0  0  0  0  0
    2.3477   -0.4979    1.2825 C   0  0  0  0  0  0  0  0  0  0  0  0
    3.1711   -0.2661    0.1368 C   0  0  0  0  0  0  0  0  0  0  0  0
    4.3420    0.1411    0.4645 O   0  0  0  0  0  0  0  0  0  0  0  0
    3.1763   -0.3262   -1.2443 N   0  0  0  0  0  0  0  0  0  0  0  0
    4.0418   -0.0154   -2.3521 C   0  0  1  0  0  0  0  0  0  0  0  0
    4.6231    1.3212   -2.4474 C   0  0  1  0  0  0  0  0  0  0  0  0
    3.3305    2.2619   -2.1637 C   0  0  0  0  0  0  0  0  0  0  0  0
    5.5413    1.8492   -1.5372 O   0  0  0  0  0  0  0  0  0  0  0  0
    6.5322    2.6251   -2.1080 C   0  0  0  0  0  0  0  0  0  0  0  0
    6.6642    2.6593   -3.3899 O   0  0  0  0  0  0  0  0  0  0  0  0
    7.6331    3.5932   -1.5274 C   0  0  2  0  0  0  0  0  0  0  0  0
    8.7838    3.7383   -2.3587 C   0  0  0  0  0  0  0  0  0  0  0  0
    9.7098    2.5714   -2.5907 C   0  0  0  0  0  0  0  0  0  0  0  0
    9.5617    5.0315   -2.1108 C   0  0  0  0  0  0  0  0  0  0  0  0
    7.7069    3.1637   -0.1702 N   0  0  0  0  0  0  0  0  0  0  0  0
    6.7001    3.1139    0.8563 C   0  0  0  0  0  0  0  0  0  0  0  0
    8.8616    2.6658    0.5523 C   0  0  0  0  0  0  0  0  0  0  0  0
    9.3366    3.8806    0.6427 O   0  0  0  0  0  0  0  0  0  0  0  0
    9.7796    1.7698    1.2158 C   0  0  0  0  0  0  0  0  0  0  0  0
    9.6576    0.3705    0.9002 N   0  0  0  0  0  0  0  0  0  0  0  0
   10.2738    0.1806   -0.3830 C   0  0  0  0  0  0  0  0  0  0  0  0
    9.2355   -0.8016    1.0041 C   0  0  0  0  0  0  0  0  0  0  0  0
    8.0434   -0.1682    1.5005 O   0  0  0  0  0  0  0  0  0  0  0  0
    9.1964   -2.2235    0.9293 C   0  0  2  0  0  0  0  0  0  0  0  0
   10.6946   -2.7111    0.8489 C   0  0  0  0  0  0  0  0  0  0  0  0
   10.5170   -3.6868   -0.3002 C   0  0  0  0  0  0  0  0  0  0  0  0
    9.0720   -4.1883    0.0568 C   0  0  0  0  0  0  0  0  0  0  0  0
    8.4293   -2.9327    0.0523 N   0  0  0  0  0  0  0  0  0  0  0  0
    7.4181   -2.6168   -0.8012 C   0  0  0  0  0  0  0  0  0  0  0  0
    7.5690   -1.4023   -0.9240 O   0  0  0  0  0  0  0  0  0  0  0  0
    6.2219   -3.3751   -1.5262 C   0  0  2  0  0  0  0  0  0  0  0  0
    5.2236   -2.3528   -1.7160 N   0  0  0  0  0  0  0  0  0  0  0  0
    5.1513   -1.0795   -2.4723 C   0  0  0  0  0  0  0  0  0  0  0  0
    6.1872   -1.1106   -3.1291 O   0  0  0  0  0  0  0  0  0  0  0  0
    5.7904   -4.3047   -0.4180 C   0  0  0  0  0  0  0  0  0  0  0  0
    4.5128   -5.0113   -0.7004 C   0  0  0  0  0  0  0  0  0  0  0  0
    5.6520   -3.4068    0.7819 C   0  0  0  0  0  0  0  0  0  0  0  0
   -4.1904   -1.0056   -1.3640 C   0  0  1  0  0  0  0  0  0  0  0  0
   -3.1865   -2.0183   -1.7316 C   0  0  0  0  0  0  0  0  0  0  0  0
   -4.8123   -0.8915   -0.1268 O   0  0  0  0  0  0  0  0  0  0  0  0
   -6.1721   -1.2280    0.1163 C   0  0  0  0  0  0  0  0  0  0  0  0
   -6.9603   -1.7259   -0.7826 O   0  0  0  0  0  0  0  0  0  0  0  0
   -6.6547   -0.9626    1.4311 C   0  0  2  0  0  0  0  0  0  0  0  0
   -5.5919   -1.1769    2.5686 C   0  0  0  0  0  0  0  0  0  0  0  0
   -4.5118   -0.1625    2.3059 C   0  0  0  0  0  0  0  0  0  0  0  0
   -5.0541   -2.5387    2.6202 C   0  0  0  0  0  0  0  0  0  0  0  0
   -7.9192   -1.3918    1.9115 N   0  0  0  0  0  0  0  0  0  0  0  0
   -8.0579   -2.8491    1.8160 C   0  0  0  0  0  0  0  0  0  0  0  0
   -9.0952   -1.0385    2.7001 C   0  0  0  0  0  0  0  0  0  0  0  0
   -8.2682   -0.5817    3.5471 O   0  0  0  0  0  0  0  0  0  0  0  0
  -10.5706   -1.3520    2.3096 C   0  0  0  0  0  0  0  0  0  0  0  0
  -10.6194   -1.0757    0.9152 N   0  0  0  0  0  0  0  0  0  0  0  0
  -11.9959   -0.5517    0.8345 C   0  0  0  0  0  0  0  0  0  0  0  0
  -10.5603   -1.0266   -0.4367 C   0  0  0  0  0  0  0  0  0  0  0  0
  -10.3009   -2.1984   -0.6844 O   0  0  0  0  0  0  0  0  0  0  0  0
   -7.6143    3.3868   -2.2139 C   0  0  0  0  0  0  0  0  0  0  0  0
   -6.5113    4.2181   -2.7834 C   0  0  0  0  0  0  0  0  0  0  0  0
   -7.8927    3.6749   -0.8145 C   0  0  0  0  0  0  0  0  0  0  0  0
  -11.1462    0.9335   -1.2178 H   0  0  0  0  0  0  0  0  0  0  0  0
  -12.1438    0.2014   -3.1368 H   0  0  0  0  0  0  0  0  0  0  0  0
  -12.4074   -1.3171   -2.1542 H   0  0  0  0  0  0  0  0  0  0  0  0
  -11.0270   -1.2650   -4.5795 H   0  0  0  0  0  0  0  0  0  0  0  0
  -10.8217   -2.4943   -3.2360 H   0  0  0  0  0  0  0  0  0  0  0  0
   -8.7938   -1.7963   -2.7291 H   0  0  0  0  0  0  0  0  0  0  0  0
   -8.8677   -0.6003   -4.0853 H   0  0  0  0  0  0  0  0  0  0  0  0
   -7.7081    1.8565   -3.7054 H   0  0  0  0  0  0  0  0  0  0  0  0
   -5.6117    1.2888   -3.3081 H   0  0  0  0  0  0  0  0  0  0  0  0
   -3.3768    0.3341   -2.8018 H   0  0  0  0  0  0  0  0  0  0  0  0
   -3.4054    1.1085   -0.0258 H   0  0  0  0  0  0  0  0  0  0  0  0
   -3.2749    2.6844    4.8381 H   0  0  0  0  0  0  0  0  0  0  0  0
   -1.5642    3.1724    4.9672 H   0  0  0  0  0  0  0  0  0  0  0  0
   -2.0283    1.3804    5.1029 H   0  0  0  0  0  0  0  0  0  0  0  0
   -3.5699    3.7213    2.5554 H   0  0  0  0  0  0  0  0  0  0  0  0
   -2.9392    3.8209    0.1347 H   0  0  0  0  0  0  0  0  0  0  0  0
   -0.1286   -2.0839    4.6878 H   0  0  0  0  0  0  0  0  0  0  0  0
   -0.0415   -0.5280    5.5521 H   0  0  0  0  0  0  0  0  0  0  0  0
    1.2727   -1.8312    5.7837 H   0  0  0  0  0  0  0  0  0  0  0  0
    5.1969   -1.1402    2.3655 H   0  0  0  0  0  0  0  0  0  0  0  0
    3.7237   -2.4570    2.0470 H   0  0  0  0  0  0  0  0  0  0  0  0
    2.1981   -0.7332   -1.4674 H   0  0  0  0  0  0  0  0  0  0  0  0
    3.4522   -0.2393   -3.2969 H   0  0  0  0  0  0  0  0  0  0  0  0
    4.8510    1.6034   -3.4530 H   0  0  0  0  0  0  0  0  0  0  0  0
    3.1314    2.9309   -2.9866 H   0  0  0  0  0  0  0  0  0  0  0  0
    3.6320    2.9129   -1.2852 H   0  0  0  0  0  0  0  0  0  0  0  0
    2.4713    1.6574   -1.9096 H   0  0  0  0  0  0  0  0  0  0  0  0
    6.8813    4.4772   -1.5474 H   0  0  0  0  0  0  0  0  0  0  0  0
    8.3953    3.9137   -3.4365 H   0  0  0  0  0  0  0  0  0  0  0  0
   10.3004    2.6190   -3.5045 H   0  0  0  0  0  0  0  0  0  0  0  0
   10.5306    2.6258   -1.7881 H   0  0  0  0  0  0  0  0  0  0  0  0
    9.1675    1.6317   -2.6151 H   0  0  0  0  0  0  0  0  0  0  0  0
    8.9488    5.7231   -1.4455 H   0  0  0  0  0  0  0  0  0  0  0  0
   10.5695    4.8525   -1.6528 H   0  0  0  0  0  0  0  0  0  0  0  0
    9.7388    5.5886   -3.0484 H   0  0  0  0  0  0  0  0  0  0  0  0
    5.6950    2.9847    0.4034 H   0  0  0  0  0  0  0  0  0  0  0  0
    6.7187    4.0367    1.4375 H   0  0  0  0  0  0  0  0  0  0  0  0
    6.8819    2.2082    1.5069 H   0  0  0  0  0  0  0  0  0  0  0  0
   10.7857    2.0819    1.2970 H   0  0  0  0  0  0  0  0  0  0  0  0
    9.3592    1.8414    2.3800 H   0  0  0  0  0  0  0  0  0  0  0  0
    9.4284    0.5047   -1.1215 H   0  0  0  0  0  0  0  0  0  0  0  0
   11.1616    0.8289   -0.5038 H   0  0  0  0  0  0  0  0  0  0  0  0
   10.5096   -0.7749   -0.8322 H   0  0  0  0  0  0  0  0  0  0  0  0
    8.9374   -2.5570    2.0412 H   0  0  0  0  0  0  0  0  0  0  0  0
   11.0203   -3.2627    1.7377 H   0  0  0  0  0  0  0  0  0  0  0  0
   11.4241   -1.9142    0.7292 H   0  0  0  0  0  0  0  0  0  0  0  0
   10.3904   -3.1862   -1.2497 H   0  0  0  0  0  0  0  0  0  0  0  0
   11.1966   -4.5215   -0.2110 H   0  0  0  0  0  0  0  0  0  0  0  0
    8.7468   -4.8832   -0.7329 H   0  0  0  0  0  0  0  0  0  0  0  0
    9.0593   -4.6919    1.0094 H   0  0  0  0  0  0  0  0  0  0  0  0
    6.6661   -3.7904   -2.4270 H   0  0  0  0  0  0  0  0  0  0  0  0
    4.2556   -2.4004   -1.3811 H   0  0  0  0  0  0  0  0  0  0  0  0
    6.6053   -5.0386   -0.1278 H   0  0  0  0  0  0  0  0  0  0  0  0
    3.6763   -4.2172   -0.5345 H   0  0  0  0  0  0  0  0  0  0  0  0
    4.4647   -5.3727   -1.7182 H   0  0  0  0  0  0  0  0  0  0  0  0
    4.3616   -5.7413    0.0903 H   0  0  0  0  0  0  0  0  0  0  0  0
    6.5331   -3.0459    1.2935 H   0  0  0  0  0  0  0  0  0  0  0  0
    5.0501   -3.9346    1.5215 H   0  0  0  0  0  0  0  0  0  0  0  0
    5.1102   -2.4924    0.4325 H   0  0  0  0  0  0  0  0  0  0  0  0
   -5.0809   -1.2202   -2.1208 H   0  0  0  0  0  0  0  0  0  0  0  0
   -2.1536   -1.6136   -1.6692 H   0  0  0  0  0  0  0  0  0  0  0  0
   -3.2830   -2.1446   -2.9054 H   0  0  0  0  0  0  0  0  0  0  0  0
   -3.3649   -3.0078   -1.3777 H   0  0  0  0  0  0  0  0  0  0  0  0
   -6.7064    0.2369    1.6076 H   0  0  0  0  0  0  0  0  0  0  0  0
   -6.0814   -0.9366    3.5307 H   0  0  0  0  0  0  0  0  0  0  0  0
   -3.6400   -0.5811    1.7846 H   0  0  0  0  0  0  0  0  0  0  0  0
   -4.9273    0.6636    1.6304 H   0  0  0  0  0  0  0  0  0  0  0  0
   -4.1888    0.3582    3.1984 H   0  0  0  0  0  0  0  0  0  0  0  0
   -4.8834   -3.0261    1.6462 H   0  0  0  0  0  0  0  0  0  0  0  0
   -5.6602   -3.2280    3.2906 H   0  0  0  0  0  0  0  0  0  0  0  0
   -4.0588   -2.5051    3.1042 H   0  0  0  0  0  0  0  0  0  0  0  0
   -8.0609   -3.2411    2.8971 H   0  0  0  0  0  0  0  0  0  0  0  0
   -9.0265   -3.1143    1.4339 H   0  0  0  0  0  0  0  0  0  0  0  0
   -7.3009   -3.3683    1.2467 H   0  0  0  0  0  0  0  0  0  0  0  0
  -10.7097   -2.4260    2.4800 H   0  0  0  0  0  0  0  0  0  0  0  0
  -11.2016   -0.7363    2.9465 H   0  0  0  0  0  0  0  0  0  0  0  0
  -12.3317   -0.2339    1.8328 H   0  0  0  0  0  0  0  0  0  0  0  0
  -12.6452   -1.5170    0.6808 H   0  0  0  0  0  0  0  0  0  0  0  0
  -12.2676    0.1750    0.1194 H   0  0  0  0  0  0  0  0  0  0  0  0
   -8.5496    3.7366   -2.8252 H   0  0  0  0  0  0  0  0  0  0  0  0
   -5.5954    4.0948   -2.1093 H   0  0  0  0  0  0  0  0  0  0  0  0
   -6.2555    4.0291   -3.8162 H   0  0  0  0  0  0  0  0  0  0  0  0
   -6.7877    5.2706   -2.6524 H   0  0  0  0  0  0  0  0  0  0  0  0
   -8.6224    4.5594   -0.7064 H   0  0  0  0  0  0  0  0  0  0  0  0
   -6.9965    4.0426   -0.2221 H   0  0  0  0  0  0  0  0  0  0  0  0
   -8.4024    2.8988   -0.2093 H   0  0  0  0  0  0  0  0  0  0  0  0
  1  2  1  0
  2  3  1  0
  3  4  1  0
  4  5  1  0
  5  6  1  0
  6  7  2  0
  6  8  1  0
  8  9  1  0
  9 10  1  0
 10 11  2  0
 10 12  1  0
 12 13  1  0
 13 14  1  0
 14 15  2  0
 14 16  1  0
 16 17  2  0
 17 18  1  0
 18 19  2  0
 19 20  1  0
 20 21  1  0
 21 22  1  0
 22 23  2  0
 23 24  1  0
 23 25  1  0
 25 26  2  0
 20 27  2  0
 27 28  1  0
 27 29  1  0
 29 30  2  0
 29 31  1  0
 31 32  1  0
 31 33  2  0
 33 34  1  0
 34 35  2  0
 34 36  1  0
 36 37  1  0
 37 38  1  0
 38 39  1  0
 38 40  1  0
 40 41  1  0
 41 42  2  0
 41 43  1  0
 43 44  1  0
 44 45  1  0
 44 46  1  0
 43 47  1  0
 47 48  1  0
 47 49  1  0
 49 50  2  0
 49 51  1  0
 51 52  1  0
 52 53  1  0
 52 54  1  0
 54 55  2  0
 54 56  1  0
 56 57  1  0
 57 58  1  0
 58 59  1  0
 59 60  1  0
 60 61  1  0
 61 62  2  0
 61 63  1  0
 63 64  1  0
 64 65  1  0
 65 66  2  0
 63 67  1  0
 67 68  1  0
 67 69  1  0
 12 70  1  0
 70 71  1  0
 70 72  1  0
 72 73  1  0
 73 74  2  0
 73 75  1  0
 75 76  1  0
 76 77  1  0
 76 78  1  0
 75 79  1  0
 79 80  1  0
 79 81  1  0
 81 82  2  0
 81 83  1  0
 83 84  1  0
 84 85  1  0
 84 86  1  0
 86 87  2  0
  8 88  1  0
 88 89  1  0
 88 90  1  0
  5  1  1  0
 26 16  1  0
 65 37  1  0
 86  1  1  0
 22 17  1  0
 60 56  1  0
 33 19  1  0
  1 91  1  1
  2 92  1  0
  2 93  1  0
  3 94  1  0
  3 95  1  0
  4 96  1  0
  4 97  1  0
  8 98  1  6
  9 99  1  0
 12100  1  6
 13101  1  0
 24102  1  0
 24103  1  0
 24104  1  0
 25105  1  0
 26106  1  0
 28107  1  0
 28108  1  0
 28109  1  0
 32110  1  0
 32111  1  0
 36112  1  0
 37113  1  6
 38114  1  6
 39115  1  0
 39116  1  0
 39117  1  0
 43118  1  1
 44119  1  0
 45120  1  0
 45121  1  0
 45122  1  0
 46123  1  0
 46124  1  0
 46125  1  0
 48126  1  0
 48127  1  0
 48128  1  0
 51129  1  0
 51130  1  0
 53131  1  0
 53132  1  0
 53133  1  0
 56134  1  1
 57135  1  0
 57136  1  0
 58137  1  0
 58138  1  0
 59139  1  0
 59140  1  0
 63141  1  6
 64142  1  0
 67143  1  0
 68144  1  0
 68145  1  0
 68146  1  0
 69147  1  0
 69148  1  0
 69149  1  0
 70150  1  6
 71151  1  0
 71152  1  0
 71153  1  0
 75154  1  6
 76155  1  0
 77156  1  0
 77157  1  0
 77158  1  0
 78159  1  0
 78160  1  0
 78161  1  0
 80162  1  0
 80163  1  0
 80164  1  0
 83165  1  0
 83166  1  0
 85167  1  0
 85168  1  0
 85169  1  0
 88170  1  0
 89171  1  0
 89172  1  0
 89173  1  0
 90174  1  0
 90175  1  0
 90176  1  0
M  END
$$$$
