@<TRIPOS>MOLECULE
*****
 69 71 0 0 0
SMALL
GASTEIGER

@<TRIPOS>ATOM
      1 C           6.4395   -1.2118    0.3454 C.3     1  UNL1       -0.0130
      2 N           5.3010   -0.9695   -0.5101 N.3     1  UNL1       -0.3069
      3 C           5.3718   -1.7590   -1.7035 C.3     1  UNL1       -0.0130
      4 C           5.1899    0.4327   -0.8271 C.3     1  UNL1        0.0141
      5 C           4.8006    1.2593    0.3548 C.3     1  UNL1        0.0275
      6 N           3.5388    0.9090    0.9188 N.am    1  UNL1       -0.2987
      7 C           2.3929    1.5790    0.3321 C.3     1  UNL1        0.0305
      8 C           1.4941    0.5914   -0.3767 C.3     1  UNL1        0.0308
      9 N           0.8307   -0.2467    0.5567 N.am    1  UNL1       -0.2955
     10 C          -0.4823   -0.0855    0.9679 C.2     1  UNL1        0.2490
     11 O          -0.8943   -1.0028    1.7927 O.2     1  UNL1       -0.2699
     12 C          -1.4785    0.9380    0.6257 C.ar    1  UNL1        0.0657
     13 C          -1.2416    2.1726    0.1427 C.ar    1  UNL1       -0.0370
     14 C          -2.2303    3.0409   -0.0932 C.ar    1  UNL1       -0.0023
     15 C          -2.2044    4.4399   -0.6204 C.3     1  UNL1       -0.0064
     16 C          -3.6364    4.9228   -0.6704 C.3     1  UNL1       -0.0556
     17 C          -1.4856    5.3249    0.4033 C.3     1  UNL1       -0.0556
     18 C          -1.5249    4.5370   -1.9539 C.3     1  UNL1       -0.0556
     19 S          -3.6818    2.1390    0.3770 S.2     1  UNL1       -0.0771
     20 C          -2.8162    0.6507    0.8562 C.ar    1  UNL1        0.0853
     21 N          -3.4265   -0.5596    1.3572 N.am    1  UNL1       -0.2629
     22 C          -3.7944   -1.6047    0.4760 C.2     1  UNL1        0.3085
     23 O          -3.5764   -1.4505   -0.7498 O.2     1  UNL1       -0.2521
     24 N          -4.3960   -2.8016    0.9653 N.am    1  UNL1       -0.2678
     25 C          -4.7718   -3.8733    0.1163 C.ar    1  UNL1        0.0546
     26 C          -5.9815   -4.0237   -0.4944 C.ar    1  UNL1       -0.0389
     27 C          -6.2757   -5.1105   -1.3119 C.ar    1  UNL1       -0.0585
     28 C          -5.3062   -6.0828   -1.5187 C.ar    1  UNL1       -0.0419
     29 C          -4.0716   -5.9579   -0.9137 C.ar    1  UNL1        0.0610
     30 CL         -2.8471   -7.1961   -1.1780 Cl      1  UNL1       -0.0820
     31 C          -3.8197   -4.8582   -0.1060 C.ar    1  UNL1        0.0804
     32 CL         -2.2360   -4.7342    0.6475 Cl      1  UNL1       -0.0801
     33 C           1.5262   -1.4071    1.1935 C.3     1  UNL1        0.0233
     34 C           2.3592   -0.9393    2.3566 C.3     1  UNL1        0.0399
     35 C           3.4659   -0.0404    1.9622 C.2     1  UNL1        0.2171
     36 O           4.5175   -0.1379    2.6758 O.2     1  UNL1       -0.2755
     37 H           6.1778   -1.7996    1.2510 H       1  UNL1        0.0391
     38 H           7.1769   -1.8316   -0.2312 H       1  UNL1        0.0391
     39 H           6.9701   -0.3013    0.6546 H       1  UNL1        0.0391
     40 H           4.8964   -2.7689   -1.5872 H       1  UNL1        0.0391
     41 H           6.4356   -1.8617   -2.0478 H       1  UNL1        0.0391
     42 H           4.8341   -1.2720   -2.5515 H       1  UNL1        0.0391
     43 H           4.4961    0.5908   -1.6850 H       1  UNL1        0.0442
     44 H           6.1919    0.7669   -1.2292 H       1  UNL1        0.0442
     45 H           5.5792    1.1115    1.1360 H       1  UNL1        0.0477
     46 H           4.8594    2.3330    0.0571 H       1  UNL1        0.0477
     47 H           1.8224    2.0705    1.1401 H       1  UNL1        0.0480
     48 H           2.7322    2.3705   -0.3918 H       1  UNL1        0.0480
     49 H           0.9211    1.0829   -1.1462 H       1  UNL1        0.0480
     50 H           2.1755   -0.1266   -0.9864 H       1  UNL1        0.0480
     51 H          -0.1964    2.5291   -0.0455 H       1  UNL1        0.0634
     52 H          -4.1994    4.4815   -1.4931 H       1  UNL1        0.0238
     53 H          -3.5832    6.0383   -0.7585 H       1  UNL1        0.0238
     54 H          -4.1493    4.6606    0.2690 H       1  UNL1        0.0238
     55 H          -0.5976    4.7643    0.7934 H       1  UNL1        0.0238
     56 H          -1.1385    6.2594   -0.0397 H       1  UNL1        0.0238
     57 H          -2.1363    5.5107    1.2886 H       1  UNL1        0.0238
     58 H          -0.5439    5.0505   -1.8054 H       1  UNL1        0.0238
     59 H          -1.3536    3.5001   -2.3226 H       1  UNL1        0.0238
     60 H          -2.1484    5.1262   -2.6635 H       1  UNL1        0.0238
     61 H          -3.6016   -0.6693    2.3937 H       1  UNL1        0.1569
     62 H          -4.5415   -2.8298    2.0172 H       1  UNL1        0.1564
     63 H          -6.7279   -3.2776   -0.3365 H       1  UNL1        0.0637
     64 H          -7.2356   -5.2251   -1.7934 H       1  UNL1        0.0619
     65 H          -5.5441   -6.9346   -2.1625 H       1  UNL1        0.0633
     66 H           0.7641   -2.1007    1.6031 H       1  UNL1        0.0469
     67 H           2.1364   -1.8600    0.4003 H       1  UNL1        0.0469
     68 H           1.6826   -0.4140    3.0680 H       1  UNL1        0.0374
     69 H           2.7962   -1.8584    2.8087 H       1  UNL1        0.0374
@<TRIPOS>BOND
     1     1     2    1
     2     2     3    1
     3     2     4    1
     4     4     5    1
     5     5     6    1
     6     6     7    1
     7     7     8    1
     8     8     9    1
     9     9    10   am
    10    10    11    2
    11    10    12    1
    12    12    13   ar
    13    13    14   ar
    14    14    15    1
    15    15    16    1
    16    15    17    1
    17    15    18    1
    18    14    19   ar
    19    19    20   ar
    20    20    21    1
    21    21    22   am
    22    22    23    2
    23    22    24   am
    24    24    25    1
    25    25    26   ar
    26    26    27   ar
    27    27    28   ar
    28    28    29   ar
    29    29    30    1
    30    29    31   ar
    31    31    32    1
    32     9    33    1
    33    33    34    1
    34    34    35    1
    35    35    36    2
    36    35     6   am
    37    20    12   ar
    38    31    25   ar
    39     1    37    1
    40     1    38    1
    41     1    39    1
    42     3    40    1
    43     3    41    1
    44     3    42    1
    45     4    43    1
    46     4    44    1
    47     5    45    1
    48     5    46    1
    49     7    47    1
    50     7    48    1
    51     8    49    1
    52     8    50    1
    53    13    51    1
    54    16    52    1
    55    16    53    1
    56    16    54    1
    57    17    55    1
    58    17    56    1
    59    17    57    1
    60    18    58    1
    61    18    59    1
    62    18    60    1
    63    21    61    1
    64    24    62    1
    65    26    63    1
    66    27    64    1
    67    28    65    1
    68    33    66    1
    69    33    67    1
    70    34    68    1
    71    34    69    1
