
     RDKit          3D

 69 71  0  0  0  0  0  0  0  0999 V2000
    6.4395   -1.2118    0.3454 C   0  0  0  0  0  0  0  0  0  0  0  0
    5.3010   -0.9695   -0.5101 N   0  0  0  0  0  0  0  0  0  0  0  0
    5.3718   -1.7590   -1.7035 C   0  0  0  0  0  0  0  0  0  0  0  0
    5.1899    0.4327   -0.8271 C   0  0  0  0  0  0  0  0  0  0  0  0
    4.8006    1.2593    0.3548 C   0  0  0  0  0  0  0  0  0  0  0  0
    3.5388    0.9090    0.9188 N   0  0  0  0  0  0  0  0  0  0  0  0
    2.3929    1.5790    0.3321 C   0  0  0  0  0  0  0  0  0  0  0  0
    1.4941    0.5914   -0.3767 C   0  0  0  0  0  0  0  0  0  0  0  0
    0.8307   -0.2467    0.5567 N   0  0  0  0  0  0  0  0  0  0  0  0
   -0.4823   -0.0855    0.9679 C   0  0  0  0  0  0  0  0  0  0  0  0
   -0.8943   -1.0028    1.7927 O   0  0  0  0  0  0  0  0  0  0  0  0
   -1.4785    0.9380    0.6257 C   0  0  0  0  0  0  0  0  0  0  0  0
   -1.2416    2.1726    0.1427 C   0  0  0  0  0  0  0  0  0  0  0  0
   -2.2303    3.0409   -0.0932 C   0  0  0  0  0  0  0  0  0  0  0  0
   -2.2044    4.4399   -0.6204 C   0  0  0  0  0  0  0  0  0  0  0  0
   -3.6364    4.9228   -0.6704 C   0  0  0  0  0  0  0  0  0  0  0  0
   -1.4856    5.3249    0.4033 C   0  0  0  0  0  0  0  0  0  0  0  0
   -1.5249    4.5370   -1.9539 C   0  0  0  0  0  0  0  0  0  0  0  0
   -3.6818    2.1390    0.3770 S   0  0  0  0  0  0  0  0  0  0  0  0
   -2.8162    0.6507    0.8562 C   0  0  0  0  0  0  0  0  0  0  0  0
   -3.4265   -0.5596    1.3572 N   0  0  0  0  0  0  0  0  0  0  0  0
   -3.7944   -1.6047    0.4760 C   0  0  0  0  0  0  0  0  0  0  0  0
   -3.5764   -1.4505   -0.7498 O   0  0  0  0  0  0  0  0  0  0  0  0
   -4.3960   -2.8016    0.9653 N   0  0  0  0  0  0  0  0  0  0  0  0
   -4.7718   -3.8733    0.1163 C   0  0  0  0  0  0  0  0  0  0  0  0
   -5.9815   -4.0237   -0.4944 C   0  0  0  0  0  0  0  0  0  0  0  0
   -6.2757   -5.1105   -1.3119 C   0  0  0  0  0  0  0  0  0  0  0  0
   -5.3062   -6.0828   -1.5187 C   0  0  0  0  0  0  0  0  0  0  0  0
   -4.0716   -5.9579   -0.9137 C   0  0  0  0  0  0  0  0  0  0  0  0
   -2.8471   -7.1961   -1.1780 Cl  0  0  0  0  0  0  0  0  0  0  0  0
   -3.8197   -4.8582   -0.1060 C   0  0  0  0  0  0  0  0  0  0  0  0
   -2.2360   -4.7342    0.6475 Cl  0  0  0  0  0  0  0  0  0  0  0  0
    1.5262   -1.4071    1.1935 C   0  0  0  0  0  0  0  0  0  0  0  0
    2.3592   -0.9393    2.3566 C   0  0  0  0  0  0  0  0  0  0  0  0
    3.4659   -0.0404    1.9622 C   0  0  0  0  0  0  0  0  0  0  0  0
    4.5175   -0.1379    2.6758 O   0  0  0  0  0  0  0  0  0  0  0  0
    6.1778   -1.7996    1.2510 H   0  0  0  0  0  0  0  0  0  0  0  0
    7.1769   -1.8316   -0.2312 H   0  0  0  0  0  0  0  0  0  0  0  0
    6.9701   -0.3013    0.6546 H   0  0  0  0  0  0  0  0  0  0  0  0
    4.8964   -2.7689   -1.5872 H   0  0  0  0  0  0  0  0  0  0  0  0
    6.4356   -1.8617   -2.0478 H   0  0  0  0  0  0  0  0  0  0  0  0
    4.8341   -1.2720   -2.5515 H   0  0  0  0  0  0  0  0  0  0  0  0
    4.4961    0.5908   -1.6850 H   0  0  0  0  0  0  0  0  0  0  0  0
    6.1919    0.7669   -1.2292 H   0  0  0  0  0  0  0  0  0  0  0  0
    5.5792    1.1115    1.1360 H   0  0  0  0  0  0  0  0  0  0  0  0
    4.8594    2.3330    0.0571 H   0  0  0  0  0  0  0  0  0  0  0  0
    1.8224    2.0705    1.1401 H   0  0  0  0  0  0  0  0  0  0  0  0
    2.7322    2.3705   -0.3918 H   0  0  0  0  0  0  0  0  0  0  0  0
    0.9211    1.0829   -1.1462 H   0  0  0  0  0  0  0  0  0  0  0  0
    2.1755   -0.1266   -0.9864 H   0  0  0  0  0  0  0  0  0  0  0  0
   -0.1964    2.5291   -0.0455 H   0  0  0  0  0  0  0  0  0  0  0  0
   -4.1994    4.4815   -1.4931 H   0  0  0  0  0  0  0  0  0  0  0  0
   -3.5832    6.0383   -0.7585 H   0  0  0  0  0  0  0  0  0  0  0  0
   -4.1493    4.6606    0.2690 H   0  0  0  0  0  0  0  0  0  0  0  0
   -0.5976    4.7643    0.7934 H   0  0  0  0  0  0  0  0  0  0  0  0
   -1.1385    6.2594   -0.0397 H   0  0  0  0  0  0  0  0  0  0  0  0
   -2.1363    5.5107    1.2886 H   0  0  0  0  0  0  0  0  0  0  0  0
   -0.5439    5.0505   -1.8054 H   0  0  0  0  0  0  0  0  0  0  0  0
   -1.3536    3.5001   -2.3226 H   0  0  0  0  0  0  0  0  0  0  0  0
   -2.1484    5.1262   -2.6635 H   0  0  0  0  0  0  0  0  0  0  0  0
   -3.6016   -0.6693    2.3937 H   0  0  0  0  0  0  0  0  0  0  0  0
   -4.5415   -2.8298    2.0172 H   0  0  0  0  0  0  0  0  0  0  0  0
   -6.7279   -3.2776   -0.3365 H   0  0  0  0  0  0  0  0  0  0  0  0
   -7.2356   -5.2251   -1.7934 H   0  0  0  0  0  0  0  0  0  0  0  0
   -5.5441   -6.9346   -2.1625 H   0  0  0  0  0  0  0  0  0  0  0  0
    0.7641   -2.1007    1.6031 H   0  0  0  0  0  0  0  0  0  0  0  0
    2.1364   -1.8600    0.4003 H   0  0  0  0  0  0  0  0  0  0  0  0
    1.6826   -0.4140    3.0680 H   0  0  0  0  0  0  0  0  0  0  0  0
    2.7962   -1.8584    2.8087 H   0  0  0  0  0  0  0  0  0  0  0  0
  1  2  1  0
  2  3  1  0
  2  4  1  0
  4  5  1  0
  5  6  1  0
  6  7  1  0
  7  8  1  0
  8  9  1  0
  9 10  1  0
 10 11  2  0
 10 12  1  0
 12 13  1  0
 13 14  2  0
 14 15  1  0
 15 16  1  0
 15 17  1  0
 15 18  1  0
 14 19  1  0
 19 20  1  0
 20 21  1  0
 21 22  1  0
 22 23  2  0
 22 24  1  0
 24 25  1  0
 25 26  2  0
 26 27  1  0
 27 28  2  0
 28 29  1  0
 29 30  1  0
 29 31  2  0
 31 32  1  0
  9 33  1  0
 33 34  1  0
 34 35  1  0
 35 36  2  0
 35  6  1  0
 20 12  2  0
 31 25  1  0
  1 37  1  0
  1 38  1  0
  1 39  1  0
  3 40  1  0
  3 41  1  0
  3 42  1  0
  4 43  1  0
  4 44  1  0
  5 45  1  0
  5 46  1  0
  7 47  1  0
  7 48  1  0
  8 49  1  0
  8 50  1  0
 13 51  1  0
 16 52  1  0
 16 53  1  0
 16 54  1  0
 17 55  1  0
 17 56  1  0
 17 57  1  0
 18 58  1  0
 18 59  1  0
 18 60  1  0
 21 61  1  0
 24 62  1  0
 26 63  1  0
 27 64  1  0
 28 65  1  0
 33 66  1  0
 33 67  1  0
 34 68  1  0
 34 69  1  0
M  END
$$$$
