@<TRIPOS>MOLECULE
*****
 48 52 0 0 0
SMALL
GASTEIGER

@<TRIPOS>ATOM
      1 N          -6.2228    1.9453   -0.4370 N.1     1  UNL1       -0.1908
      2 C          -6.1959    0.8196   -0.0815 C.1     1  UNL1        0.0999
      3 C          -6.1686   -0.5423    0.3232 C.ar    1  UNL1        0.0622
      4 C          -7.2190   -1.3897   -0.0531 C.ar    1  UNL1       -0.0085
      5 C          -7.2150   -2.7145    0.3246 C.ar    1  UNL1        0.1247
      6 F          -8.2160   -3.5580   -0.0235 F       1  UNL1       -0.2054
      7 C          -6.1810   -3.2247    1.0757 C.ar    1  UNL1       -0.0258
      8 C          -5.1703   -2.3665    1.4257 C.ar    1  UNL1       -0.0501
      9 C          -5.1223   -1.0313    1.0755 C.ar    1  UNL1       -0.0003
     10 C          -4.0240   -0.1582    1.4766 C.ar    1  UNL1       -0.0166
     11 C          -2.7081   -0.5837    1.3410 C.ar    1  UNL1       -0.0537
     12 C          -1.6473    0.2139    1.7138 C.ar    1  UNL1       -0.0572
     13 C          -1.8438    1.4734    2.2397 C.ar    1  UNL1       -0.0370
     14 C          -0.6975    2.3407    2.6473 C.3     1  UNL1        0.0278
     15 S          -0.1554    3.3636    1.2725 S.3     1  UNL1       -0.0609
     16 C           0.5184    2.2934    0.0101 C.ar    1  UNL1        0.2779
     17 N          -0.1286    1.7101   -1.0188 N.ar    1  UNL1       -0.1006
     18 N           0.7937    1.0207   -1.6672 N.ar    1  UNL1       -0.1065
     19 C           1.9868    1.1633   -1.0671 C.ar    1  UNL1        0.2493
     20 C           3.2428    0.5570   -1.4864 C.ar    1  UNL1        0.0422
     21 C           3.3032   -0.2505   -2.6012 C.ar    1  UNL1       -0.0458
     22 C           4.4716   -0.8412   -3.0209 C.ar    1  UNL1       -0.0156
     23 C           5.6496   -0.6355   -2.3162 C.ar    1  UNL1        0.1621
     24 C           5.6127    0.1671   -1.2001 C.ar    1  UNL1        0.1628
     25 C           4.4240    0.7466   -0.8036 C.ar    1  UNL1       -0.0040
     26 O           6.7966    0.3640   -0.5056 O.3     1  UNL1       -0.4849
     27 C           8.0422    0.2624   -1.1446 C.3     1  UNL1        0.1237
     28 C           8.0862   -0.8362   -2.1626 C.3     1  UNL1        0.1237
     29 O           6.8377   -1.1993   -2.6902 O.3     1  UNL1       -0.4849
     30 O           1.7794    1.9443   -0.0509 O.2     1  UNL1       -0.4110
     31 C          -3.1476    1.9007    2.3763 C.ar    1  UNL1       -0.0572
     32 C          -4.2107    1.1029    2.0033 C.ar    1  UNL1       -0.0537
     33 H          -8.0326   -1.0118   -0.6371 H       1  UNL1        0.0659
     34 H          -6.1737   -4.2659    1.3760 H       1  UNL1        0.0646
     35 H          -4.3336   -2.7299    2.0189 H       1  UNL1        0.0625
     36 H          -2.5690   -1.5837    0.9228 H       1  UNL1        0.0624
     37 H          -0.6295   -0.1280    1.6036 H       1  UNL1        0.0621
     38 H           0.1721    1.7482    2.9886 H       1  UNL1        0.0430
     39 H          -0.9592    3.0145    3.4952 H       1  UNL1        0.0430
     40 H           2.3921   -0.4264   -3.1698 H       1  UNL1        0.0626
     41 H           4.5235   -1.4827   -3.9055 H       1  UNL1        0.0655
     42 H           4.4383    1.3600    0.0652 H       1  UNL1        0.0663
     43 H           8.7957    0.0865   -0.3192 H       1  UNL1        0.0731
     44 H           8.2984    1.2627   -1.5501 H       1  UNL1        0.0731
     45 H           8.6850   -0.4480   -3.0388 H       1  UNL1        0.0731
     46 H           8.6351   -1.7122   -1.7443 H       1  UNL1        0.0731
     47 H          -3.2858    2.9049    2.7960 H       1  UNL1        0.0621
     48 H          -5.2277    1.4628    2.1234 H       1  UNL1        0.0624
@<TRIPOS>BOND
     1     1     2    3
     2     2     3    1
     3     3     4   ar
     4     4     5   ar
     5     5     6    1
     6     5     7   ar
     7     7     8   ar
     8     8     9   ar
     9     9    10    1
    10    10    11   ar
    11    11    12   ar
    12    12    13   ar
    13    13    14    1
    14    14    15    1
    15    15    16    1
    16    16    17   ar
    17    17    18   ar
    18    18    19   ar
    19    19    20    1
    20    20    21   ar
    21    21    22   ar
    22    22    23   ar
    23    23    24   ar
    24    24    25   ar
    25    24    26    1
    26    26    27    1
    27    27    28    1
    28    28    29    1
    29    19    30   ar
    30    13    31   ar
    31    31    32   ar
    32     9     3   ar
    33    32    10   ar
    34    30    16   ar
    35    25    20   ar
    36    29    23    1
    37     4    33    1
    38     7    34    1
    39     8    35    1
    40    11    36    1
    41    12    37    1
    42    14    38    1
    43    14    39    1
    44    21    40    1
    45    22    41    1
    46    25    42    1
    47    27    43    1
    48    27    44    1
    49    28    45    1
    50    28    46    1
    51    31    47    1
    52    32    48    1
