@<TRIPOS>MOLECULE
*****
 42 45 0 0 0
SMALL
GASTEIGER

@<TRIPOS>ATOM
      1 C          -6.2881   -0.1029   -1.5881 C.3     1  UNL1        0.0119
      2 N          -4.8981   -0.0582   -1.1754 N.ar    1  UNL1       -0.3479
      3 C          -3.9522   -0.9781   -1.4297 C.ar    1  UNL1        0.0146
      4 C          -2.7505   -0.5935   -0.8781 C.ar    1  UNL1        0.0258
      5 C          -1.4843   -1.3377   -0.9442 C.ar    1  UNL1        0.0768
      6 C          -1.4252   -2.5588   -1.6151 C.ar    1  UNL1       -0.0174
      7 C          -0.2488   -3.2675   -1.6862 C.ar    1  UNL1        0.0320
      8 N           0.8277   -2.7470   -1.0931 N.ar    1  UNL1       -0.2356
      9 C           0.8197   -1.5544   -0.4238 C.ar    1  UNL1        0.1603
     10 C           2.0348   -1.0641    0.1909 C.ar    1  UNL1        0.0192
     11 C           3.1999   -1.7625    0.1225 C.ar    1  UNL1       -0.0493
     12 C           4.3641   -1.2941    0.7107 C.ar    1  UNL1       -0.0362
     13 C           4.3566   -0.1106    1.3750 C.ar    1  UNL1        0.0879
     14 S           5.7723    0.5729    2.1545 S.O2    1  UNL1       -0.0059
     15 C           6.6450    1.6060    0.9878 C.3     1  UNL1        0.0596
     16 O           6.6165   -0.5412    2.6482 O.2     1  UNL1       -0.1696
     17 O           5.3339    1.4431    3.3116 O.2     1  UNL1       -0.1696
     18 C           3.1870    0.6124    1.4559 C.ar    1  UNL1       -0.0362
     19 C           2.0260    0.1284    0.8598 C.ar    1  UNL1       -0.0493
     20 N          -0.3537   -0.8973   -0.3811 N.ar    1  UNL1       -0.2272
     21 C          -2.9888    0.6132   -0.2651 C.ar    1  UNL1        0.0119
     22 C          -2.2129    1.4829    0.4408 C.ar    1  UNL1       -0.0338
     23 C          -2.7555    2.6450    0.9440 C.ar    1  UNL1        0.0283
     24 N          -4.0430    2.9134    0.7362 N.ar    1  UNL1       -0.2612
     25 C          -4.8767    2.1116    0.0522 C.ar    1  UNL1        0.0516
     26 C          -4.3349    0.9396   -0.4566 C.ar    1  UNL1        0.0678
     27 H          -6.9158   -0.6425   -0.8226 H       1  UNL1        0.0456
     28 H          -6.3955   -0.7372   -2.5166 H       1  UNL1        0.0456
     29 H          -6.7134    0.8850   -1.8003 H       1  UNL1        0.0456
     30 H          -4.0956   -1.9056   -1.9919 H       1  UNL1        0.0816
     31 H          -2.3227   -2.9120   -2.0642 H       1  UNL1        0.0654
     32 H          -0.1878   -4.2328   -2.2127 H       1  UNL1        0.0831
     33 H           3.2517   -2.7085   -0.3957 H       1  UNL1        0.0625
     34 H           5.2917   -1.8531    0.6547 H       1  UNL1        0.0637
     35 H           5.9301    2.0492    0.2798 H       1  UNL1        0.0468
     36 H           7.2103    2.4123    1.5076 H       1  UNL1        0.0468
     37 H           7.3315    0.9208    0.4258 H       1  UNL1        0.0468
     38 H           3.1258    1.5723    1.9793 H       1  UNL1        0.0637
     39 H           1.1176    0.6975    0.9270 H       1  UNL1        0.0625
     40 H          -1.1806    1.2235    0.5826 H       1  UNL1        0.0639
     41 H          -2.1011    3.3225    1.5078 H       1  UNL1        0.0830
     42 H          -5.9172    2.3310   -0.1143 H       1  UNL1        0.0851
@<TRIPOS>BOND
     1     1     2    1
     2     2     3   ar
     3     3     4   ar
     4     4     5    1
     5     5     6   ar
     6     6     7   ar
     7     7     8   ar
     8     8     9   ar
     9     9    10    1
    10    10    11   ar
    11    11    12   ar
    12    12    13   ar
    13    13    14    1
    14    14    15    1
    15    14    16    2
    16    14    17    2
    17    13    18   ar
    18    18    19   ar
    19     9    20   ar
    20     4    21   ar
    21    21    22   ar
    22    22    23   ar
    23    23    24   ar
    24    24    25   ar
    25    25    26   ar
    26    26     2   ar
    27    20     5   ar
    28    26    21   ar
    29    19    10   ar
    30     1    27    1
    31     1    28    1
    32     1    29    1
    33     3    30    1
    34     6    31    1
    35     7    32    1
    36    11    33    1
    37    12    34    1
    38    15    35    1
    39    15    36    1
    40    15    37    1
    41    18    38    1
    42    19    39    1
    43    22    40    1
    44    23    41    1
    45    25    42    1
