
     RDKit          3D

 42 45  0  0  0  0  0  0  0  0999 V2000
   -6.2881   -0.1029   -1.5881 C   0  0  0  0  0  0  0  0  0  0  0  0
   -4.8981   -0.0582   -1.1754 N   0  0  0  0  0  0  0  0  0  0  0  0
   -3.9522   -0.9781   -1.4297 C   0  0  0  0  0  0  0  0  0  0  0  0
   -2.7505   -0.5935   -0.8781 C   0  0  0  0  0  0  0  0  0  0  0  0
   -1.4843   -1.3377   -0.9442 C   0  0  0  0  0  0  0  0  0  0  0  0
   -1.4252   -2.5588   -1.6151 C   0  0  0  0  0  0  0  0  0  0  0  0
   -0.2488   -3.2675   -1.6862 C   0  0  0  0  0  0  0  0  0  0  0  0
    0.8277   -2.7470   -1.0931 N   0  0  0  0  0  0  0  0  0  0  0  0
    0.8197   -1.5544   -0.4238 C   0  0  0  0  0  0  0  0  0  0  0  0
    2.0348   -1.0641    0.1909 C   0  0  0  0  0  0  0  0  0  0  0  0
    3.1999   -1.7625    0.1225 C   0  0  0  0  0  0  0  0  0  0  0  0
    4.3641   -1.2941    0.7107 C   0  0  0  0  0  0  0  0  0  0  0  0
    4.3566   -0.1106    1.3750 C   0  0  0  0  0  0  0  0  0  0  0  0
    5.7723    0.5729    2.1545 S   0  0  0  0  0  6  0  0  0  0  0  0
    6.6450    1.6060    0.9878 C   0  0  0  0  0  0  0  0  0  0  0  0
    6.6165   -0.5412    2.6482 O   0  0  0  0  0  0  0  0  0  0  0  0
    5.3339    1.4431    3.3116 O   0  0  0  0  0  0  0  0  0  0  0  0
    3.1870    0.6124    1.4559 C   0  0  0  0  0  0  0  0  0  0  0  0
    2.0260    0.1284    0.8598 C   0  0  0  0  0  0  0  0  0  0  0  0
   -0.3537   -0.8973   -0.3811 N   0  0  0  0  0  0  0  0  0  0  0  0
   -2.9888    0.6132   -0.2651 C   0  0  0  0  0  0  0  0  0  0  0  0
   -2.2129    1.4829    0.4408 C   0  0  0  0  0  0  0  0  0  0  0  0
   -2.7555    2.6450    0.9440 C   0  0  0  0  0  0  0  0  0  0  0  0
   -4.0430    2.9134    0.7362 N   0  0  0  0  0  0  0  0  0  0  0  0
   -4.8767    2.1116    0.0522 C   0  0  0  0  0  0  0  0  0  0  0  0
   -4.3349    0.9396   -0.4566 C   0  0  0  0  0  0  0  0  0  0  0  0
   -6.9158   -0.6425   -0.8226 H   0  0  0  0  0  0  0  0  0  0  0  0
   -6.3955   -0.7372   -2.5166 H   0  0  0  0  0  0  0  0  0  0  0  0
   -6.7134    0.8850   -1.8003 H   0  0  0  0  0  0  0  0  0  0  0  0
   -4.0956   -1.9056   -1.9919 H   0  0  0  0  0  0  0  0  0  0  0  0
   -2.3227   -2.9120   -2.0642 H   0  0  0  0  0  0  0  0  0  0  0  0
   -0.1878   -4.2328   -2.2127 H   0  0  0  0  0  0  0  0  0  0  0  0
    3.2517   -2.7085   -0.3957 H   0  0  0  0  0  0  0  0  0  0  0  0
    5.2917   -1.8531    0.6547 H   0  0  0  0  0  0  0  0  0  0  0  0
    5.9301    2.0492    0.2798 H   0  0  0  0  0  0  0  0  0  0  0  0
    7.2103    2.4123    1.5076 H   0  0  0  0  0  0  0  0  0  0  0  0
    7.3315    0.9208    0.4258 H   0  0  0  0  0  0  0  0  0  0  0  0
    3.1258    1.5723    1.9793 H   0  0  0  0  0  0  0  0  0  0  0  0
    1.1176    0.6975    0.9270 H   0  0  0  0  0  0  0  0  0  0  0  0
   -1.1806    1.2235    0.5826 H   0  0  0  0  0  0  0  0  0  0  0  0
   -2.1011    3.3225    1.5078 H   0  0  0  0  0  0  0  0  0  0  0  0
   -5.9172    2.3310   -0.1143 H   0  0  0  0  0  0  0  0  0  0  0  0
  1  2  1  0
  2  3  1  0
  3  4  2  0
  4  5  1  0
  5  6  2  0
  6  7  1  0
  7  8  2  0
  8  9  1  0
  9 10  1  0
 10 11  2  0
 11 12  1  0
 12 13  2  0
 13 14  1  0
 14 15  1  0
 14 16  2  0
 14 17  2  0
 13 18  1  0
 18 19  2  0
  9 20  2  0
  4 21  1  0
 21 22  2  0
 22 23  1  0
 23 24  2  0
 24 25  1  0
 25 26  2  0
 26  2  1  0
 20  5  1  0
 26 21  1  0
 19 10  1  0
  1 27  1  0
  1 28  1  0
  1 29  1  0
  3 30  1  0
  6 31  1  0
  7 32  1  0
 11 33  1  0
 12 34  1  0
 15 35  1  0
 15 36  1  0
 15 37  1  0
 18 38  1  0
 19 39  1  0
 22 40  1  0
 23 41  1  0
 25 42  1  0
M  END
$$$$
