
     RDKit          3D

 52 54  0  0  0  0  0  0  0  0999 V2000
    2.1947   -0.4111   -1.3323 C   0  0  0  0  0  0  0  0  0  0  0  0
    2.0630    0.0241    0.1298 C   0  0  0  0  0  0  0  0  0  0  0  0
    2.1003    1.5298    0.1313 C   0  0  0  0  0  0  0  0  0  0  0  0
    3.1574   -0.5458    0.8130 O   0  0  0  0  0  0  0  0  0  0  0  0
    4.4562   -0.2453    0.4576 C   0  0  0  0  0  0  0  0  0  0  0  0
    5.0685    0.8298    1.0708 C   0  0  0  0  0  0  0  0  0  0  0  0
    6.3716    1.1998    0.7714 C   0  0  0  0  0  0  0  0  0  0  0  0
    7.0624    0.4668   -0.1645 C   0  0  0  0  0  0  0  0  0  0  0  0
    8.7133    0.9300   -0.5484 Cl  0  0  0  0  0  0  0  0  0  0  0  0
    6.4686   -0.6134   -0.7906 C   0  0  0  0  0  0  0  0  0  0  0  0
    5.1734   -0.9539   -0.4703 C   0  0  0  0  0  0  0  0  0  0  0  0
    0.8018   -0.5287    0.6396 C   0  0  0  0  0  0  0  0  0  0  0  0
    0.8220   -1.3834    1.5576 O   0  0  0  0  0  0  0  0  0  0  0  0
   -0.4811   -0.1505    0.1495 N   0  0  0  0  0  0  0  0  0  0  0  0
   -1.6864   -0.7230    0.6841 C   0  0  1  0  0  0  0  0  0  0  0  0
   -2.5838    0.3106    1.3238 C   0  0  0  0  0  0  0  0  0  0  0  0
   -3.5775   -0.4291    2.1884 C   0  0  0  0  0  0  0  0  0  0  0  0
   -3.7094   -1.8839    1.8048 C   0  0  0  0  0  0  0  0  0  0  0  0
   -3.6776   -2.0891    0.3159 C   0  0  0  0  0  0  0  0  0  0  0  0
   -2.4849   -1.4777   -0.3421 C   0  0  0  0  0  0  0  0  0  0  0  0
   -2.8992   -0.4968   -1.4133 C   0  0  0  0  0  0  0  0  0  0  0  0
   -3.7543    0.5973   -0.8815 C   0  0  2  0  0  0  0  0  0  0  0  0
   -3.9031    1.6459   -1.9139 C   0  0  0  0  0  0  0  0  0  0  0  0
   -3.3367    1.4979   -3.0219 O   0  0  0  0  0  0  0  0  0  0  0  0
   -4.6425    2.8054   -1.7341 O   0  0  0  0  0  0  0  0  0  0  0  0
   -3.2051    1.2517    0.3578 C   0  0  0  0  0  0  0  0  0  0  0  0
    3.0510    0.0678   -1.8243 H   0  0  0  0  0  0  0  0  0  0  0  0
    2.3668   -1.5048   -1.3307 H   0  0  0  0  0  0  0  0  0  0  0  0
    1.2323   -0.2463   -1.8645 H   0  0  0  0  0  0  0  0  0  0  0  0
    3.1313    1.8450   -0.1288 H   0  0  0  0  0  0  0  0  0  0  0  0
    1.8135    1.9235    1.1128 H   0  0  0  0  0  0  0  0  0  0  0  0
    1.4472    1.8743   -0.6940 H   0  0  0  0  0  0  0  0  0  0  0  0
    4.5150    1.3987    1.8052 H   0  0  0  0  0  0  0  0  0  0  0  0
    6.8228    2.0354    1.2595 H   0  0  0  0  0  0  0  0  0  0  0  0
    7.0629   -1.1499   -1.5171 H   0  0  0  0  0  0  0  0  0  0  0  0
    4.7246   -1.7999   -0.9683 H   0  0  0  0  0  0  0  0  0  0  0  0
   -0.4844    0.5633   -0.6162 H   0  0  0  0  0  0  0  0  0  0  0  0
   -1.4103   -1.4467    1.4790 H   0  0  0  0  0  0  0  0  0  0  0  0
   -1.9118    0.9190    1.9978 H   0  0  0  0  0  0  0  0  0  0  0  0
   -3.2157   -0.4246    3.2538 H   0  0  0  0  0  0  0  0  0  0  0  0
   -4.5715    0.0673    2.2228 H   0  0  0  0  0  0  0  0  0  0  0  0
   -4.7204   -2.2160    2.1617 H   0  0  0  0  0  0  0  0  0  0  0  0
   -2.9612   -2.5262    2.3262 H   0  0  0  0  0  0  0  0  0  0  0  0
   -4.6361   -1.7267   -0.1128 H   0  0  0  0  0  0  0  0  0  0  0  0
   -3.6517   -3.1918    0.1425 H   0  0  0  0  0  0  0  0  0  0  0  0
   -1.8430   -2.2414   -0.8328 H   0  0  0  0  0  0  0  0  0  0  0  0
   -3.4345   -0.9832   -2.2479 H   0  0  0  0  0  0  0  0  0  0  0  0
   -1.9787   -0.0503   -1.8618 H   0  0  0  0  0  0  0  0  0  0  0  0
   -4.7869    0.2365   -0.6494 H   0  0  0  0  0  0  0  0  0  0  0  0
   -4.4789    3.5878   -2.3486 H   0  0  0  0  0  0  0  0  0  0  0  0
   -2.5178    2.0885    0.0997 H   0  0  0  0  0  0  0  0  0  0  0  0
   -4.0759    1.7432    0.8696 H   0  0  0  0  0  0  0  0  0  0  0  0
  1  2  1  0
  2  3  1  0
  2  4  1  0
  4  5  1  0
  5  6  2  0
  6  7  1  0
  7  8  2  0
  8  9  1  0
  8 10  1  0
 10 11  2  0
  2 12  1  0
 12 13  2  0
 12 14  1  0
 14 15  1  0
 15 16  1  0
 16 17  1  0
 17 18  1  0
 18 19  1  0
 19 20  1  0
 20 21  1  0
 21 22  1  0
 22 23  1  0
 23 24  2  0
 23 25  1  0
 22 26  1  0
 11  5  1  0
 20 15  1  0
 26 16  1  0
  1 27  1  0
  1 28  1  0
  1 29  1  0
  3 30  1  0
  3 31  1  0
  3 32  1  0
  6 33  1  0
  7 34  1  0
 10 35  1  0
 11 36  1  0
 14 37  1  0
 15 38  1  1
 16 39  1  0
 17 40  1  0
 17 41  1  0
 18 42  1  0
 18 43  1  0
 19 44  1  0
 19 45  1  0
 20 46  1  0
 21 47  1  0
 21 48  1  0
 22 49  1  1
 25 50  1  0
 26 51  1  0
 26 52  1  0
M  END
$$$$
