@<TRIPOS>MOLECULE
*****
 52 54 0 0 0
SMALL
GASTEIGER

@<TRIPOS>ATOM
      1 C           2.1947   -0.4111   -1.3323 C.3     1  UNL1       -0.0165
      2 C           2.0630    0.0241    0.1298 C.3     1  UNL1        0.1799
      3 C           2.1003    1.5298    0.1313 C.3     1  UNL1       -0.0165
      4 O           3.1574   -0.5458    0.8130 O.3     1  UNL1       -0.4770
      5 C           4.4562   -0.2453    0.4576 C.ar    1  UNL1        0.1221
      6 C           5.0685    0.8298    1.0708 C.ar    1  UNL1       -0.0185
      7 C           6.3716    1.1998    0.7714 C.ar    1  UNL1       -0.0399
      8 C           7.0624    0.4668   -0.1645 C.ar    1  UNL1        0.0412
      9 CL          8.7133    0.9300   -0.5484 Cl      1  UNL1       -0.0835
     10 C           6.4686   -0.6134   -0.7906 C.ar    1  UNL1       -0.0399
     11 C           5.1734   -0.9539   -0.4703 C.ar    1  UNL1       -0.0185
     12 C           0.8018   -0.5287    0.6396 C.2     1  UNL1        0.2566
     13 O           0.8220   -1.3834    1.5576 O.2     1  UNL1       -0.2714
     14 N          -0.4811   -0.1505    0.1495 N.am    1  UNL1       -0.3087
     15 C          -1.6864   -0.7230    0.6841 C.3     1  UNL1        0.0289
     16 C          -2.5838    0.3106    1.3238 C.3     1  UNL1       -0.0216
     17 C          -3.5775   -0.4291    2.1884 C.3     1  UNL1       -0.0485
     18 C          -3.7094   -1.8839    1.8048 C.3     1  UNL1       -0.0524
     19 C          -3.6776   -2.0891    0.3159 C.3     1  UNL1       -0.0485
     20 C          -2.4849   -1.4777   -0.3421 C.3     1  UNL1       -0.0216
     21 C          -2.8992   -0.4968   -1.4133 C.3     1  UNL1       -0.0356
     22 C          -3.7543    0.5973   -0.8815 C.3     1  UNL1        0.0569
     23 C          -3.9031    1.6459   -1.9139 C.2     1  UNL1        0.3078
     24 O          -3.3367    1.4979   -3.0219 O.2     1  UNL1       -0.2507
     25 O          -4.6425    2.8054   -1.7341 O.3     1  UNL1       -0.4804
     26 C          -3.2051    1.2517    0.3578 C.3     1  UNL1       -0.0356
     27 H           3.0510    0.0678   -1.8243 H       1  UNL1        0.0273
     28 H           2.3668   -1.5048   -1.3307 H       1  UNL1        0.0273
     29 H           1.2323   -0.2463   -1.8645 H       1  UNL1        0.0273
     30 H           3.1313    1.8450   -0.1288 H       1  UNL1        0.0273
     31 H           1.8135    1.9235    1.1128 H       1  UNL1        0.0273
     32 H           1.4472    1.8743   -0.6940 H       1  UNL1        0.0273
     33 H           4.5150    1.3987    1.8052 H       1  UNL1        0.0654
     34 H           6.8228    2.0354    1.2595 H       1  UNL1        0.0633
     35 H           7.0629   -1.1499   -1.5171 H       1  UNL1        0.0633
     36 H           4.7246   -1.7999   -0.9683 H       1  UNL1        0.0654
     37 H          -0.4844    0.5633   -0.6162 H       1  UNL1        0.1491
     38 H          -1.4103   -1.4467    1.4790 H       1  UNL1        0.0504
     39 H          -1.9118    0.9190    1.9978 H       1  UNL1        0.0319
     40 H          -3.2157   -0.4246    3.2538 H       1  UNL1        0.0269
     41 H          -4.5715    0.0673    2.2228 H       1  UNL1        0.0269
     42 H          -4.7204   -2.2160    2.1617 H       1  UNL1        0.0265
     43 H          -2.9612   -2.5262    2.3262 H       1  UNL1        0.0265
     44 H          -4.6361   -1.7267   -0.1128 H       1  UNL1        0.0269
     45 H          -3.6517   -3.1918    0.1425 H       1  UNL1        0.0269
     46 H          -1.8430   -2.2414   -0.8328 H       1  UNL1        0.0319
     47 H          -3.4345   -0.9832   -2.2479 H       1  UNL1        0.0276
     48 H          -1.9787   -0.0503   -1.8618 H       1  UNL1        0.0276
     49 H          -4.7869    0.2365   -0.6494 H       1  UNL1        0.0413
     50 H          -4.4789    3.5878   -2.3486 H       1  UNL1        0.2951
     51 H          -2.5178    2.0885    0.0997 H       1  UNL1        0.0276
     52 H          -4.0759    1.7432    0.8696 H       1  UNL1        0.0276
@<TRIPOS>BOND
     1     1     2    1
     2     2     3    1
     3     2     4    1
     4     4     5    1
     5     5     6   ar
     6     6     7   ar
     7     7     8   ar
     8     8     9    1
     9     8    10   ar
    10    10    11   ar
    11     2    12    1
    12    12    13    2
    13    12    14   am
    14    14    15    1
    15    15    16    1
    16    16    17    1
    17    17    18    1
    18    18    19    1
    19    19    20    1
    20    20    21    1
    21    21    22    1
    22    22    23    1
    23    23    24    2
    24    23    25    1
    25    22    26    1
    26    11     5   ar
    27    20    15    1
    28    26    16    1
    29     1    27    1
    30     1    28    1
    31     1    29    1
    32     3    30    1
    33     3    31    1
    34     3    32    1
    35     6    33    1
    36     7    34    1
    37    10    35    1
    38    11    36    1
    39    14    37    1
    40    15    38    1
    41    16    39    1
    42    17    40    1
    43    17    41    1
    44    18    42    1
    45    18    43    1
    46    19    44    1
    47    19    45    1
    48    20    46    1
    49    21    47    1
    50    21    48    1
    51    22    49    1
    52    25    50    1
    53    26    51    1
    54    26    52    1
