@<TRIPOS>MOLECULE
*****
 48 49 0 0 0
SMALL
GASTEIGER

@<TRIPOS>ATOM
      1 C          -6.7705    0.0041   -0.1740 C.3     1  UNL1       -0.0652
      2 C          -5.2923   -0.0150    0.1499 C.3     1  UNL1       -0.0528
      3 C          -4.5975    1.0092   -0.7221 C.3     1  UNL1       -0.0189
      4 C          -3.0958    1.0298   -0.4342 C.3     1  UNL1        0.0899
      5 O          -2.5103   -0.2111   -0.6859 O.3     1  UNL1       -0.4852
      6 C          -1.1852   -0.5302   -0.5344 C.ar    1  UNL1        0.2038
      7 C          -0.3194   -0.3706   -1.5853 C.ar    1  UNL1        0.1654
      8 O          -0.7862    0.1138   -2.8004 O.3     1  UNL1       -0.4913
      9 C           0.0829    0.2938   -3.9148 C.3     1  UNL1        0.0790
     10 C           1.0394   -0.6846   -1.4726 C.ar    1  UNL1       -0.0126
     11 C           1.5277   -1.1645   -0.2840 C.ar    1  UNL1       -0.0358
     12 C           2.9645   -1.4891   -0.1759 C.3     1  UNL1        0.0025
     13 C           3.7769   -0.4159    0.4577 C.ar    1  UNL1        0.0146
     14 C           4.1658   -0.5322    1.8011 C.ar    1  UNL1        0.0379
     15 N           4.8899    0.4225    2.4026 N.ar    1  UNL1       -0.2227
     16 C           5.2816    1.5355    1.7614 C.ar    1  UNL1        0.2142
     17 N           6.0560    2.5412    2.4308 N.pl3   1  UNL1       -0.3274
     18 N           4.9209    1.6693    0.4738 N.ar    1  UNL1       -0.1999
     19 C           4.1845    0.7270   -0.1864 C.ar    1  UNL1        0.1247
     20 N           3.8426    0.9022   -1.5452 N.pl3   1  UNL1       -0.3428
     21 C           0.6585   -1.3289    0.7848 C.ar    1  UNL1       -0.0126
     22 C          -0.6966   -1.0108    0.6552 C.ar    1  UNL1        0.1654
     23 O          -1.5608   -1.1754    1.7208 O.3     1  UNL1       -0.4913
     24 C          -1.0504   -1.6743    2.9554 C.3     1  UNL1        0.0790
     25 H          -7.1945    0.9217    0.2395 H       1  UNL1        0.0230
     26 H          -6.8603   -0.0853   -1.2790 H       1  UNL1        0.0230
     27 H          -7.2910   -0.8651    0.3234 H       1  UNL1        0.0230
     28 H          -5.1179    0.2117    1.2280 H       1  UNL1        0.0264
     29 H          -4.9075   -1.0254   -0.1350 H       1  UNL1        0.0264
     30 H          -5.0538    1.9797   -0.5235 H       1  UNL1        0.0298
     31 H          -4.7811    0.7476   -1.7829 H       1  UNL1        0.0298
     32 H          -2.9568    1.3002    0.6545 H       1  UNL1        0.0696
     33 H          -2.6303    1.8184   -1.0403 H       1  UNL1        0.0696
     34 H          -0.4839    0.5966   -4.8174 H       1  UNL1        0.0660
     35 H           0.5313   -0.7046   -4.1539 H       1  UNL1        0.0660
     36 H           0.9192    0.9884   -3.6996 H       1  UNL1        0.0660
     37 H           1.6283   -0.5268   -2.3647 H       1  UNL1        0.0658
     38 H           3.3370   -1.7096   -1.2149 H       1  UNL1        0.0363
     39 H           3.0808   -2.4565    0.3809 H       1  UNL1        0.0363
     40 H           3.8404   -1.4359    2.2988 H       1  UNL1        0.0834
     41 H           5.6652    3.5140    2.6124 H       1  UNL1        0.1452
     42 H           7.0175    2.3910    2.7712 H       1  UNL1        0.1452
     43 H           3.9217    0.1028   -2.2068 H       1  UNL1        0.1437
     44 H           3.5125    1.8199   -1.9015 H       1  UNL1        0.1437
     45 H           1.0226   -1.7063    1.7311 H       1  UNL1        0.0658
     46 H          -0.2725   -1.0357    3.3755 H       1  UNL1        0.0660
     47 H          -0.5946   -2.6618    2.7497 H       1  UNL1        0.0660
     48 H          -1.8589   -1.8252    3.6876 H       1  UNL1        0.0660
@<TRIPOS>BOND
     1     1     2    1
     2     2     3    1
     3     3     4    1
     4     4     5    1
     5     5     6    1
     6     6     7   ar
     7     7     8    1
     8     8     9    1
     9     7    10   ar
    10    10    11   ar
    11    11    12    1
    12    12    13    1
    13    13    14   ar
    14    14    15   ar
    15    15    16   ar
    16    16    17    1
    17    16    18   ar
    18    18    19   ar
    19    19    20    1
    20    11    21   ar
    21    21    22   ar
    22    22    23    1
    23    23    24    1
    24    22     6   ar
    25    19    13   ar
    26     1    25    1
    27     1    26    1
    28     1    27    1
    29     2    28    1
    30     2    29    1
    31     3    30    1
    32     3    31    1
    33     4    32    1
    34     4    33    1
    35     9    34    1
    36     9    35    1
    37     9    36    1
    38    10    37    1
    39    12    38    1
    40    12    39    1
    41    14    40    1
    42    17    41    1
    43    17    42    1
    44    20    43    1
    45    20    44    1
    46    21    45    1
    47    24    46    1
    48    24    47    1
    49    24    48    1
