@<TRIPOS>MOLECULE
*****
 56 60 0 0 0
SMALL
GASTEIGER

@<TRIPOS>ATOM
      1 O          -8.2192   -1.9698   -0.3699 O.2     1  UNL1       -0.2510
      2 C          -7.5680   -1.0190   -0.8555 C.2     1  UNL1        0.3050
      3 O          -8.2306    0.0463   -1.4218 O.3     1  UNL1       -0.4806
      4 C          -6.0975   -1.0370   -0.8237 C.3     1  UNL1        0.0498
      5 C          -5.4376    0.1920   -1.3389 C.3     1  UNL1       -0.0049
      6 C          -5.8164    1.4208   -0.5499 C.3     1  UNL1        0.0518
      7 O          -5.2832    1.0666    0.7114 O.3     1  UNL1       -0.3730
      8 C          -3.9400    0.7009    0.4437 C.3     1  UNL1        0.0727
      9 C          -3.5429   -0.3206    1.4143 C.3     1  UNL1       -0.0079
     10 C          -2.2642   -0.1784    2.1475 C.3     1  UNL1        0.0161
     11 N          -1.4426    0.8914    1.5892 N.pl3   1  UNL1       -0.3150
     12 C          -0.1011    0.6617    1.2271 C.ar    1  UNL1        0.1212
     13 C           0.6993    1.6306    0.6821 C.ar    1  UNL1       -0.0210
     14 C           2.0328    1.3661    0.3348 C.ar    1  UNL1       -0.0464
     15 C           2.5596    0.1093    0.5413 C.ar    1  UNL1        0.0355
     16 C           3.9411   -0.2041    0.1929 C.ar    1  UNL1        0.1407
     17 N           4.8104    0.6665   -0.3485 N.ar    1  UNL1       -0.2277
     18 C           5.9978    0.0462   -0.5426 C.ar    1  UNL1        0.0900
     19 C           7.2134    0.4883   -1.0660 C.ar    1  UNL1       -0.0226
     20 C           8.2801   -0.3886   -1.1441 C.ar    1  UNL1        0.0569
     21 C           9.5953    0.0539   -1.6999 C.3     1  UNL1        0.4175
     22 F          10.4118    0.5094   -0.6811 F       1  UNL1       -0.1659
     23 F           9.4066    0.9828   -2.6887 F       1  UNL1       -0.1659
     24 F          10.1550   -1.0754   -2.2945 F       1  UNL1       -0.1659
     25 C           8.1193   -1.6840   -0.7020 C.ar    1  UNL1       -0.0480
     26 C           6.9366   -2.1479   -0.1825 C.ar    1  UNL1       -0.0357
     27 C           5.8682   -1.2574   -0.1080 C.ar    1  UNL1        0.0665
     28 N           4.6010   -1.3660    0.3314 N.ar    1  UNL1       -0.3378
     29 C           1.7191   -0.8358    1.0919 C.ar    1  UNL1        0.0403
     30 N           0.4345   -0.5557    1.4190 N.ar    1  UNL1       -0.2396
     31 C          -2.1397    2.1389    1.4651 C.3     1  UNL1        0.0161
     32 C          -3.1653    1.9638    0.3742 C.3     1  UNL1       -0.0079
     33 C          -3.9551    0.0915   -0.9540 C.3     1  UNL1       -0.0182
     34 H          -9.2209    0.2393   -1.2833 H       1  UNL1        0.2951
     35 H          -5.6739   -1.9638   -1.2739 H       1  UNL1        0.0381
     36 H          -5.8149   -1.1140    0.2689 H       1  UNL1        0.0381
     37 H          -5.5493    0.3401   -2.4304 H       1  UNL1        0.0329
     38 H          -5.2337    2.2889   -0.9209 H       1  UNL1        0.0563
     39 H          -6.8725    1.6065   -0.4308 H       1  UNL1        0.0563
     40 H          -3.5087   -1.3441    0.9236 H       1  UNL1        0.0308
     41 H          -4.3439   -0.4864    2.2014 H       1  UNL1        0.0308
     42 H          -2.4340    0.1184    3.2152 H       1  UNL1        0.0465
     43 H          -1.6676   -1.1320    2.2058 H       1  UNL1        0.0465
     44 H           0.2968    2.6058    0.5194 H       1  UNL1        0.0652
     45 H           2.6512    2.1472   -0.0959 H       1  UNL1        0.0626
     46 H           7.3467    1.4929   -1.4118 H       1  UNL1        0.0645
     47 H           8.9451   -2.3938   -0.7527 H       1  UNL1        0.0624
     48 H           6.7707   -3.1481    0.1721 H       1  UNL1        0.0639
     49 H           4.1527   -2.2170    0.7319 H       1  UNL1        0.1674
     50 H           2.1493   -1.8255    1.2498 H       1  UNL1        0.0837
     51 H          -2.6743    2.3223    2.4410 H       1  UNL1        0.0465
     52 H          -1.5320    3.0189    1.2808 H       1  UNL1        0.0465
     53 H          -2.5858    2.0461   -0.5896 H       1  UNL1        0.0308
     54 H          -3.7995    2.8763    0.3955 H       1  UNL1        0.0308
     55 H          -3.3641    0.6847   -1.6742 H       1  UNL1        0.0296
     56 H          -3.6155   -0.9613   -0.9361 H       1  UNL1        0.0296
@<TRIPOS>BOND
     1     1     2    2
     2     2     3    1
     3     2     4    1
     4     4     5    1
     5     5     6    1
     6     6     7    1
     7     7     8    1
     8     8     9    1
     9     9    10    1
    10    10    11    1
    11    11    12    1
    12    12    13   ar
    13    13    14   ar
    14    14    15   ar
    15    15    16    1
    16    16    17   ar
    17    17    18   ar
    18    18    19   ar
    19    19    20   ar
    20    20    21    1
    21    21    22    1
    22    21    23    1
    23    21    24    1
    24    20    25   ar
    25    25    26   ar
    26    26    27   ar
    27    27    28   ar
    28    15    29   ar
    29    29    30   ar
    30    11    31    1
    31    31    32    1
    32     8    33    1
    33    33     5    1
    34    32     8    1
    35    30    12   ar
    36    28    16   ar
    37    27    18   ar
    38     3    34    1
    39     4    35    1
    40     4    36    1
    41     5    37    1
    42     6    38    1
    43     6    39    1
    44     9    40    1
    45     9    41    1
    46    10    42    1
    47    10    43    1
    48    13    44    1
    49    14    45    1
    50    19    46    1
    51    25    47    1
    52    26    48    1
    53    28    49    1
    54    29    50    1
    55    31    51    1
    56    31    52    1
    57    32    53    1
    58    32    54    1
    59    33    55    1
    60    33    56    1
