
     RDKit          3D

 56 60  0  0  0  0  0  0  0  0999 V2000
   -8.2192   -1.9698   -0.3699 O   0  0  0  0  0  0  0  0  0  0  0  0
   -7.5680   -1.0190   -0.8555 C   0  0  0  0  0  0  0  0  0  0  0  0
   -8.2306    0.0463   -1.4218 O   0  0  0  0  0  0  0  0  0  0  0  0
   -6.0975   -1.0370   -0.8237 C   0  0  0  0  0  0  0  0  0  0  0  0
   -5.4376    0.1920   -1.3389 C   0  0  1  0  0  0  0  0  0  0  0  0
   -5.8164    1.4208   -0.5499 C   0  0  0  0  0  0  0  0  0  0  0  0
   -5.2832    1.0666    0.7114 O   0  0  0  0  0  0  0  0  0  0  0  0
   -3.9400    0.7009    0.4437 C   0  0  0  0  0  0  0  0  0  0  0  0
   -3.5429   -0.3206    1.4143 C   0  0  0  0  0  0  0  0  0  0  0  0
   -2.2642   -0.1784    2.1475 C   0  0  0  0  0  0  0  0  0  0  0  0
   -1.4426    0.8914    1.5892 N   0  0  0  0  0  0  0  0  0  0  0  0
   -0.1011    0.6617    1.2271 C   0  0  0  0  0  0  0  0  0  0  0  0
    0.6993    1.6306    0.6821 C   0  0  0  0  0  0  0  0  0  0  0  0
    2.0328    1.3661    0.3348 C   0  0  0  0  0  0  0  0  0  0  0  0
    2.5596    0.1093    0.5413 C   0  0  0  0  0  0  0  0  0  0  0  0
    3.9411   -0.2041    0.1929 C   0  0  0  0  0  0  0  0  0  0  0  0
    4.8104    0.6665   -0.3485 N   0  0  0  0  0  0  0  0  0  0  0  0
    5.9978    0.0462   -0.5426 C   0  0  0  0  0  0  0  0  0  0  0  0
    7.2134    0.4883   -1.0660 C   0  0  0  0  0  0  0  0  0  0  0  0
    8.2801   -0.3886   -1.1441 C   0  0  0  0  0  0  0  0  0  0  0  0
    9.5953    0.0539   -1.6999 C   0  0  0  0  0  0  0  0  0  0  0  0
   10.4118    0.5094   -0.6811 F   0  0  0  0  0  0  0  0  0  0  0  0
    9.4066    0.9828   -2.6887 F   0  0  0  0  0  0  0  0  0  0  0  0
   10.1550   -1.0754   -2.2945 F   0  0  0  0  0  0  0  0  0  0  0  0
    8.1193   -1.6840   -0.7020 C   0  0  0  0  0  0  0  0  0  0  0  0
    6.9366   -2.1479   -0.1825 C   0  0  0  0  0  0  0  0  0  0  0  0
    5.8682   -1.2574   -0.1080 C   0  0  0  0  0  0  0  0  0  0  0  0
    4.6010   -1.3660    0.3314 N   0  0  0  0  0  0  0  0  0  0  0  0
    1.7191   -0.8358    1.0919 C   0  0  0  0  0  0  0  0  0  0  0  0
    0.4345   -0.5557    1.4190 N   0  0  0  0  0  0  0  0  0  0  0  0
   -2.1397    2.1389    1.4651 C   0  0  0  0  0  0  0  0  0  0  0  0
   -3.1653    1.9638    0.3742 C   0  0  0  0  0  0  0  0  0  0  0  0
   -3.9551    0.0915   -0.9540 C   0  0  0  0  0  0  0  0  0  0  0  0
   -9.2209    0.2393   -1.2833 H   0  0  0  0  0  0  0  0  0  0  0  0
   -5.6739   -1.9638   -1.2739 H   0  0  0  0  0  0  0  0  0  0  0  0
   -5.8149   -1.1140    0.2689 H   0  0  0  0  0  0  0  0  0  0  0  0
   -5.5493    0.3401   -2.4304 H   0  0  0  0  0  0  0  0  0  0  0  0
   -5.2337    2.2889   -0.9209 H   0  0  0  0  0  0  0  0  0  0  0  0
   -6.8725    1.6065   -0.4308 H   0  0  0  0  0  0  0  0  0  0  0  0
   -3.5087   -1.3441    0.9236 H   0  0  0  0  0  0  0  0  0  0  0  0
   -4.3439   -0.4864    2.2014 H   0  0  0  0  0  0  0  0  0  0  0  0
   -2.4340    0.1184    3.2152 H   0  0  0  0  0  0  0  0  0  0  0  0
   -1.6676   -1.1320    2.2058 H   0  0  0  0  0  0  0  0  0  0  0  0
    0.2968    2.6058    0.5194 H   0  0  0  0  0  0  0  0  0  0  0  0
    2.6512    2.1472   -0.0959 H   0  0  0  0  0  0  0  0  0  0  0  0
    7.3467    1.4929   -1.4118 H   0  0  0  0  0  0  0  0  0  0  0  0
    8.9451   -2.3938   -0.7527 H   0  0  0  0  0  0  0  0  0  0  0  0
    6.7707   -3.1481    0.1721 H   0  0  0  0  0  0  0  0  0  0  0  0
    4.1527   -2.2170    0.7319 H   0  0  0  0  0  0  0  0  0  0  0  0
    2.1493   -1.8255    1.2498 H   0  0  0  0  0  0  0  0  0  0  0  0
   -2.6743    2.3223    2.4410 H   0  0  0  0  0  0  0  0  0  0  0  0
   -1.5320    3.0189    1.2808 H   0  0  0  0  0  0  0  0  0  0  0  0
   -2.5858    2.0461   -0.5896 H   0  0  0  0  0  0  0  0  0  0  0  0
   -3.7995    2.8763    0.3955 H   0  0  0  0  0  0  0  0  0  0  0  0
   -3.3641    0.6847   -1.6742 H   0  0  0  0  0  0  0  0  0  0  0  0
   -3.6155   -0.9613   -0.9361 H   0  0  0  0  0  0  0  0  0  0  0  0
  1  2  2  0
  2  3  1  0
  2  4  1  0
  4  5  1  0
  5  6  1  0
  6  7  1  0
  7  8  1  0
  8  9  1  0
  9 10  1  0
 10 11  1  0
 11 12  1  0
 12 13  2  0
 13 14  1  0
 14 15  2  0
 15 16  1  0
 16 17  2  0
 17 18  1  0
 18 19  2  0
 19 20  1  0
 20 21  1  0
 21 22  1  0
 21 23  1  0
 21 24  1  0
 20 25  2  0
 25 26  1  0
 26 27  2  0
 27 28  1  0
 15 29  1  0
 29 30  2  0
 11 31  1  0
 31 32  1  0
  8 33  1  0
 33  5  1  0
 32  8  1  0
 30 12  1  0
 28 16  1  0
 27 18  1  0
  3 34  1  0
  4 35  1  0
  4 36  1  0
  5 37  1  6
  6 38  1  0
  6 39  1  0
  9 40  1  0
  9 41  1  0
 10 42  1  0
 10 43  1  0
 13 44  1  0
 14 45  1  0
 19 46  1  0
 25 47  1  0
 26 48  1  0
 28 49  1  0
 29 50  1  0
 31 51  1  0
 31 52  1  0
 32 53  1  0
 32 54  1  0
 33 55  1  0
 33 56  1  0
M  END
$$$$
