
     RDKit          3D

 99103  0  0  0  0  0  0  0  0999 V2000
   14.7025    0.2357    0.1467 C   0  0  0  0  0  0  0  0  0  0  0  0
   13.7370   -0.2537   -0.7419 O   0  0  0  0  0  0  0  0  0  0  0  0
   12.9370    0.8046   -1.1312 C   0  0  0  0  0  0  0  0  0  0  0  0
   11.8552    0.4140   -2.0861 C   0  0  0  0  0  0  0  0  0  0  0  0
   10.9897   -0.5313   -1.5621 O   0  0  0  0  0  0  0  0  0  0  0  0
   10.3528   -0.1052   -0.4218 C   0  0  0  0  0  0  0  0  0  0  0  0
    9.3868   -1.1539    0.1311 C   0  0  0  0  0  0  0  0  0  0  0  0
    8.4080   -1.4798   -0.7655 O   0  0  0  0  0  0  0  0  0  0  0  0
    7.5923   -0.4475   -1.1796 C   0  0  0  0  0  0  0  0  0  0  0  0
    6.7773    0.2174   -0.1263 C   0  0  0  0  0  0  0  0  0  0  0  0
    5.8782   -0.5245    0.5516 O   0  0  0  0  0  0  0  0  0  0  0  0
    6.2453   -1.5951    1.2862 C   0  0  0  0  0  0  0  0  0  0  0  0
    5.0248   -2.2437    1.9282 C   0  0  0  0  0  0  0  0  0  0  0  0
    4.0886   -2.6923    1.0514 O   0  0  0  0  0  0  0  0  0  0  0  0
    3.4868   -1.8022    0.2199 C   0  0  0  0  0  0  0  0  0  0  0  0
    2.7075   -0.6994    0.9020 C   0  0  0  0  0  0  0  0  0  0  0  0
    2.1423    0.1562   -0.0329 O   0  0  0  0  0  0  0  0  0  0  0  0
    1.4059    1.1879    0.4684 C   0  0  0  0  0  0  0  0  0  0  0  0
    0.2022    0.8305    1.2695 C   0  0  0  0  0  0  0  0  0  0  0  0
   -0.7264    0.0846    0.5492 O   0  0  0  0  0  0  0  0  0  0  0  0
   -1.1890    0.7234   -0.5706 C   0  0  0  0  0  0  0  0  0  0  0  0
   -1.8975    2.0166   -0.3417 C   0  0  0  0  0  0  0  0  0  0  0  0
   -3.0202    1.9621    0.4343 O   0  0  0  0  0  0  0  0  0  0  0  0
   -4.0500    1.1833   -0.0149 C   0  0  1  0  0  0  0  0  0  0  0  0
   -4.3294    0.1183    1.0161 C   0  0  0  0  0  0  0  0  0  0  0  0
   -5.3222   -0.9278    0.5389 C   0  0  0  0  0  0  0  0  0  0  0  0
   -6.2142   -0.3764   -0.5158 C   0  0  1  0  0  0  0  0  0  0  0  0
   -5.5743   -0.6127   -1.7502 O   0  0  0  0  0  0  0  0  0  0  0  0
   -7.5538   -1.0683   -0.6201 C   0  0  1  0  0  0  0  0  0  0  0  0
   -8.4473   -0.8622    0.5452 C   0  0  0  0  0  0  0  0  0  0  0  0
   -7.9924    0.2329    1.4065 C   0  0  0  0  0  0  0  0  0  0  0  0
   -8.4346    0.4473    2.7185 C   0  0  0  0  0  0  0  0  0  0  0  0
   -7.9627    1.5056    3.5078 C   0  0  0  0  0  0  0  0  0  0  0  0
   -7.0125    2.3972    2.9895 C   0  0  0  0  0  0  0  0  0  0  0  0
   -6.5013    3.4676    3.7143 O   0  0  0  0  0  0  0  0  0  0  0  0
   -6.5203    2.2603    1.7032 C   0  0  0  0  0  0  0  0  0  0  0  0
   -7.0798    1.1803    1.0629 C   0  0  0  0  0  0  0  0  0  0  0  0
   -6.5116    1.0885   -0.3297 C   0  0  2  0  0  0  0  0  0  0  0  0
   -7.4479    1.5458   -1.3829 C   0  0  0  0  0  0  0  0  0  0  0  0
   -7.8599    0.5273   -2.3963 C   0  0  0  0  0  0  0  0  0  0  0  0
   -8.1600   -0.7727   -1.8924 N   0  0  0  0  0  0  0  0  0  0  0  0
   -9.5221   -1.1162   -2.0547 C   0  0  0  0  0  0  0  0  0  0  0  0
   -9.8825   -2.4651   -1.5512 C   0  0  0  0  0  0  0  0  0  0  0  0
  -10.3808   -3.3974   -2.3277 C   0  0  0  0  0  0  0  0  0  0  0  0
   -5.3041    1.9739   -0.2516 C   0  0  1  0  0  0  0  0  0  0  0  0
   -5.6180    2.8687    0.8122 O   0  0  0  0  0  0  0  0  0  0  0  0
   15.3286    1.0280   -0.3553 H   0  0  0  0  0  0  0  0  0  0  0  0
   14.1889    0.7070    0.9984 H   0  0  0  0  0  0  0  0  0  0  0  0
   15.4073   -0.5522    0.4472 H   0  0  0  0  0  0  0  0  0  0  0  0
   12.5422    1.2931   -0.2189 H   0  0  0  0  0  0  0  0  0  0  0  0
   13.5662    1.5938   -1.6259 H   0  0  0  0  0  0  0  0  0  0  0  0
   11.2700    1.3282   -2.3589 H   0  0  0  0  0  0  0  0  0  0  0  0
   12.3104   -0.0287   -2.9990 H   0  0  0  0  0  0  0  0  0  0  0  0
    9.8048    0.8252   -0.5458 H   0  0  0  0  0  0  0  0  0  0  0  0
   11.0883    0.0406    0.4278 H   0  0  0  0  0  0  0  0  0  0  0  0
    9.0397   -0.8586    1.1188 H   0  0  0  0  0  0  0  0  0  0  0  0
   10.0027   -2.0893    0.2926 H   0  0  0  0  0  0  0  0  0  0  0  0
    6.9371   -0.8001   -2.0363 H   0  0  0  0  0  0  0  0  0  0  0  0
    8.2515    0.3121   -1.6886 H   0  0  0  0  0  0  0  0  0  0  0  0
    7.4812    0.7953    0.5327 H   0  0  0  0  0  0  0  0  0  0  0  0
    6.1921    1.0471   -0.6358 H   0  0  0  0  0  0  0  0  0  0  0  0
    6.9265   -1.2191    2.1057 H   0  0  0  0  0  0  0  0  0  0  0  0
    6.8237   -2.3067    0.6991 H   0  0  0  0  0  0  0  0  0  0  0  0
    4.6491   -1.6214    2.7709 H   0  0  0  0  0  0  0  0  0  0  0  0
    5.4431   -3.1627    2.4379 H   0  0  0  0  0  0  0  0  0  0  0  0
    2.6896   -2.4000   -0.3348 H   0  0  0  0  0  0  0  0  0  0  0  0
    4.0983   -1.3906   -0.6033 H   0  0  0  0  0  0  0  0  0  0  0  0
    1.8878   -1.1011    1.5302 H   0  0  0  0  0  0  0  0  0  0  0  0
    3.3744   -0.1150    1.5626 H   0  0  0  0  0  0  0  0  0  0  0  0
    1.1927    1.8961   -0.3532 H   0  0  0  0  0  0  0  0  0  0  0  0
    2.0862    1.7545    1.1688 H   0  0  0  0  0  0  0  0  0  0  0  0
    0.5063    0.2280    2.1440 H   0  0  0  0  0  0  0  0  0  0  0  0
   -0.2127    1.7701    1.6963 H   0  0  0  0  0  0  0  0  0  0  0  0
   -1.9017    0.0165   -1.0634 H   0  0  0  0  0  0  0  0  0  0  0  0
   -0.3764    0.8499   -1.3490 H   0  0  0  0  0  0  0  0  0  0  0  0
   -2.0739    2.5532   -1.3212 H   0  0  0  0  0  0  0  0  0  0  0  0
   -1.1853    2.7063    0.1884 H   0  0  0  0  0  0  0  0  0  0  0  0
   -3.7953    0.6982   -0.9814 H   0  0  0  0  0  0  0  0  0  0  0  0
   -4.7057    0.6161    1.9301 H   0  0  0  0  0  0  0  0  0  0  0  0
   -3.3841   -0.3984    1.2940 H   0  0  0  0  0  0  0  0  0  0  0  0
   -5.8484   -1.2825    1.4432 H   0  0  0  0  0  0  0  0  0  0  0  0
   -4.7500   -1.7936    0.1437 H   0  0  0  0  0  0  0  0  0  0  0  0
   -5.3012   -1.5615   -1.7720 H   0  0  0  0  0  0  0  0  0  0  0  0
   -7.2994   -2.1653   -0.6697 H   0  0  0  0  0  0  0  0  0  0  0  0
   -9.4990   -0.6857    0.1840 H   0  0  0  0  0  0  0  0  0  0  0  0
   -8.5744   -1.8221    1.1354 H   0  0  0  0  0  0  0  0  0  0  0  0
   -9.1816   -0.2490    3.1354 H   0  0  0  0  0  0  0  0  0  0  0  0
   -8.3168    1.6559    4.5212 H   0  0  0  0  0  0  0  0  0  0  0  0
   -6.6620    4.4297    3.3884 H   0  0  0  0  0  0  0  0  0  0  0  0
   -8.3493    2.0711   -0.9444 H   0  0  0  0  0  0  0  0  0  0  0  0
   -6.9466    2.3725   -1.9676 H   0  0  0  0  0  0  0  0  0  0  0  0
   -7.1470    0.4941   -3.2735 H   0  0  0  0  0  0  0  0  0  0  0  0
   -8.7944    0.9298   -2.8631 H   0  0  0  0  0  0  0  0  0  0  0  0
   -9.7086   -1.1494   -3.1708 H   0  0  0  0  0  0  0  0  0  0  0  0
  -10.2372   -0.3363   -1.7104 H   0  0  0  0  0  0  0  0  0  0  0  0
   -9.8284   -2.9288   -0.5761 H   0  0  0  0  0  0  0  0  0  0  0  0
  -10.5194   -3.1327   -3.3722 H   0  0  0  0  0  0  0  0  0  0  0  0
  -10.7202   -4.4080   -2.2508 H   0  0  0  0  0  0  0  0  0  0  0  0
   -5.1758    2.5908   -1.1615 H   0  0  0  0  0  0  0  0  0  0  0  0
  1  2  1  0
  2  3  1  0
  3  4  1  0
  4  5  1  0
  5  6  1  0
  6  7  1  0
  7  8  1  0
  8  9  1  0
  9 10  1  0
 10 11  1  0
 11 12  1  0
 12 13  1  0
 13 14  1  0
 14 15  1  0
 15 16  1  0
 16 17  1  0
 17 18  1  0
 18 19  1  0
 19 20  1  0
 20 21  1  0
 21 22  1  0
 22 23  1  0
 23 24  1  0
 24 25  1  0
 25 26  1  0
 26 27  1  0
 27 28  1  6
 27 29  1  0
 29 30  1  0
 30 31  1  0
 31 32  2  0
 32 33  1  0
 33 34  2  0
 34 35  1  0
 34 36  1  0
 36 37  2  0
 37 38  1  0
 38 39  1  6
 39 40  1  0
 40 41  1  0
 41 42  1  0
 42 43  1  0
 43 44  2  0
 38 45  1  0
 45 46  1  0
 45 24  1  0
 38 27  1  0
 41 29  1  0
 37 31  1  0
 46 36  1  0
  1 47  1  0
  1 48  1  0
  1 49  1  0
  3 50  1  0
  3 51  1  0
  4 52  1  0
  4 53  1  0
  6 54  1  0
  6 55  1  0
  7 56  1  0
  7 57  1  0
  9 58  1  0
  9 59  1  0
 10 60  1  0
 10 61  1  0
 12 62  1  0
 12 63  1  0
 13 64  1  0
 13 65  1  0
 15 66  1  0
 15 67  1  0
 16 68  1  0
 16 69  1  0
 18 70  1  0
 18 71  1  0
 19 72  1  0
 19 73  1  0
 21 74  1  0
 21 75  1  0
 22 76  1  0
 22 77  1  0
 24 78  1  6
 25 79  1  0
 25 80  1  0
 26 81  1  0
 26 82  1  0
 28 83  1  0
 29 84  1  6
 30 85  1  0
 30 86  1  0
 32 87  1  0
 33 88  1  0
 35 89  1  0
 39 90  1  0
 39 91  1  0
 40 92  1  0
 40 93  1  0
 42 94  1  0
 42 95  1  0
 43 96  1  0
 44 97  1  0
 44 98  1  0
 45 99  1  6
M  END
$$$$
