@<TRIPOS>MOLECULE
*****
 29 30 0 0 0
SMALL
GASTEIGER

@<TRIPOS>ATOM
      1 N           3.7499    2.5505    0.5171 N.pl3   1  UNL1       -0.3274
      2 C           3.6448    1.1875    0.2104 C.ar    1  UNL1        0.2142
      3 N           4.7826    0.4835    0.0879 N.ar    1  UNL1       -0.2230
      4 C           4.7586   -0.8253   -0.2138 C.ar    1  UNL1        0.0344
      5 C           3.5384   -1.4482   -0.3993 C.ar    1  UNL1       -0.0033
      6 C           2.3495   -0.7345   -0.2768 C.ar    1  UNL1        0.1279
      7 N           1.1158   -1.4008   -0.5023 N.pl3   1  UNL1       -0.2993
      8 C          -0.1517   -0.7931   -0.3130 C.ar    1  UNL1        0.0325
      9 C          -1.2356   -1.3150   -1.0300 C.ar    1  UNL1       -0.0387
     10 C          -2.4881   -0.8058   -0.9001 C.ar    1  UNL1       -0.0336
     11 C          -2.7195    0.2666   -0.0318 C.ar    1  UNL1        0.1051
     12 S          -4.3664    0.8536    0.0400 S.O2    1  UNL1        0.0559
     13 N          -5.3461   -0.1119    1.1052 N.3     1  UNL1       -0.2035
     14 O          -4.9823    0.7433   -1.3299 O.2     1  UNL1       -0.1533
     15 O          -4.4113    2.2816    0.5170 O.2     1  UNL1       -0.1533
     16 C          -1.6900    0.7896    0.6738 C.ar    1  UNL1       -0.0336
     17 C          -0.4070    0.2596    0.5327 C.ar    1  UNL1       -0.0387
     18 N           2.4429    0.5673    0.0259 N.ar    1  UNL1       -0.1996
     19 H           3.3175    3.2568   -0.1178 H       1  UNL1        0.1452
     20 H           4.2437    2.9079    1.3600 H       1  UNL1        0.1452
     21 H           5.6776   -1.4176   -0.3177 H       1  UNL1        0.0832
     22 H           3.4762   -2.5228   -0.6449 H       1  UNL1        0.0667
     23 H           1.1432   -2.4137   -0.8322 H       1  UNL1        0.1536
     24 H          -1.0861   -2.1518   -1.7142 H       1  UNL1        0.0637
     25 H          -3.3013   -1.2367   -1.4747 H       1  UNL1        0.0638
     26 H          -5.6772   -0.9336    0.5472 H       1  UNL1        0.1442
     27 H          -4.8782   -0.3450    1.9971 H       1  UNL1        0.1442
     28 H          -1.8899    1.6130    1.3388 H       1  UNL1        0.0638
     29 H           0.3902    0.6950    1.1128 H       1  UNL1        0.0637
@<TRIPOS>BOND
     1     1     2    1
     2     2     3   ar
     3     3     4   ar
     4     4     5   ar
     5     5     6   ar
     6     6     7    1
     7     7     8    1
     8     8     9   ar
     9     9    10   ar
    10    10    11   ar
    11    11    12    1
    12    12    13    1
    13    12    14    2
    14    12    15    2
    15    11    16   ar
    16    16    17   ar
    17     6    18   ar
    18    18     2   ar
    19    17     8   ar
    20     1    19    1
    21     1    20    1
    22     4    21    1
    23     5    22    1
    24     7    23    1
    25     9    24    1
    26    10    25    1
    27    13    26    1
    28    13    27    1
    29    16    28    1
    30    17    29    1
