@<TRIPOS>MOLECULE
*****
 48 48 0 0 0
SMALL
GASTEIGER

@<TRIPOS>ATOM
      1 C           5.7659   -1.7696   -0.2869 C.3     1  UNL1       -0.0653
      2 C           4.5756   -0.9182   -0.6654 C.3     1  UNL1       -0.0559
      3 C           4.8583    0.5379   -0.3785 C.3     1  UNL1       -0.0533
      4 C           3.7173    1.4346   -0.7289 C.3     1  UNL1       -0.0531
      5 C           2.4523    1.0980    0.0340 C.3     1  UNL1       -0.0530
      6 C           1.4013    2.0791   -0.4214 C.3     1  UNL1       -0.0519
      7 C           0.0665    1.9123    0.2290 C.3     1  UNL1       -0.0402
      8 C          -0.4764    0.5546   -0.0594 C.3     1  UNL1       -0.0006
      9 N          -1.7760    0.3237    0.5384 N.3     1  UNL1       -0.2923
     10 C          -2.8256    1.1150   -0.0467 C.3     1  UNL1        0.0279
     11 C          -3.6296    0.3232   -1.0853 C.3     1  UNL1        0.0962
     12 O          -4.3998    1.2315   -1.8207 O.3     1  UNL1       -0.3879
     13 C          -4.5092   -0.6285   -0.2916 C.3     1  UNL1        0.1095
     14 O          -5.6082    0.0831    0.1925 O.3     1  UNL1       -0.3866
     15 C          -3.6701   -1.0999    0.8808 C.3     1  UNL1        0.1011
     16 O          -4.0487   -2.3817    1.2410 O.3     1  UNL1       -0.3875
     17 C          -2.1825   -1.0574    0.5227 C.3     1  UNL1        0.0621
     18 C          -1.4631   -1.8924    1.5502 C.3     1  UNL1        0.0622
     19 O          -1.8796   -3.2228    1.5133 O.3     1  UNL1       -0.3934
     20 H           6.4101   -1.2124    0.4497 H       1  UNL1        0.0230
     21 H           6.3853   -1.8975   -1.1947 H       1  UNL1        0.0230
     22 H           5.4150   -2.7259    0.1380 H       1  UNL1        0.0230
     23 H           3.7536   -1.2088    0.0544 H       1  UNL1        0.0263
     24 H           4.3025   -1.1079   -1.7002 H       1  UNL1        0.0263
     25 H           5.7228    0.8347   -1.0109 H       1  UNL1        0.0265
     26 H           5.1569    0.6917    0.6654 H       1  UNL1        0.0265
     27 H           3.5213    1.5236   -1.8050 H       1  UNL1        0.0265
     28 H           4.0043    2.4682   -0.3856 H       1  UNL1        0.0265
     29 H           2.6160    1.2699    1.1223 H       1  UNL1        0.0265
     30 H           2.1115    0.0701   -0.1599 H       1  UNL1        0.0265
     31 H           1.7997    3.1047   -0.1655 H       1  UNL1        0.0266
     32 H           1.3209    2.0938   -1.5476 H       1  UNL1        0.0266
     33 H          -0.6042    2.6830   -0.2384 H       1  UNL1        0.0278
     34 H           0.1998    2.1074    1.3147 H       1  UNL1        0.0278
     35 H          -0.4438    0.3707   -1.1341 H       1  UNL1        0.0427
     36 H           0.2106   -0.1804    0.4264 H       1  UNL1        0.0427
     37 H          -3.5680    1.3294    0.7789 H       1  UNL1        0.0453
     38 H          -2.5298    2.0907   -0.4261 H       1  UNL1        0.0453
     39 H          -2.9867   -0.2445   -1.7618 H       1  UNL1        0.0633
     40 H          -4.1969    2.1645   -1.5388 H       1  UNL1        0.2099
     41 H          -4.8589   -1.4820   -0.9099 H       1  UNL1        0.0646
     42 H          -5.5641    1.0490   -0.0354 H       1  UNL1        0.2100
     43 H          -3.8431   -0.4380    1.7549 H       1  UNL1        0.0636
     44 H          -5.0342   -2.4225    1.2042 H       1  UNL1        0.2100
     45 H          -2.0557   -1.5351   -0.4682 H       1  UNL1        0.0511
     46 H          -1.6071   -1.5236    2.5726 H       1  UNL1        0.0573
     47 H          -0.3840   -1.9216    1.2562 H       1  UNL1        0.0573
     48 H          -1.6224   -3.6738    0.6559 H       1  UNL1        0.2095
@<TRIPOS>BOND
     1     1     2    1
     2     2     3    1
     3     3     4    1
     4     4     5    1
     5     5     6    1
     6     6     7    1
     7     7     8    1
     8     8     9    1
     9     9    10    1
    10    10    11    1
    11    11    12    1
    12    11    13    1
    13    13    14    1
    14    13    15    1
    15    15    16    1
    16    15    17    1
    17    17    18    1
    18    18    19    1
    19    17     9    1
    20     1    20    1
    21     1    21    1
    22     1    22    1
    23     2    23    1
    24     2    24    1
    25     3    25    1
    26     3    26    1
    27     4    27    1
    28     4    28    1
    29     5    29    1
    30     5    30    1
    31     6    31    1
    32     6    32    1
    33     7    33    1
    34     7    34    1
    35     8    35    1
    36     8    36    1
    37    10    37    1
    38    10    38    1
    39    11    39    1
    40    12    40    1
    41    13    41    1
    42    14    42    1
    43    15    43    1
    44    16    44    1
    45    17    45    1
    46    18    46    1
    47    18    47    1
    48    19    48    1
