@<TRIPOS>MOLECULE
*****
 56 58 0 0 0
SMALL
GASTEIGER

@<TRIPOS>ATOM
      1 N           3.2603    1.1303    2.7082 N.am    1  UNL1       -0.3251
      2 C           2.5697    0.2307    1.8809 C.2     1  UNL1        0.2491
      3 O           1.5360   -0.3053    2.3159 O.2     1  UNL1       -0.2701
      4 C           3.1023   -0.0481    0.5099 C.ar    1  UNL1        0.1277
      5 C           4.2305    0.5323    0.0721 C.ar    1  UNL1        0.2370
      6 O           5.0406    1.4620    0.8171 O.3     1  UNL1       -0.4705
      7 C           6.1946    2.0114    0.2855 C.3     1  UNL1        0.1216
      8 C           7.2456    1.0325   -0.0896 C.ar    1  UNL1        0.0600
      9 C           8.2649    1.3825   -0.9526 C.ar    1  UNL1        0.1336
     10 F           8.2808    2.6372   -1.4442 F       1  UNL1       -0.2050
     11 C           9.2558    0.4729   -1.3154 C.ar    1  UNL1       -0.0119
     12 C           9.2490   -0.8126   -0.8201 C.ar    1  UNL1        0.0233
     13 BR         10.5858   -2.0947   -1.2877 Br      1  UNL1       -0.0501
     14 C           8.2214   -1.1663    0.0511 C.ar    1  UNL1       -0.0119
     15 C           7.2381   -0.2564    0.4083 C.ar    1  UNL1        0.1336
     16 F           6.2831   -0.7039    1.2733 F       1  UNL1       -0.2050
     17 N           4.6268    0.1916   -1.2073 N.ar    1  UNL1       -0.1724
     18 S           3.3323   -0.9902   -1.7727 S.2     1  UNL1        0.0315
     19 C           2.4409   -0.8980   -0.2889 C.ar    1  UNL1        0.1089
     20 N           1.2056   -1.6192   -0.0039 N.am    1  UNL1       -0.2619
     21 C          -0.0459   -1.0575   -0.2949 C.2     1  UNL1        0.3043
     22 O          -0.0872    0.0923   -0.8205 O.2     1  UNL1       -0.2525
     23 N          -1.2773   -1.7191   -0.0270 N.am    1  UNL1       -0.2991
     24 C          -2.5420   -1.0556   -0.3581 C.3     1  UNL1        0.0131
     25 C          -3.7076   -1.9220    0.0165 C.3     1  UNL1       -0.0362
     26 C          -4.9973   -1.2383   -0.3315 C.3     1  UNL1       -0.0388
     27 C          -5.1063    0.0620    0.3822 C.3     1  UNL1       -0.0011
     28 N          -6.3549    0.7476    0.1312 N.3     1  UNL1       -0.3023
     29 C          -6.5570    1.2151   -1.1868 C.3     1  UNL1       -0.0011
     30 C          -8.0253    1.5741   -1.2263 C.3     1  UNL1       -0.0390
     31 C          -8.6560    0.6916   -0.1844 C.3     1  UNL1       -0.0390
     32 C          -7.5177    0.0964    0.6166 C.3     1  UNL1       -0.0011
     33 H           4.2564    0.9876    2.9644 H       1  UNL1        0.1453
     34 H           2.7792    1.9637    3.0819 H       1  UNL1        0.1453
     35 H           6.6356    2.6565    1.0996 H       1  UNL1        0.0750
     36 H           5.9896    2.7294   -0.5463 H       1  UNL1        0.0750
     37 H          10.0647    0.7263   -1.9913 H       1  UNL1        0.0657
     38 H           8.1877   -2.1668    0.4546 H       1  UNL1        0.0657
     39 H           1.2924   -2.5442    0.4145 H       1  UNL1        0.1569
     40 H          -1.2756   -2.6576    0.3975 H       1  UNL1        0.1502
     41 H          -2.5749   -0.1245    0.2482 H       1  UNL1        0.0462
     42 H          -2.5583   -0.8430   -1.4403 H       1  UNL1        0.0462
     43 H          -3.5956   -2.8921   -0.5254 H       1  UNL1        0.0281
     44 H          -3.6673   -2.1799    1.1126 H       1  UNL1        0.0281
     45 H          -5.0264   -1.1429   -1.4380 H       1  UNL1        0.0278
     46 H          -5.8135   -1.9518   -0.0225 H       1  UNL1        0.0278
     47 H          -4.3135    0.7534   -0.0123 H       1  UNL1        0.0426
     48 H          -4.9639   -0.0816    1.4522 H       1  UNL1        0.0426
     49 H          -5.9265    2.1150   -1.3583 H       1  UNL1        0.0426
     50 H          -6.3802    0.4475   -1.9752 H       1  UNL1        0.0426
     51 H          -8.1518    2.6611   -0.9429 H       1  UNL1        0.0278
     52 H          -8.4582    1.3895   -2.2362 H       1  UNL1        0.0278
     53 H          -9.2515   -0.0969   -0.6941 H       1  UNL1        0.0278
     54 H          -9.3056    1.2888    0.5016 H       1  UNL1        0.0278
     55 H          -7.6898    0.2908    1.7135 H       1  UNL1        0.0426
     56 H          -7.5428   -1.0040    0.4702 H       1  UNL1        0.0426
@<TRIPOS>BOND
     1     1     2   am
     2     2     3    2
     3     2     4    1
     4     4     5   ar
     5     5     6    1
     6     6     7    1
     7     7     8    1
     8     8     9   ar
     9     9    10    1
    10     9    11   ar
    11    11    12   ar
    12    12    13    1
    13    12    14   ar
    14    14    15   ar
    15    15    16    1
    16     5    17   ar
    17    17    18   ar
    18    18    19   ar
    19    19    20    1
    20    20    21   am
    21    21    22    2
    22    21    23   am
    23    23    24    1
    24    24    25    1
    25    25    26    1
    26    26    27    1
    27    27    28    1
    28    28    29    1
    29    29    30    1
    30    30    31    1
    31    31    32    1
    32    19     4   ar
    33    32    28    1
    34    15     8   ar
    35     1    33    1
    36     1    34    1
    37     7    35    1
    38     7    36    1
    39    11    37    1
    40    14    38    1
    41    20    39    1
    42    23    40    1
    43    24    41    1
    44    24    42    1
    45    25    43    1
    46    25    44    1
    47    26    45    1
    48    26    46    1
    49    27    47    1
    50    27    48    1
    51    29    49    1
    52    29    50    1
    53    30    51    1
    54    30    52    1
    55    31    53    1
    56    31    54    1
    57    32    55    1
    58    32    56    1
