
     RDKit          3D

 56 58  0  0  0  0  0  0  0  0999 V2000
    3.2603    1.1303    2.7082 N   0  0  0  0  0  0  0  0  0  0  0  0
    2.5697    0.2307    1.8809 C   0  0  0  0  0  0  0  0  0  0  0  0
    1.5360   -0.3053    2.3159 O   0  0  0  0  0  0  0  0  0  0  0  0
    3.1023   -0.0481    0.5099 C   0  0  0  0  0  0  0  0  0  0  0  0
    4.2305    0.5323    0.0721 C   0  0  0  0  0  0  0  0  0  0  0  0
    5.0406    1.4620    0.8171 O   0  0  0  0  0  0  0  0  0  0  0  0
    6.1946    2.0114    0.2855 C   0  0  0  0  0  0  0  0  0  0  0  0
    7.2456    1.0325   -0.0896 C   0  0  0  0  0  0  0  0  0  0  0  0
    8.2649    1.3825   -0.9526 C   0  0  0  0  0  0  0  0  0  0  0  0
    8.2808    2.6372   -1.4442 F   0  0  0  0  0  0  0  0  0  0  0  0
    9.2558    0.4729   -1.3154 C   0  0  0  0  0  0  0  0  0  0  0  0
    9.2490   -0.8126   -0.8201 C   0  0  0  0  0  0  0  0  0  0  0  0
   10.5858   -2.0947   -1.2877 Br  0  0  0  0  0  0  0  0  0  0  0  0
    8.2214   -1.1663    0.0511 C   0  0  0  0  0  0  0  0  0  0  0  0
    7.2381   -0.2564    0.4083 C   0  0  0  0  0  0  0  0  0  0  0  0
    6.2831   -0.7039    1.2733 F   0  0  0  0  0  0  0  0  0  0  0  0
    4.6268    0.1916   -1.2073 N   0  0  0  0  0  0  0  0  0  0  0  0
    3.3323   -0.9902   -1.7727 S   0  0  0  0  0  0  0  0  0  0  0  0
    2.4409   -0.8980   -0.2889 C   0  0  0  0  0  0  0  0  0  0  0  0
    1.2056   -1.6192   -0.0039 N   0  0  0  0  0  0  0  0  0  0  0  0
   -0.0459   -1.0575   -0.2949 C   0  0  0  0  0  0  0  0  0  0  0  0
   -0.0872    0.0923   -0.8205 O   0  0  0  0  0  0  0  0  0  0  0  0
   -1.2773   -1.7191   -0.0270 N   0  0  0  0  0  0  0  0  0  0  0  0
   -2.5420   -1.0556   -0.3581 C   0  0  0  0  0  0  0  0  0  0  0  0
   -3.7076   -1.9220    0.0165 C   0  0  0  0  0  0  0  0  0  0  0  0
   -4.9973   -1.2383   -0.3315 C   0  0  0  0  0  0  0  0  0  0  0  0
   -5.1063    0.0620    0.3822 C   0  0  0  0  0  0  0  0  0  0  0  0
   -6.3549    0.7476    0.1312 N   0  0  0  0  0  0  0  0  0  0  0  0
   -6.5570    1.2151   -1.1868 C   0  0  0  0  0  0  0  0  0  0  0  0
   -8.0253    1.5741   -1.2263 C   0  0  0  0  0  0  0  0  0  0  0  0
   -8.6560    0.6916   -0.1844 C   0  0  0  0  0  0  0  0  0  0  0  0
   -7.5177    0.0964    0.6166 C   0  0  0  0  0  0  0  0  0  0  0  0
    4.2564    0.9876    2.9644 H   0  0  0  0  0  0  0  0  0  0  0  0
    2.7792    1.9637    3.0819 H   0  0  0  0  0  0  0  0  0  0  0  0
    6.6356    2.6565    1.0996 H   0  0  0  0  0  0  0  0  0  0  0  0
    5.9896    2.7294   -0.5463 H   0  0  0  0  0  0  0  0  0  0  0  0
   10.0647    0.7263   -1.9913 H   0  0  0  0  0  0  0  0  0  0  0  0
    8.1877   -2.1668    0.4546 H   0  0  0  0  0  0  0  0  0  0  0  0
    1.2924   -2.5442    0.4145 H   0  0  0  0  0  0  0  0  0  0  0  0
   -1.2756   -2.6576    0.3975 H   0  0  0  0  0  0  0  0  0  0  0  0
   -2.5749   -0.1245    0.2482 H   0  0  0  0  0  0  0  0  0  0  0  0
   -2.5583   -0.8430   -1.4403 H   0  0  0  0  0  0  0  0  0  0  0  0
   -3.5956   -2.8921   -0.5254 H   0  0  0  0  0  0  0  0  0  0  0  0
   -3.6673   -2.1799    1.1126 H   0  0  0  0  0  0  0  0  0  0  0  0
   -5.0264   -1.1429   -1.4380 H   0  0  0  0  0  0  0  0  0  0  0  0
   -5.8135   -1.9518   -0.0225 H   0  0  0  0  0  0  0  0  0  0  0  0
   -4.3135    0.7534   -0.0123 H   0  0  0  0  0  0  0  0  0  0  0  0
   -4.9639   -0.0816    1.4522 H   0  0  0  0  0  0  0  0  0  0  0  0
   -5.9265    2.1150   -1.3583 H   0  0  0  0  0  0  0  0  0  0  0  0
   -6.3802    0.4475   -1.9752 H   0  0  0  0  0  0  0  0  0  0  0  0
   -8.1518    2.6611   -0.9429 H   0  0  0  0  0  0  0  0  0  0  0  0
   -8.4582    1.3895   -2.2362 H   0  0  0  0  0  0  0  0  0  0  0  0
   -9.2515   -0.0969   -0.6941 H   0  0  0  0  0  0  0  0  0  0  0  0
   -9.3056    1.2888    0.5016 H   0  0  0  0  0  0  0  0  0  0  0  0
   -7.6898    0.2908    1.7135 H   0  0  0  0  0  0  0  0  0  0  0  0
   -7.5428   -1.0040    0.4702 H   0  0  0  0  0  0  0  0  0  0  0  0
  1  2  1  0
  2  3  2  0
  2  4  1  0
  4  5  1  0
  5  6  1  0
  6  7  1  0
  7  8  1  0
  8  9  2  0
  9 10  1  0
  9 11  1  0
 11 12  2  0
 12 13  1  0
 12 14  1  0
 14 15  2  0
 15 16  1  0
  5 17  2  0
 17 18  1  0
 18 19  1  0
 19 20  1  0
 20 21  1  0
 21 22  2  0
 21 23  1  0
 23 24  1  0
 24 25  1  0
 25 26  1  0
 26 27  1  0
 27 28  1  0
 28 29  1  0
 29 30  1  0
 30 31  1  0
 31 32  1  0
 19  4  2  0
 32 28  1  0
 15  8  1  0
  1 33  1  0
  1 34  1  0
  7 35  1  0
  7 36  1  0
 11 37  1  0
 14 38  1  0
 20 39  1  0
 23 40  1  0
 24 41  1  0
 24 42  1  0
 25 43  1  0
 25 44  1  0
 26 45  1  0
 26 46  1  0
 27 47  1  0
 27 48  1  0
 29 49  1  0
 29 50  1  0
 30 51  1  0
 30 52  1  0
 31 53  1  0
 31 54  1  0
 32 55  1  0
 32 56  1  0
M  END
$$$$
