@<TRIPOS>MOLECULE
*****
 54 58 0 0 0
SMALL
GASTEIGER

@<TRIPOS>ATOM
      1 N          -5.7266   -1.0858    0.8386 N.3     1  UNL1       -0.3239
      2 C          -5.0619    0.1341    0.4068 C.3     1  UNL1        0.0485
      3 C          -3.6809    0.1813    0.9826 C.3     1  UNL1        0.0299
      4 N          -2.7049    0.7843    0.1410 N.pl3   1  UNL1       -0.3253
      5 C          -1.5330    1.2735    0.7697 C.ar    1  UNL1        0.0542
      6 C          -1.4833    2.5261    1.3444 C.ar    1  UNL1       -0.0207
      7 C          -0.3553    2.9631    2.0172 C.ar    1  UNL1        0.0294
      8 N           0.7115    2.1706    2.1215 N.ar    1  UNL1       -0.2613
      9 C           0.6905    0.9241    1.5619 C.ar    1  UNL1        0.0506
     10 C          -0.3872    0.4416    0.8857 C.ar    1  UNL1        0.0732
     11 N          -0.4364   -0.7907    0.2932 N.pl3   1  UNL1       -0.2809
     12 C           0.5007   -1.7726   -0.0790 C.ar    1  UNL1        0.2213
     13 N           0.1605   -3.0573   -0.4543 N.ar    1  UNL1       -0.2205
     14 C           1.2061   -3.7602   -0.8100 C.ar    1  UNL1        0.0567
     15 C           2.2980   -2.9597   -0.6863 C.ar    1  UNL1        0.0871
     16 C           3.6493   -3.1018   -0.9041 C.ar    1  UNL1       -0.0325
     17 C           4.5365   -2.0830   -0.6888 C.ar    1  UNL1       -0.0304
     18 C           4.0394   -0.8554   -0.2309 C.ar    1  UNL1        0.1128
     19 C           4.9880    0.2436    0.0273 C.ar    1  UNL1        0.1259
     20 N           4.9135    1.0132    1.1145 N.ar    1  UNL1       -0.2505
     21 C           5.8135    1.9962    1.3279 C.ar    1  UNL1        0.0285
     22 C           6.8443    2.2463    0.4317 C.ar    1  UNL1       -0.0408
     23 C           6.9370    1.4651   -0.6928 C.ar    1  UNL1       -0.0228
     24 C           6.0021    0.4691   -0.8787 C.ar    1  UNL1        0.1508
     25 F           6.1248   -0.2964   -2.0124 F       1  UNL1       -0.2032
     26 N           2.7313   -0.7995   -0.0468 N.ar    1  UNL1       -0.1619
     27 N           1.8290   -1.7459   -0.2356 N.ar    1  UNL1       -0.1996
     28 C          -2.8023    0.9321   -1.2898 C.3     1  UNL1        0.0299
     29 C          -3.8790    0.0519   -1.8298 C.3     1  UNL1        0.0485
     30 N          -3.4453   -1.3117   -1.8603 N.3     1  UNL1       -0.3239
     31 C          -5.1430    0.2798   -1.0617 C.3     1  UNL1        0.0883
     32 O          -5.5959    1.5688   -1.3825 O.3     1  UNL1       -0.3886
     33 H          -5.0878   -1.8968    0.9117 H       1  UNL1        0.1186
     34 H          -6.6184   -1.2588    0.3649 H       1  UNL1        0.1186
     35 H          -5.6672    0.9654    0.8730 H       1  UNL1        0.0500
     36 H          -3.7166    0.7678    1.9503 H       1  UNL1        0.0480
     37 H          -3.3624   -0.8226    1.2875 H       1  UNL1        0.0480
     38 H          -2.3348    3.1838    1.2726 H       1  UNL1        0.0652
     39 H          -0.2940    3.9438    2.4699 H       1  UNL1        0.0830
     40 H           1.5552    0.3390    1.7268 H       1  UNL1        0.0849
     41 H          -1.4607   -1.1378    0.0270 H       1  UNL1        0.1551
     42 H           1.2770   -4.7888   -1.1549 H       1  UNL1        0.0852
     43 H           3.9877   -4.0667   -1.2593 H       1  UNL1        0.0640
     44 H           5.5855   -2.1707   -0.8490 H       1  UNL1        0.0641
     45 H           5.7907    2.6526    2.2101 H       1  UNL1        0.0830
     46 H           7.5732    3.0247    0.5752 H       1  UNL1        0.0634
     47 H           7.7455    1.6354   -1.4137 H       1  UNL1        0.0647
     48 H          -2.9478    1.9996   -1.5745 H       1  UNL1        0.0480
     49 H          -1.7926    0.6249   -1.6884 H       1  UNL1        0.0480
     50 H          -4.0803    0.4200   -2.8804 H       1  UNL1        0.0500
     51 H          -3.5535   -1.7421   -0.9206 H       1  UNL1        0.1186
     52 H          -2.4367   -1.3294   -2.1087 H       1  UNL1        0.1186
     53 H          -5.9591   -0.3954   -1.4465 H       1  UNL1        0.0625
     54 H          -5.9438    2.0077   -0.5726 H       1  UNL1        0.2099
@<TRIPOS>BOND
     1     1     2    1
     2     2     3    1
     3     3     4    1
     4     4     5    1
     5     5     6   ar
     6     6     7   ar
     7     7     8   ar
     8     8     9   ar
     9     9    10   ar
    10    10    11    1
    11    11    12    1
    12    12    13   ar
    13    13    14   ar
    14    14    15   ar
    15    15    16   ar
    16    16    17   ar
    17    17    18   ar
    18    18    19    1
    19    19    20   ar
    20    20    21   ar
    21    21    22   ar
    22    22    23   ar
    23    23    24   ar
    24    24    25    1
    25    18    26   ar
    26    26    27   ar
    27     4    28    1
    28    28    29    1
    29    29    30    1
    30    29    31    1
    31    31    32    1
    32    31     2    1
    33    10     5   ar
    34    27    12   ar
    35    27    15   ar
    36    24    19   ar
    37     1    33    1
    38     1    34    1
    39     2    35    1
    40     3    36    1
    41     3    37    1
    42     6    38    1
    43     7    39    1
    44     9    40    1
    45    11    41    1
    46    14    42    1
    47    16    43    1
    48    17    44    1
    49    21    45    1
    50    22    46    1
    51    23    47    1
    52    28    48    1
    53    28    49    1
    54    29    50    1
    55    30    51    1
    56    30    52    1
    57    31    53    1
    58    32    54    1
