
     RDKit          3D

 51 56  0  0  0  0  0  0  0  0999 V2000
   -6.8154   -2.2616   -1.2794 C   0  0  0  0  0  0  0  0  0  0  0  0
   -5.6851   -2.2517   -0.4537 C   0  0  0  0  0  0  0  0  0  0  0  0
   -5.2992   -1.0632    0.1295 C   0  0  0  0  0  0  0  0  0  0  0  0
   -4.1218   -1.0597    0.9877 C   0  0  0  0  0  0  0  0  0  0  0  0
   -4.0850   -1.2812    2.3591 C   0  0  0  0  0  0  0  0  0  0  0  0
   -2.8132   -1.1941    2.7798 N   0  0  0  0  0  0  0  0  0  0  0  0
   -2.0374   -0.9269    1.7377 N   0  0  0  0  0  0  0  0  0  0  0  0
   -0.7009   -0.7457    1.6360 C   0  0  0  0  0  0  0  0  0  0  0  0
   -0.0774   -0.4709    0.4340 C   0  0  0  0  0  0  0  0  0  0  0  0
    1.3646   -0.2804    0.3548 C   0  0  0  0  0  0  0  0  0  0  0  0
    2.0419   -0.0056   -0.8072 C   0  0  0  0  0  0  0  0  0  0  0  0
    3.4345    0.1718   -0.8433 C   0  0  0  0  0  0  0  0  0  0  0  0
    4.1804    0.0741    0.3068 C   0  0  0  0  0  0  0  0  0  0  0  0
    5.5540    0.2383    0.3364 O   0  0  0  0  0  0  0  0  0  0  0  0
    6.4039    0.5161   -0.7151 C   0  0  1  0  0  0  0  0  0  0  0  0
    7.1810    1.7833   -0.3429 C   0  0  0  0  0  0  0  0  0  0  0  0
    8.1205    1.2146    0.7217 C   0  0  0  0  0  0  0  0  0  0  0  0
    8.5999    0.0207    0.0506 N   0  0  0  0  0  0  0  0  0  0  0  0
    7.5149   -0.5157   -0.7134 C   0  0  0  0  0  0  0  0  0  0  0  0
    3.4652   -0.2058    1.4707 C   0  0  0  0  0  0  0  0  0  0  0  0
    2.1339   -0.3709    1.4785 N   0  0  0  0  0  0  0  0  0  0  0  0
   -0.8691   -0.3840   -0.6845 C   0  0  0  0  0  0  0  0  0  0  0  0
   -2.2151   -0.5738   -0.5374 N   0  0  0  0  0  0  0  0  0  0  0  0
   -2.7999   -0.8385    0.6319 C   0  0  0  0  0  0  0  0  0  0  0  0
   -6.0331    0.0690   -0.1170 C   0  0  0  0  0  0  0  0  0  0  0  0
   -5.6154    1.2358    0.4839 C   0  0  0  0  0  0  0  0  0  0  0  0
   -6.3633    2.3630    0.2259 C   0  0  0  0  0  0  0  0  0  0  0  0
   -7.4738    2.3359   -0.5896 C   0  0  0  0  0  0  0  0  0  0  0  0
   -7.8708    1.1935   -1.1692 N   0  0  0  0  0  0  0  0  0  0  0  0
   -7.1643    0.0757   -0.9390 C   0  0  0  0  0  0  0  0  0  0  0  0
   -7.5418   -1.1196   -1.5179 C   0  0  0  0  0  0  0  0  0  0  0  0
   -7.1209   -3.1957   -1.7393 H   0  0  0  0  0  0  0  0  0  0  0  0
   -5.1565   -3.1902   -0.3075 H   0  0  0  0  0  0  0  0  0  0  0  0
   -4.9324   -1.4906    2.9972 H   0  0  0  0  0  0  0  0  0  0  0  0
   -0.0475   -0.8087    2.5060 H   0  0  0  0  0  0  0  0  0  0  0  0
    1.4991    0.0804   -1.7339 H   0  0  0  0  0  0  0  0  0  0  0  0
    3.9282    0.3874   -1.7830 H   0  0  0  0  0  0  0  0  0  0  0  0
    5.9204    0.6160   -1.6835 H   0  0  0  0  0  0  0  0  0  0  0  0
    6.5362    2.5726    0.0398 H   0  0  0  0  0  0  0  0  0  0  0  0
    7.7877    2.0526   -1.2095 H   0  0  0  0  0  0  0  0  0  0  0  0
    7.5344    0.9865    1.6357 H   0  0  0  0  0  0  0  0  0  0  0  0
    8.9640    1.9118    0.9144 H   0  0  0  0  0  0  0  0  0  0  0  0
    9.3581    0.3079   -0.6076 H   0  0  0  0  0  0  0  0  0  0  0  0
    7.1702   -1.4717   -0.2668 H   0  0  0  0  0  0  0  0  0  0  0  0
    7.8076   -0.7417   -1.7691 H   0  0  0  0  0  0  0  0  0  0  0  0
    4.0432   -0.2852    2.3846 H   0  0  0  0  0  0  0  0  0  0  0  0
   -0.4790   -0.1730   -1.6734 H   0  0  0  0  0  0  0  0  0  0  0  0
   -4.7319    1.2419    1.1288 H   0  0  0  0  0  0  0  0  0  0  0  0
   -6.0569    3.2979    0.6868 H   0  0  0  0  0  0  0  0  0  0  0  0
   -8.0235    3.2789   -0.7501 H   0  0  0  0  0  0  0  0  0  0  0  0
   -8.4133   -1.1197   -2.1525 H   0  0  0  0  0  0  0  0  0  0  0  0
  1  2  2  0
  2  3  1  0
  3  4  1  0
  4  5  1  0
  5  6  2  0
  6  7  1  0
  7  8  1  0
  8  9  2  0
  9 10  1  0
 10 11  2  0
 11 12  1  0
 12 13  2  0
 13 14  1  0
 14 15  1  0
 15 16  1  0
 16 17  1  0
 17 18  1  0
 18 19  1  0
 13 20  1  0
 20 21  2  0
  9 22  1  0
 22 23  2  0
 23 24  1  0
  3 25  2  0
 25 26  1  0
 26 27  2  0
 27 28  1  0
 28 29  2  0
 29 30  1  0
 30 31  2  0
 31  1  1  0
 24  4  2  0
 30 25  1  0
 24  7  1  0
 21 10  1  0
 19 15  1  0
  1 32  1  0
  2 33  1  0
  5 34  1  0
  8 35  1  0
 11 36  1  0
 12 37  1  0
 15 38  1  6
 16 39  1  0
 16 40  1  0
 17 41  1  0
 17 42  1  0
 18 43  1  0
 19 44  1  0
 19 45  1  0
 20 46  1  0
 22 47  1  0
 26 48  1  0
 27 49  1  0
 28 50  1  0
 31 51  1  0
M  END
$$$$
