@<TRIPOS>MOLECULE
*****
 51 56 0 0 0
SMALL
GASTEIGER

@<TRIPOS>ATOM
      1 C          -6.8154   -2.2616   -1.2794 C.ar    1  UNL1       -0.0591
      2 C          -5.6851   -2.2517   -0.4537 C.ar    1  UNL1       -0.0532
      3 C          -5.2992   -1.0632    0.1295 C.ar    1  UNL1       -0.0037
      4 C          -4.1218   -1.0597    0.9877 C.ar    1  UNL1        0.0466
      5 C          -4.0850   -1.2812    2.3591 C.ar    1  UNL1        0.0597
      6 N          -2.8132   -1.1941    2.7798 N.ar    1  UNL1       -0.1727
      7 N          -2.0374   -0.9269    1.7377 N.ar    1  UNL1       -0.2205
      8 C          -0.7009   -0.7457    1.6360 C.ar    1  UNL1        0.0420
      9 C          -0.0774   -0.4709    0.4340 C.ar    1  UNL1        0.0366
     10 C           1.3646   -0.2804    0.3548 C.ar    1  UNL1        0.0741
     11 C           2.0419   -0.0056   -0.8072 C.ar    1  UNL1       -0.0321
     12 C           3.4345    0.1718   -0.8433 C.ar    1  UNL1       -0.0164
     13 C           4.1804    0.0741    0.3068 C.ar    1  UNL1        0.1390
     14 O           5.5540    0.2383    0.3364 O.3     1  UNL1       -0.4860
     15 C           6.4039    0.5161   -0.7151 C.3     1  UNL1        0.1138
     16 C           7.1810    1.7833   -0.3429 C.3     1  UNL1       -0.0020
     17 C           8.1205    1.2146    0.7217 C.3     1  UNL1       -0.0006
     18 N           8.5999    0.0207    0.0506 N.3     1  UNL1       -0.3124
     19 C           7.5149   -0.5157   -0.7134 C.3     1  UNL1        0.0330
     20 C           3.4652   -0.2058    1.4707 C.ar    1  UNL1        0.0699
     21 N           2.1339   -0.3709    1.4785 N.ar    1  UNL1       -0.2513
     22 C          -0.8691   -0.3840   -0.6845 C.ar    1  UNL1        0.0406
     23 N          -2.2151   -0.5738   -0.5374 N.ar    1  UNL1       -0.2349
     24 C          -2.7999   -0.8385    0.6319 C.ar    1  UNL1        0.1632
     25 C          -6.0331    0.0690   -0.1170 C.ar    1  UNL1        0.0082
     26 C          -5.6154    1.2358    0.4839 C.ar    1  UNL1       -0.0506
     27 C          -6.3633    2.3630    0.2259 C.ar    1  UNL1       -0.0430
     28 C          -7.4738    2.3359   -0.5896 C.ar    1  UNL1        0.0283
     29 N          -7.8708    1.1935   -1.1692 N.ar    1  UNL1       -0.2550
     30 C          -7.1643    0.0757   -0.9390 C.ar    1  UNL1        0.0715
     31 C          -7.5418   -1.1196   -1.5179 C.ar    1  UNL1       -0.0357
     32 H          -7.1209   -3.1957   -1.7393 H       1  UNL1        0.0618
     33 H          -5.1565   -3.1902   -0.3075 H       1  UNL1        0.0624
     34 H          -4.9324   -1.4906    2.9972 H       1  UNL1        0.0855
     35 H          -0.0475   -0.8087    2.5060 H       1  UNL1        0.0838
     36 H           1.4991    0.0804   -1.7339 H       1  UNL1        0.0640
     37 H           3.9282    0.3874   -1.7830 H       1  UNL1        0.0655
     38 H           5.9204    0.6160   -1.6835 H       1  UNL1        0.0746
     39 H           6.5362    2.5726    0.0398 H       1  UNL1        0.0314
     40 H           7.7877    2.0526   -1.2095 H       1  UNL1        0.0314
     41 H           7.5344    0.9865    1.6357 H       1  UNL1        0.0425
     42 H           8.9640    1.9118    0.9144 H       1  UNL1        0.0425
     43 H           9.3581    0.3079   -0.6076 H       1  UNL1        0.1221
     44 H           7.1702   -1.4717   -0.2668 H       1  UNL1        0.0460
     45 H           7.8076   -0.7417   -1.7691 H       1  UNL1        0.0460
     46 H           4.0432   -0.2852    2.3846 H       1  UNL1        0.0867
     47 H          -0.4790   -0.1730   -1.6734 H       1  UNL1        0.0837
     48 H          -4.7319    1.2419    1.1288 H       1  UNL1        0.0625
     49 H          -6.0569    3.2979    0.6868 H       1  UNL1        0.0633
     50 H          -8.0235    3.2789   -0.7501 H       1  UNL1        0.0830
     51 H          -8.4133   -1.1197   -2.1525 H       1  UNL1        0.0639
@<TRIPOS>BOND
     1     1     2   ar
     2     2     3   ar
     3     3     4    1
     4     4     5   ar
     5     5     6   ar
     6     6     7   ar
     7     7     8   ar
     8     8     9   ar
     9     9    10    1
    10    10    11   ar
    11    11    12   ar
    12    12    13   ar
    13    13    14    1
    14    14    15    1
    15    15    16    1
    16    16    17    1
    17    17    18    1
    18    18    19    1
    19    13    20   ar
    20    20    21   ar
    21     9    22   ar
    22    22    23   ar
    23    23    24   ar
    24     3    25   ar
    25    25    26   ar
    26    26    27   ar
    27    27    28   ar
    28    28    29   ar
    29    29    30   ar
    30    30    31   ar
    31    31     1   ar
    32    24     4   ar
    33    30    25   ar
    34    24     7   ar
    35    21    10   ar
    36    19    15    1
    37     1    32    1
    38     2    33    1
    39     5    34    1
    40     8    35    1
    41    11    36    1
    42    12    37    1
    43    15    38    1
    44    16    39    1
    45    16    40    1
    46    17    41    1
    47    17    42    1
    48    18    43    1
    49    19    44    1
    50    19    45    1
    51    20    46    1
    52    22    47    1
    53    26    48    1
    54    27    49    1
    55    28    50    1
    56    31    51    1
