
     RDKit          3D

 52 56  0  0  0  0  0  0  0  0999 V2000
    1.5990    0.6787    1.8667 O   0  0  0  0  0  0  0  0  0  0  0  0
    1.8979   -0.0160    0.8806 C   0  0  0  0  0  0  0  0  0  0  0  0
    0.9560   -0.3033   -0.1776 C   0  0  0  0  0  0  0  0  0  0  0  0
   -0.4123    0.2461   -0.1111 C   0  0  0  0  0  0  0  0  0  0  0  0
   -0.3490    1.7325   -0.0797 C   0  0  0  0  0  0  0  0  0  0  0  0
   -0.5302    2.4557    1.0795 C   0  0  0  0  0  0  0  0  0  0  0  0
   -0.4304    3.8311    1.0145 C   0  0  0  0  0  0  0  0  0  0  0  0
   -0.1597    4.5128   -0.1489 C   0  0  0  0  0  0  0  0  0  0  0  0
    0.0236    3.8058   -1.3138 C   0  0  0  0  0  0  0  0  0  0  0  0
   -0.0778    2.4179   -1.2433 C   0  0  0  0  0  0  0  0  0  0  0  0
   -1.1314   -0.1516   -1.3737 C   0  0  0  0  0  0  0  0  0  0  0  0
   -1.2549   -1.6621   -1.5242 C   0  0  0  0  0  0  0  0  0  0  0  0
   -1.9050   -2.2565   -0.3104 C   0  0  0  0  0  0  0  0  0  0  0  0
   -1.2561   -1.8044    0.9650 C   0  0  0  0  0  0  0  0  0  0  0  0
   -1.2203   -0.2897    1.0505 C   0  0  0  0  0  0  0  0  0  0  0  0
   -2.6476    0.1712    0.9684 C   0  0  0  0  0  0  0  0  0  0  0  0
   -3.3299   -0.2620   -0.3253 C   0  0  0  0  0  0  0  0  0  0  0  0
   -2.5495    0.3743   -1.4298 C   0  0  0  0  0  0  0  0  0  0  0  0
   -3.3516   -1.7514   -0.3322 C   0  0  0  0  0  0  0  0  0  0  0  0
   -3.9612   -2.2006   -1.4841 O   0  0  0  0  0  0  0  0  0  0  0  0
    3.2153   -0.5406    0.8022 N   0  0  0  0  0  0  0  0  0  0  0  0
    3.9597   -1.3649   -0.1299 C   0  0  0  0  0  0  0  0  0  0  0  0
    4.8948   -1.7755    0.9571 C   0  0  0  0  0  0  0  0  0  0  0  0
    6.2461   -1.7219    0.5931 O   0  0  0  0  0  0  0  0  0  0  0  0
    4.4259   -0.4945    1.6180 C   0  0  0  0  0  0  0  0  0  0  0  0
    0.9375   -1.4295   -0.3018 H   0  0  0  0  0  0  0  0  0  0  0  0
    1.4538    0.0254   -1.1428 H   0  0  0  0  0  0  0  0  0  0  0  0
   -0.7494    1.9470    2.0106 H   0  0  0  0  0  0  0  0  0  0  0  0
   -0.5804    4.3771    1.9586 H   0  0  0  0  0  0  0  0  0  0  0  0
   -0.0941    5.5817   -0.1387 H   0  0  0  0  0  0  0  0  0  0  0  0
    0.2421    4.3118   -2.2681 H   0  0  0  0  0  0  0  0  0  0  0  0
    0.0904    1.9370   -2.2038 H   0  0  0  0  0  0  0  0  0  0  0  0
   -0.6259    0.1879   -2.3035 H   0  0  0  0  0  0  0  0  0  0  0  0
   -1.9788   -1.8062   -2.3744 H   0  0  0  0  0  0  0  0  0  0  0  0
   -0.3220   -2.1381   -1.8252 H   0  0  0  0  0  0  0  0  0  0  0  0
   -1.9189   -3.3469   -0.3668 H   0  0  0  0  0  0  0  0  0  0  0  0
   -0.2905   -2.2760    1.1571 H   0  0  0  0  0  0  0  0  0  0  0  0
   -1.9344   -2.1356    1.8055 H   0  0  0  0  0  0  0  0  0  0  0  0
   -0.8285   -0.0188    2.0369 H   0  0  0  0  0  0  0  0  0  0  0  0
   -2.8309    1.2156    1.2001 H   0  0  0  0  0  0  0  0  0  0  0  0
   -3.1945   -0.4109    1.7706 H   0  0  0  0  0  0  0  0  0  0  0  0
   -4.3534    0.1420   -0.3004 H   0  0  0  0  0  0  0  0  0  0  0  0
   -2.9541    0.2027   -2.4318 H   0  0  0  0  0  0  0  0  0  0  0  0
   -2.5704    1.4725   -1.2581 H   0  0  0  0  0  0  0  0  0  0  0  0
   -3.8148   -2.1101    0.5897 H   0  0  0  0  0  0  0  0  0  0  0  0
   -4.8189   -2.6279   -1.2161 H   0  0  0  0  0  0  0  0  0  0  0  0
    4.5056   -0.7087   -0.8668 H   0  0  0  0  0  0  0  0  0  0  0  0
    3.3798   -2.1567   -0.6202 H   0  0  0  0  0  0  0  0  0  0  0  0
    4.5915   -2.7078    1.4614 H   0  0  0  0  0  0  0  0  0  0  0  0
    6.6640   -0.8807    0.8978 H   0  0  0  0  0  0  0  0  0  0  0  0
    4.2403   -0.6166    2.7020 H   0  0  0  0  0  0  0  0  0  0  0  0
    5.1034    0.3389    1.3418 H   0  0  0  0  0  0  0  0  0  0  0  0
  1  2  2  0
  2  3  1  0
  3  4  1  0
  4  5  1  0
  5  6  2  0
  6  7  1  0
  7  8  2  0
  8  9  1  0
  9 10  2  0
  4 11  1  0
 11 12  1  0
 12 13  1  0
 13 14  1  0
 14 15  1  0
 15 16  1  0
 16 17  1  0
 17 18  1  0
 17 19  1  0
 19 20  1  0
  2 21  1  0
 21 22  1  0
 22 23  1  0
 23 24  1  0
 23 25  1  0
 15  4  1  0
 25 21  1  0
 10  5  1  0
 18 11  1  0
 19 13  1  0
  3 26  1  0
  3 27  1  0
  6 28  1  0
  7 29  1  0
  8 30  1  0
  9 31  1  0
 10 32  1  0
 11 33  1  0
 12 34  1  0
 12 35  1  0
 13 36  1  0
 14 37  1  0
 14 38  1  0
 15 39  1  0
 16 40  1  0
 16 41  1  0
 17 42  1  0
 18 43  1  0
 18 44  1  0
 19 45  1  0
 20 46  1  0
 22 47  1  0
 22 48  1  0
 23 49  1  0
 24 50  1  0
 25 51  1  0
 25 52  1  0
M  END
$$$$
