@<TRIPOS>MOLECULE
*****
 52 56 0 0 0
SMALL
GASTEIGER

@<TRIPOS>ATOM
      1 O           1.5990    0.6787    1.8667 O.2     1  UNL1       -0.2756
      2 C           1.8979   -0.0160    0.8806 C.2     1  UNL1        0.2166
      3 C           0.9560   -0.3033   -0.1776 C.3     1  UNL1        0.0343
      4 C          -0.4123    0.2461   -0.1111 C.3     1  UNL1        0.0097
      5 C          -0.3490    1.7325   -0.0797 C.ar    1  UNL1       -0.0402
      6 C          -0.5302    2.4557    1.0795 C.ar    1  UNL1       -0.0580
      7 C          -0.4304    3.8311    1.0145 C.ar    1  UNL1       -0.0615
      8 C          -0.1597    4.5128   -0.1489 C.ar    1  UNL1       -0.0617
      9 C           0.0236    3.8058   -1.3138 C.ar    1  UNL1       -0.0615
     10 C          -0.0778    2.4179   -1.2433 C.ar    1  UNL1       -0.0580
     11 C          -1.1314   -0.1516   -1.3737 C.3     1  UNL1       -0.0300
     12 C          -1.2549   -1.6621   -1.5242 C.3     1  UNL1       -0.0442
     13 C          -1.9050   -2.2565   -0.3104 C.3     1  UNL1       -0.0141
     14 C          -1.2561   -1.8044    0.9650 C.3     1  UNL1       -0.0442
     15 C          -1.2203   -0.2897    1.0505 C.3     1  UNL1       -0.0300
     16 C          -2.6476    0.1712    0.9684 C.3     1  UNL1       -0.0442
     17 C          -3.3299   -0.2620   -0.3253 C.3     1  UNL1       -0.0141
     18 C          -2.5495    0.3743   -1.4298 C.3     1  UNL1       -0.0442
     19 C          -3.3516   -1.7514   -0.3322 C.3     1  UNL1        0.0609
     20 O          -3.9612   -2.2006   -1.4841 O.3     1  UNL1       -0.3912
     21 N           3.2153   -0.5406    0.8022 N.am    1  UNL1       -0.2964
     22 C           3.9597   -1.3649   -0.1299 C.3     1  UNL1        0.0422
     23 C           4.8948   -1.7755    0.9571 C.3     1  UNL1        0.0866
     24 O           6.2461   -1.7219    0.5931 O.3     1  UNL1       -0.3887
     25 C           4.4259   -0.4945    1.6180 C.3     1  UNL1        0.0422
     26 H           0.9375   -1.4295   -0.3018 H       1  UNL1        0.0367
     27 H           1.4538    0.0254   -1.1428 H       1  UNL1        0.0367
     28 H          -0.7494    1.9470    2.0106 H       1  UNL1        0.0620
     29 H          -0.5804    4.3771    1.9586 H       1  UNL1        0.0618
     30 H          -0.0941    5.5817   -0.1387 H       1  UNL1        0.0618
     31 H           0.2421    4.3118   -2.2681 H       1  UNL1        0.0618
     32 H           0.0904    1.9370   -2.2038 H       1  UNL1        0.0620
     33 H          -0.6259    0.1879   -2.3035 H       1  UNL1        0.0310
     34 H          -1.9788   -1.8062   -2.3744 H       1  UNL1        0.0272
     35 H          -0.3220   -2.1381   -1.8252 H       1  UNL1        0.0272
     36 H          -1.9189   -3.3469   -0.3668 H       1  UNL1        0.0326
     37 H          -0.2905   -2.2760    1.1571 H       1  UNL1        0.0272
     38 H          -1.9344   -2.1356    1.8055 H       1  UNL1        0.0272
     39 H          -0.8285   -0.0188    2.0369 H       1  UNL1        0.0310
     40 H          -2.8309    1.2156    1.2001 H       1  UNL1        0.0272
     41 H          -3.1945   -0.4109    1.7706 H       1  UNL1        0.0272
     42 H          -4.3534    0.1420   -0.3004 H       1  UNL1        0.0326
     43 H          -2.9541    0.2027   -2.4318 H       1  UNL1        0.0272
     44 H          -2.5704    1.4725   -1.2581 H       1  UNL1        0.0272
     45 H          -3.8148   -2.1101    0.5897 H       1  UNL1        0.0599
     46 H          -4.8189   -2.6279   -1.2161 H       1  UNL1        0.2098
     47 H           4.5056   -0.7087   -0.8668 H       1  UNL1        0.0490
     48 H           3.3798   -2.1567   -0.6202 H       1  UNL1        0.0490
     49 H           4.5915   -2.7078    1.4614 H       1  UNL1        0.0625
     50 H           6.6640   -0.8807    0.8978 H       1  UNL1        0.2099
     51 H           4.2403   -0.6166    2.7020 H       1  UNL1        0.0490
     52 H           5.1034    0.3389    1.3418 H       1  UNL1        0.0490
@<TRIPOS>BOND
     1     1     2    2
     2     2     3    1
     3     3     4    1
     4     4     5    1
     5     5     6   ar
     6     6     7   ar
     7     7     8   ar
     8     8     9   ar
     9     9    10   ar
    10     4    11    1
    11    11    12    1
    12    12    13    1
    13    13    14    1
    14    14    15    1
    15    15    16    1
    16    16    17    1
    17    17    18    1
    18    17    19    1
    19    19    20    1
    20     2    21   am
    21    21    22    1
    22    22    23    1
    23    23    24    1
    24    23    25    1
    25    15     4    1
    26    25    21    1
    27    10     5   ar
    28    18    11    1
    29    19    13    1
    30     3    26    1
    31     3    27    1
    32     6    28    1
    33     7    29    1
    34     8    30    1
    35     9    31    1
    36    10    32    1
    37    11    33    1
    38    12    34    1
    39    12    35    1
    40    13    36    1
    41    14    37    1
    42    14    38    1
    43    15    39    1
    44    16    40    1
    45    16    41    1
    46    17    42    1
    47    18    43    1
    48    18    44    1
    49    19    45    1
    50    20    46    1
    51    22    47    1
    52    22    48    1
    53    23    49    1
    54    24    50    1
    55    25    51    1
    56    25    52    1
