@<TRIPOS>MOLECULE
*****
 32 33 0 0 0
SMALL
GASTEIGER

@<TRIPOS>ATOM
      1 C          -5.6684    0.5995   -0.0944 C.3     1  UNL1       -0.0013
      2 C          -4.7695   -0.2062   -0.9228 C.2     1  UNL1        0.1636
      3 O          -5.2563   -0.9367   -1.8169 O.2     1  UNL1       -0.2922
      4 C          -3.3336   -0.1514   -0.7021 C.ar    1  UNL1        0.0587
      5 C          -2.4522   -0.9127   -1.4809 C.ar    1  UNL1       -0.0443
      6 C          -1.0901   -0.8735   -1.2861 C.ar    1  UNL1       -0.0190
      7 C          -0.5213   -0.0827   -0.3142 C.ar    1  UNL1        0.1245
      8 O           0.8366   -0.0103   -0.0816 O.3     1  UNL1       -0.4873
      9 C           1.8084   -0.7176   -0.7883 C.3     1  UNL1        0.1147
     10 C           3.1401   -0.3370   -0.2041 C.ar    1  UNL1       -0.0077
     11 C           3.8453    0.7320   -0.7076 C.ar    1  UNL1       -0.0552
     12 C           5.0571    1.0182   -0.1197 C.ar    1  UNL1       -0.0587
     13 C           5.5596    0.2817    0.9254 C.ar    1  UNL1       -0.0264
     14 C           4.8564   -0.7934    1.4360 C.ar    1  UNL1        0.1238
     15 F           5.3397   -1.5155    2.4541 F       1  UNL1       -0.2055
     16 C           3.6443   -1.0770    0.8454 C.ar    1  UNL1       -0.0201
     17 C          -1.3744    0.6731    0.4614 C.ar    1  UNL1        0.0223
     18 C          -2.7612    0.6379    0.2685 C.ar    1  UNL1        0.1308
     19 O          -3.6021    1.4132    1.0678 O.3     1  UNL1       -0.5059
     20 H          -5.6170    0.2529    0.9692 H       1  UNL1        0.0309
     21 H          -5.5331    1.6943   -0.2007 H       1  UNL1        0.0309
     22 H          -6.7300    0.3921   -0.3853 H       1  UNL1        0.0309
     23 H          -2.9149   -1.5292   -2.2408 H       1  UNL1        0.0627
     24 H          -0.4323   -1.4676   -1.8971 H       1  UNL1        0.0654
     25 H           1.7918   -0.5520   -1.8776 H       1  UNL1        0.0748
     26 H           1.6949   -1.8249   -0.6439 H       1  UNL1        0.0748
     27 H           3.4415    1.3137   -1.5379 H       1  UNL1        0.0621
     28 H           5.6340    1.8533   -0.4946 H       1  UNL1        0.0619
     29 H           6.5144    0.4895    1.4053 H       1  UNL1        0.0646
     30 H           3.0782   -1.9124    1.2283 H       1  UNL1        0.0650
     31 H          -0.9689    1.3009    1.2280 H       1  UNL1        0.0691
     32 H          -3.2167    2.2478    1.4600 H       1  UNL1        0.2922
@<TRIPOS>BOND
     1     1     2    1
     2     2     3    2
     3     2     4    1
     4     4     5   ar
     5     5     6   ar
     6     6     7   ar
     7     7     8    1
     8     8     9    1
     9     9    10    1
    10    10    11   ar
    11    11    12   ar
    12    12    13   ar
    13    13    14   ar
    14    14    15    1
    15    14    16   ar
    16     7    17   ar
    17    17    18   ar
    18    18    19    1
    19    18     4   ar
    20    16    10   ar
    21     1    20    1
    22     1    21    1
    23     1    22    1
    24     5    23    1
    25     6    24    1
    26     9    25    1
    27     9    26    1
    28    11    27    1
    29    12    28    1
    30    13    29    1
    31    16    30    1
    32    17    31    1
    33    19    32    1
