
     RDKit          3D

 32 33  0  0  0  0  0  0  0  0999 V2000
   -5.6684    0.5995   -0.0944 C   0  0  0  0  0  0  0  0  0  0  0  0
   -4.7695   -0.2062   -0.9228 C   0  0  0  0  0  0  0  0  0  0  0  0
   -5.2563   -0.9367   -1.8169 O   0  0  0  0  0  0  0  0  0  0  0  0
   -3.3336   -0.1514   -0.7021 C   0  0  0  0  0  0  0  0  0  0  0  0
   -2.4522   -0.9127   -1.4809 C   0  0  0  0  0  0  0  0  0  0  0  0
   -1.0901   -0.8735   -1.2861 C   0  0  0  0  0  0  0  0  0  0  0  0
   -0.5213   -0.0827   -0.3142 C   0  0  0  0  0  0  0  0  0  0  0  0
    0.8366   -0.0103   -0.0816 O   0  0  0  0  0  0  0  0  0  0  0  0
    1.8084   -0.7176   -0.7883 C   0  0  0  0  0  0  0  0  0  0  0  0
    3.1401   -0.3370   -0.2041 C   0  0  0  0  0  0  0  0  0  0  0  0
    3.8453    0.7320   -0.7076 C   0  0  0  0  0  0  0  0  0  0  0  0
    5.0571    1.0182   -0.1197 C   0  0  0  0  0  0  0  0  0  0  0  0
    5.5596    0.2817    0.9254 C   0  0  0  0  0  0  0  0  0  0  0  0
    4.8564   -0.7934    1.4360 C   0  0  0  0  0  0  0  0  0  0  0  0
    5.3397   -1.5155    2.4541 F   0  0  0  0  0  0  0  0  0  0  0  0
    3.6443   -1.0770    0.8454 C   0  0  0  0  0  0  0  0  0  0  0  0
   -1.3744    0.6731    0.4614 C   0  0  0  0  0  0  0  0  0  0  0  0
   -2.7612    0.6379    0.2685 C   0  0  0  0  0  0  0  0  0  0  0  0
   -3.6021    1.4132    1.0678 O   0  0  0  0  0  0  0  0  0  0  0  0
   -5.6170    0.2529    0.9692 H   0  0  0  0  0  0  0  0  0  0  0  0
   -5.5331    1.6943   -0.2007 H   0  0  0  0  0  0  0  0  0  0  0  0
   -6.7300    0.3921   -0.3853 H   0  0  0  0  0  0  0  0  0  0  0  0
   -2.9149   -1.5292   -2.2408 H   0  0  0  0  0  0  0  0  0  0  0  0
   -0.4323   -1.4676   -1.8971 H   0  0  0  0  0  0  0  0  0  0  0  0
    1.7918   -0.5520   -1.8776 H   0  0  0  0  0  0  0  0  0  0  0  0
    1.6949   -1.8249   -0.6439 H   0  0  0  0  0  0  0  0  0  0  0  0
    3.4415    1.3137   -1.5379 H   0  0  0  0  0  0  0  0  0  0  0  0
    5.6340    1.8533   -0.4946 H   0  0  0  0  0  0  0  0  0  0  0  0
    6.5144    0.4895    1.4053 H   0  0  0  0  0  0  0  0  0  0  0  0
    3.0782   -1.9124    1.2283 H   0  0  0  0  0  0  0  0  0  0  0  0
   -0.9689    1.3009    1.2280 H   0  0  0  0  0  0  0  0  0  0  0  0
   -3.2167    2.2478    1.4600 H   0  0  0  0  0  0  0  0  0  0  0  0
  1  2  1  0
  2  3  2  0
  2  4  1  0
  4  5  2  0
  5  6  1  0
  6  7  2  0
  7  8  1  0
  8  9  1  0
  9 10  1  0
 10 11  2  0
 11 12  1  0
 12 13  2  0
 13 14  1  0
 14 15  1  0
 14 16  2  0
  7 17  1  0
 17 18  2  0
 18 19  1  0
 18  4  1  0
 16 10  1  0
  1 20  1  0
  1 21  1  0
  1 22  1  0
  5 23  1  0
  6 24  1  0
  9 25  1  0
  9 26  1  0
 11 27  1  0
 12 28  1  0
 13 29  1  0
 16 30  1  0
 17 31  1  0
 19 32  1  0
M  END
$$$$
