
     RDKit          3D

 37 40  0  0  0  0  0  0  0  0999 V2000
   -0.0501   -0.0242   -0.6944 O   0  0  0  0  0  0  0  0  0  0  0  0
    0.2632   -0.4624    0.4434 C   0  0  0  0  0  0  0  0  0  0  0  0
   -0.6276   -0.1434    1.5650 C   0  0  0  0  0  0  0  0  0  0  0  0
   -1.7935    0.6745    1.1708 C   0  0  0  0  0  0  0  0  0  0  0  0
   -1.8943    2.0195    1.4476 C   0  0  0  0  0  0  0  0  0  0  0  0
   -3.0125    2.6898    1.0460 C   0  0  0  0  0  0  0  0  0  0  0  0
   -4.0601    2.1053    0.3742 C   0  0  0  0  0  0  0  0  0  0  0  0
   -3.9521    0.7473    0.0979 C   0  0  0  0  0  0  0  0  0  0  0  0
   -4.9596    0.0842   -0.5742 C   0  0  0  0  0  0  0  0  0  0  0  0
   -4.8941   -1.2175   -0.8601 N   0  0  0  0  0  0  0  0  0  0  0  0
   -3.8216   -1.9266   -0.4915 C   0  0  0  0  0  0  0  0  0  0  0  0
   -2.7905   -1.3060    0.1823 C   0  0  0  0  0  0  0  0  0  0  0  0
   -2.8162    0.0358    0.4984 C   0  0  0  0  0  0  0  0  0  0  0  0
    1.4501   -1.2235    0.5290 N   0  0  0  0  0  0  0  0  0  0  0  0
    2.3004   -1.5173   -0.5982 C   0  0  0  0  0  0  0  0  0  0  0  0
    1.9527   -2.9673   -1.6519 S   0  0  0  0  0  0  0  0  0  0  0  0
    3.3469   -2.6326   -2.7304 C   0  0  0  0  0  0  0  0  0  0  0  0
    3.9364   -1.5066   -2.2323 C   0  0  0  0  0  0  0  0  0  0  0  0
    5.3745   -0.8661   -3.0597 Cl  0  0  0  0  0  0  0  0  0  0  0  0
    3.3634   -0.9581   -1.1242 C   0  0  0  0  0  0  0  0  0  0  0  0
    3.9360    0.2628   -0.4637 C   0  0  0  0  0  0  0  0  0  0  0  0
    5.0247    0.9688   -0.8803 N   0  0  0  0  0  0  0  0  0  0  0  0
    5.2413    1.9707   -0.0410 N   0  0  0  0  0  0  0  0  0  0  0  0
    4.3148    1.9378    0.9221 C   0  0  0  0  0  0  0  0  0  0  0  0
    3.5329    0.8819    0.6339 N   0  0  0  0  0  0  0  0  0  0  0  0
   -1.0088   -1.0649    2.0490 H   0  0  0  0  0  0  0  0  0  0  0  0
   -0.1202    0.4187    2.3865 H   0  0  0  0  0  0  0  0  0  0  0  0
   -1.0656    2.4658    1.9749 H   0  0  0  0  0  0  0  0  0  0  0  0
   -3.0847    3.7494    1.2674 H   0  0  0  0  0  0  0  0  0  0  0  0
   -4.9337    2.6664    0.0691 H   0  0  0  0  0  0  0  0  0  0  0  0
   -5.8352    0.6499   -0.8784 H   0  0  0  0  0  0  0  0  0  0  0  0
   -3.7237   -3.0012   -0.7057 H   0  0  0  0  0  0  0  0  0  0  0  0
   -1.9249   -1.9246    0.4663 H   0  0  0  0  0  0  0  0  0  0  0  0
    1.7440   -1.6008    1.4413 H   0  0  0  0  0  0  0  0  0  0  0  0
    3.6155   -3.2429   -3.5918 H   0  0  0  0  0  0  0  0  0  0  0  0
    4.2384    2.6317    1.7475 H   0  0  0  0  0  0  0  0  0  0  0  0
    2.7336    0.6256    1.2326 H   0  0  0  0  0  0  0  0  0  0  0  0
  1  2  2  0
  2  3  1  0
  3  4  1  0
  4  5  2  0
  5  6  1  0
  6  7  2  0
  7  8  1  0
  8  9  2  0
  9 10  1  0
 10 11  2  0
 11 12  1  0
 12 13  2  0
  2 14  1  0
 14 15  1  0
 15 16  1  0
 16 17  1  0
 17 18  2  0
 18 19  1  0
 18 20  1  0
 20 21  1  0
 21 22  2  0
 22 23  1  0
 23 24  2  0
 24 25  1  0
 13  4  1  0
 20 15  2  0
 25 21  1  0
 13  8  1  0
  3 26  1  0
  3 27  1  0
  5 28  1  0
  6 29  1  0
  7 30  1  0
  9 31  1  0
 11 32  1  0
 12 33  1  0
 14 34  1  0
 17 35  1  0
 24 36  1  0
 25 37  1  0
M  END
$$$$
