@<TRIPOS>MOLECULE
*****
 37 40 0 0 0
SMALL
GASTEIGER

@<TRIPOS>ATOM
      1 O          -0.0501   -0.0242   -0.6944 O.2     1  UNL1       -0.2751
      2 C           0.2632   -0.4624    0.4434 C.2     1  UNL1        0.2219
      3 C          -0.6276   -0.1434    1.5650 C.3     1  UNL1        0.0500
      4 C          -1.7935    0.6745    1.1708 C.ar    1  UNL1       -0.0308
      5 C          -1.8943    2.0195    1.4476 C.ar    1  UNL1       -0.0575
      6 C          -3.0125    2.6898    1.0460 C.ar    1  UNL1       -0.0609
      7 C          -4.0601    2.1053    0.3742 C.ar    1  UNL1       -0.0526
      8 C          -3.9521    0.7473    0.0979 C.ar    1  UNL1        0.0005
      9 C          -4.9596    0.0842   -0.5742 C.ar    1  UNL1        0.0353
     10 N          -4.8941   -1.2175   -0.8601 N.ar    1  UNL1       -0.2626
     11 C          -3.8216   -1.9266   -0.4915 C.ar    1  UNL1        0.0282
     12 C          -2.7905   -1.3060    0.1823 C.ar    1  UNL1       -0.0356
     13 C          -2.8162    0.0358    0.4984 C.ar    1  UNL1       -0.0114
     14 N           1.4501   -1.2235    0.5290 N.am    1  UNL1       -0.2791
     15 C           2.3004   -1.5173   -0.5982 C.ar    1  UNL1        0.0839
     16 S           1.9527   -2.9673   -1.6519 S.2     1  UNL1       -0.0797
     17 C           3.3469   -2.6326   -2.7304 C.ar    1  UNL1       -0.0035
     18 C           3.9364   -1.5066   -2.2323 C.ar    1  UNL1        0.0605
     19 CL          5.3745   -0.8661   -3.0597 Cl      1  UNL1       -0.0822
     20 C           3.3634   -0.9581   -1.1242 C.ar    1  UNL1        0.0658
     21 C           3.9360    0.2628   -0.4637 C.ar    1  UNL1        0.1652
     22 N           5.0247    0.9688   -0.8803 N.ar    1  UNL1       -0.1295
     23 N           5.2413    1.9707   -0.0410 N.ar    1  UNL1       -0.1377
     24 C           4.3148    1.9378    0.9221 C.ar    1  UNL1        0.1175
     25 N           3.5329    0.8819    0.6339 N.ar    1  UNL1       -0.3276
     26 H          -1.0088   -1.0649    2.0490 H       1  UNL1        0.0407
     27 H          -0.1202    0.4187    2.3865 H       1  UNL1        0.0407
     28 H          -1.0656    2.4658    1.9749 H       1  UNL1        0.0621
     29 H          -3.0847    3.7494    1.2674 H       1  UNL1        0.0618
     30 H          -4.9337    2.6664    0.0691 H       1  UNL1        0.0624
     31 H          -5.8352    0.6499   -0.8784 H       1  UNL1        0.0836
     32 H          -3.7237   -3.0012   -0.7057 H       1  UNL1        0.0830
     33 H          -1.9249   -1.9246    0.4663 H       1  UNL1        0.0639
     34 H           1.7440   -1.6008    1.4413 H       1  UNL1        0.1553
     35 H           3.6155   -3.2429   -3.5918 H       1  UNL1        0.0709
     36 H           4.2384    2.6317    1.7475 H       1  UNL1        0.1046
     37 H           2.7336    0.6256    1.2326 H       1  UNL1        0.1683
@<TRIPOS>BOND
     1     1     2    2
     2     2     3    1
     3     3     4    1
     4     4     5   ar
     5     5     6   ar
     6     6     7   ar
     7     7     8   ar
     8     8     9   ar
     9     9    10   ar
    10    10    11   ar
    11    11    12   ar
    12    12    13   ar
    13     2    14   am
    14    14    15    1
    15    15    16   ar
    16    16    17   ar
    17    17    18   ar
    18    18    19    1
    19    18    20   ar
    20    20    21    1
    21    21    22   ar
    22    22    23   ar
    23    23    24   ar
    24    24    25   ar
    25    13     4   ar
    26    20    15   ar
    27    25    21   ar
    28    13     8   ar
    29     3    26    1
    30     3    27    1
    31     5    28    1
    32     6    29    1
    33     7    30    1
    34     9    31    1
    35    11    32    1
    36    12    33    1
    37    14    34    1
    38    17    35    1
    39    24    36    1
    40    25    37    1
