@<TRIPOS>MOLECULE
*****
 25 26 0 0 0
SMALL
GASTEIGER

@<TRIPOS>ATOM
      1 C          -1.7587    0.3324    0.5170 C.3     1  UNL1        0.0356
      2 N          -2.9743    0.5319   -0.2901 N.3     1  UNL1       -0.3249
      3 C          -1.4800   -1.1150    0.6413 C.3     1  UNL1       -0.0310
      4 C          -0.3985   -1.6442   -0.2498 C.3     1  UNL1       -0.0258
      5 C           0.7880   -0.7868   -0.3379 C.ar    1  UNL1       -0.0416
      6 C           2.0278   -1.3487   -0.5206 C.ar    1  UNL1       -0.0582
      7 C           3.1444   -0.5410   -0.6034 C.ar    1  UNL1       -0.0615
      8 C           2.9767    0.8276   -0.4983 C.ar    1  UNL1       -0.0614
      9 C           1.7376    1.3926   -0.3156 C.ar    1  UNL1       -0.0558
     10 C           0.6247    0.5716   -0.2340 C.ar    1  UNL1       -0.0145
     11 C          -0.6913    1.2021   -0.0380 C.3     1  UNL1        0.0955
     12 O          -0.4907    2.3490    0.7377 O.3     1  UNL1       -0.3856
     13 H          -2.0269    0.7335    1.5270 H       1  UNL1        0.0487
     14 H          -2.7443    0.1645   -1.2368 H       1  UNL1        0.1186
     15 H          -3.6933   -0.1032    0.1223 H       1  UNL1        0.1186
     16 H          -2.4011   -1.6863    0.3961 H       1  UNL1        0.0284
     17 H          -1.2641   -1.3817    1.7023 H       1  UNL1        0.0284
     18 H          -0.0636   -2.6101    0.2136 H       1  UNL1        0.0314
     19 H          -0.7576   -1.8851   -1.2544 H       1  UNL1        0.0314
     20 H           2.0884   -2.4150   -0.5941 H       1  UNL1        0.0620
     21 H           4.1111   -0.9980   -0.7470 H       1  UNL1        0.0618
     22 H           3.8698    1.4365   -0.5669 H       1  UNL1        0.0618
     23 H           1.6871    2.4790   -0.2420 H       1  UNL1        0.0621
     24 H          -0.9817    1.6124   -1.0500 H       1  UNL1        0.0659
     25 H          -1.3295    2.8821    0.7599 H       1  UNL1        0.2103
@<TRIPOS>BOND
     1     1     2    1
     2     1     3    1
     3     3     4    1
     4     4     5    1
     5     5     6   ar
     6     6     7   ar
     7     7     8   ar
     8     8     9   ar
     9     9    10   ar
    10    10    11    1
    11    11    12    1
    12    11     1    1
    13    10     5   ar
    14     1    13    1
    15     2    14    1
    16     2    15    1
    17     3    16    1
    18     3    17    1
    19     4    18    1
    20     4    19    1
    21     6    20    1
    22     7    21    1
    23     8    22    1
    24     9    23    1
    25    11    24    1
    26    12    25    1
