
     RDKit          3D

 25 26  0  0  0  0  0  0  0  0999 V2000
   -1.7587    0.3324    0.5170 C   0  0  1  0  0  0  0  0  0  0  0  0
   -2.9743    0.5319   -0.2901 N   0  0  0  0  0  0  0  0  0  0  0  0
   -1.4800   -1.1150    0.6413 C   0  0  0  0  0  0  0  0  0  0  0  0
   -0.3985   -1.6442   -0.2498 C   0  0  0  0  0  0  0  0  0  0  0  0
    0.7880   -0.7868   -0.3379 C   0  0  0  0  0  0  0  0  0  0  0  0
    2.0278   -1.3487   -0.5206 C   0  0  0  0  0  0  0  0  0  0  0  0
    3.1444   -0.5410   -0.6034 C   0  0  0  0  0  0  0  0  0  0  0  0
    2.9767    0.8276   -0.4983 C   0  0  0  0  0  0  0  0  0  0  0  0
    1.7376    1.3926   -0.3156 C   0  0  0  0  0  0  0  0  0  0  0  0
    0.6247    0.5716   -0.2340 C   0  0  0  0  0  0  0  0  0  0  0  0
   -0.6913    1.2021   -0.0380 C   0  0  2  0  0  0  0  0  0  0  0  0
   -0.4907    2.3490    0.7377 O   0  0  0  0  0  0  0  0  0  0  0  0
   -2.0269    0.7335    1.5270 H   0  0  0  0  0  0  0  0  0  0  0  0
   -2.7443    0.1645   -1.2368 H   0  0  0  0  0  0  0  0  0  0  0  0
   -3.6933   -0.1032    0.1223 H   0  0  0  0  0  0  0  0  0  0  0  0
   -2.4011   -1.6863    0.3961 H   0  0  0  0  0  0  0  0  0  0  0  0
   -1.2641   -1.3817    1.7023 H   0  0  0  0  0  0  0  0  0  0  0  0
   -0.0636   -2.6101    0.2136 H   0  0  0  0  0  0  0  0  0  0  0  0
   -0.7576   -1.8851   -1.2544 H   0  0  0  0  0  0  0  0  0  0  0  0
    2.0884   -2.4150   -0.5941 H   0  0  0  0  0  0  0  0  0  0  0  0
    4.1111   -0.9980   -0.7470 H   0  0  0  0  0  0  0  0  0  0  0  0
    3.8698    1.4365   -0.5669 H   0  0  0  0  0  0  0  0  0  0  0  0
    1.6871    2.4790   -0.2420 H   0  0  0  0  0  0  0  0  0  0  0  0
   -0.9817    1.6124   -1.0500 H   0  0  0  0  0  0  0  0  0  0  0  0
   -1.3295    2.8821    0.7599 H   0  0  0  0  0  0  0  0  0  0  0  0
  1  2  1  0
  1  3  1  0
  3  4  1  0
  4  5  1  0
  5  6  2  0
  6  7  1  0
  7  8  2  0
  8  9  1  0
  9 10  2  0
 10 11  1  0
 11 12  1  0
 11  1  1  0
 10  5  1  0
  1 13  1  1
  2 14  1  0
  2 15  1  0
  3 16  1  0
  3 17  1  0
  4 18  1  0
  4 19  1  0
  6 20  1  0
  7 21  1  0
  8 22  1  0
  9 23  1  0
 11 24  1  6
 12 25  1  0
M  END
$$$$
