
     RDKit          3D

 51 54  0  0  0  0  0  0  0  0999 V2000
    2.1147   -0.9460    1.3099 C   0  0  0  0  0  0  0  0  0  0  0  0
    1.9444    0.0432    0.2393 N   0  0  0  0  0  0  0  0  0  0  0  0
    0.6650    0.3503   -0.2670 C   0  0  0  0  0  0  0  0  0  0  0  0
    0.4516    1.2349   -1.1268 O   0  0  0  0  0  0  0  0  0  0  0  0
   -0.4932   -0.4305    0.2592 C   0  0  0  0  0  0  0  0  0  0  0  0
   -1.8071    0.0880   -0.2752 C   0  0  0  0  0  0  0  0  0  0  0  0
   -2.0699    1.4916    0.1341 C   0  0  0  0  0  0  0  0  0  0  0  0
   -2.4184    2.4572   -0.7971 C   0  0  0  0  0  0  0  0  0  0  0  0
   -2.6611    3.7617   -0.4054 C   0  0  0  0  0  0  0  0  0  0  0  0
   -2.5710    4.1658    0.9112 C   0  0  0  0  0  0  0  0  0  0  0  0
   -2.8872    5.8291    1.3620 Cl  0  0  0  0  0  0  0  0  0  0  0  0
   -2.2239    3.2040    1.8382 C   0  0  0  0  0  0  0  0  0  0  0  0
   -1.9821    1.9040    1.4471 C   0  0  0  0  0  0  0  0  0  0  0  0
   -2.8814   -0.7611    0.4189 C   0  0  0  0  0  0  0  0  0  0  0  0
   -2.5647   -2.2336    0.2735 C   0  0  0  0  0  0  0  0  0  0  0  0
   -2.4396   -2.5253   -1.2012 C   0  0  0  0  0  0  0  0  0  0  0  0
   -0.9926   -2.1939   -1.4684 C   0  0  0  0  0  0  0  0  0  0  0  0
   -0.3776   -1.8679   -0.1195 C   0  0  0  0  0  0  0  0  0  0  0  0
   -1.2788   -2.6031    0.7786 N   0  0  0  0  0  0  0  0  0  0  0  0
   -1.0888   -4.0120    0.6627 C   0  0  0  0  0  0  0  0  0  0  0  0
    3.1439    0.6596   -0.1994 C   0  0  0  0  0  0  0  0  0  0  0  0
    3.1593    1.7013   -1.0866 C   0  0  0  0  0  0  0  0  0  0  0  0
    4.3790    2.2673   -1.5050 C   0  0  0  0  0  0  0  0  0  0  0  0
    5.5873    1.7918   -1.0359 C   0  0  0  0  0  0  0  0  0  0  0  0
    5.5927    0.7432   -0.1416 C   0  0  0  0  0  0  0  0  0  0  0  0
    4.3889    0.2084    0.2507 C   0  0  0  0  0  0  0  0  0  0  0  0
    1.2146   -1.1988    1.8473 H   0  0  0  0  0  0  0  0  0  0  0  0
    2.6875   -1.8290    0.9948 H   0  0  0  0  0  0  0  0  0  0  0  0
    2.7631   -0.4073    2.0691 H   0  0  0  0  0  0  0  0  0  0  0  0
   -0.5126   -0.3244    1.3498 H   0  0  0  0  0  0  0  0  0  0  0  0
   -1.9391    0.0139   -1.3487 H   0  0  0  0  0  0  0  0  0  0  0  0
   -2.4974    2.1669   -1.8453 H   0  0  0  0  0  0  0  0  0  0  0  0
   -2.9379    4.5401   -1.1253 H   0  0  0  0  0  0  0  0  0  0  0  0
   -2.1467    3.4947    2.8748 H   0  0  0  0  0  0  0  0  0  0  0  0
   -1.7126    1.1957    2.2304 H   0  0  0  0  0  0  0  0  0  0  0  0
   -3.8323   -0.5822   -0.1114 H   0  0  0  0  0  0  0  0  0  0  0  0
   -2.9730   -0.4382    1.4610 H   0  0  0  0  0  0  0  0  0  0  0  0
   -3.3698   -2.7958    0.7571 H   0  0  0  0  0  0  0  0  0  0  0  0
   -2.6918   -3.5753   -1.4064 H   0  0  0  0  0  0  0  0  0  0  0  0
   -3.1152   -1.8148   -1.7529 H   0  0  0  0  0  0  0  0  0  0  0  0
   -0.8260   -1.4314   -2.2309 H   0  0  0  0  0  0  0  0  0  0  0  0
   -0.5065   -3.1264   -1.8868 H   0  0  0  0  0  0  0  0  0  0  0  0
    0.6344   -2.2830   -0.1498 H   0  0  0  0  0  0  0  0  0  0  0  0
   -0.1234   -4.2809    1.1758 H   0  0  0  0  0  0  0  0  0  0  0  0
   -1.0023   -4.3913   -0.3661 H   0  0  0  0  0  0  0  0  0  0  0  0
   -1.9224   -4.5407    1.1553 H   0  0  0  0  0  0  0  0  0  0  0  0
    2.2860    2.1563   -1.5125 H   0  0  0  0  0  0  0  0  0  0  0  0
    4.3768    3.0891   -2.2059 H   0  0  0  0  0  0  0  0  0  0  0  0
    6.5036    2.2541   -1.3818 H   0  0  0  0  0  0  0  0  0  0  0  0
    6.5523    0.3944    0.2065 H   0  0  0  0  0  0  0  0  0  0  0  0
    4.4015   -0.6138    0.9453 H   0  0  0  0  0  0  0  0  0  0  0  0
  1  2  1  0
  2  3  1  0
  3  4  2  0
  3  5  1  0
  5  6  1  0
  6  7  1  0
  7  8  2  0
  8  9  1  0
  9 10  2  0
 10 11  1  0
 10 12  1  0
 12 13  2  0
  6 14  1  0
 14 15  1  0
 15 16  1  0
 16 17  1  0
 17 18  1  0
 18 19  1  0
 19 20  1  0
  2 21  1  0
 21 22  2  0
 22 23  1  0
 23 24  2  0
 24 25  1  0
 25 26  2  0
 18  5  1  0
 26 21  1  0
 13  7  1  0
 19 15  1  0
  1 27  1  0
  1 28  1  0
  1 29  1  0
  5 30  1  0
  6 31  1  0
  8 32  1  0
  9 33  1  0
 12 34  1  0
 13 35  1  0
 14 36  1  0
 14 37  1  0
 15 38  1  0
 16 39  1  0
 16 40  1  0
 17 41  1  0
 17 42  1  0
 18 43  1  0
 20 44  1  0
 20 45  1  0
 20 46  1  0
 22 47  1  0
 23 48  1  0
 24 49  1  0
 25 50  1  0
 26 51  1  0
M  END
$$$$
