@<TRIPOS>MOLECULE
*****
 51 54 0 0 0
SMALL
GASTEIGER

@<TRIPOS>ATOM
      1 C           2.1147   -0.9460    1.3099 C.3     1  UNL1        0.0083
      2 N           1.9444    0.0432    0.2393 N.am    1  UNL1       -0.2742
      3 C           0.6650    0.3503   -0.2670 C.2     1  UNL1        0.2247
      4 O           0.4516    1.2349   -1.1268 O.2     1  UNL1       -0.2749
      5 C          -0.4932   -0.4305    0.2592 C.3     1  UNL1        0.0584
      6 C          -1.8071    0.0880   -0.2752 C.3     1  UNL1       -0.0019
      7 C          -2.0699    1.4916    0.1341 C.ar    1  UNL1       -0.0434
      8 C          -2.4184    2.4572   -0.7971 C.ar    1  UNL1       -0.0569
      9 C          -2.6611    3.7617   -0.4054 C.ar    1  UNL1       -0.0431
     10 C          -2.5710    4.1658    0.9112 C.ar    1  UNL1        0.0410
     11 CL         -2.8872    5.8291    1.3620 Cl      1  UNL1       -0.0835
     12 C          -2.2239    3.2040    1.8382 C.ar    1  UNL1       -0.0431
     13 C          -1.9821    1.9040    1.4471 C.ar    1  UNL1       -0.0569
     14 C          -2.8814   -0.7611    0.4189 C.3     1  UNL1       -0.0297
     15 C          -2.5647   -2.2336    0.2735 C.3     1  UNL1        0.0110
     16 C          -2.4396   -2.5253   -1.2012 C.3     1  UNL1       -0.0359
     17 C          -0.9926   -2.1939   -1.4684 C.3     1  UNL1       -0.0352
     18 C          -0.3776   -1.8679   -0.1195 C.3     1  UNL1        0.0221
     19 N          -1.2788   -2.6031    0.7786 N.3     1  UNL1       -0.2987
     20 C          -1.0888   -4.0120    0.6627 C.3     1  UNL1       -0.0122
     21 C           3.1439    0.6596   -0.1994 C.ar    1  UNL1        0.0360
     22 C           3.1593    1.7013   -1.0866 C.ar    1  UNL1       -0.0403
     23 C           4.3790    2.2673   -1.5050 C.ar    1  UNL1       -0.0600
     24 C           5.5873    1.7918   -1.0359 C.ar    1  UNL1       -0.0616
     25 C           5.5927    0.7432   -0.1416 C.ar    1  UNL1       -0.0600
     26 C           4.3889    0.2084    0.2507 C.ar    1  UNL1       -0.0403
     27 H           1.2146   -1.1988    1.8473 H       1  UNL1        0.0433
     28 H           2.6875   -1.8290    0.9948 H       1  UNL1        0.0433
     29 H           2.7631   -0.4073    2.0691 H       1  UNL1        0.0433
     30 H          -0.5126   -0.3244    1.3498 H       1  UNL1        0.0416
     31 H          -1.9391    0.0139   -1.3487 H       1  UNL1        0.0357
     32 H          -2.4974    2.1669   -1.8453 H       1  UNL1        0.0621
     33 H          -2.9379    4.5401   -1.1253 H       1  UNL1        0.0632
     34 H          -2.1467    3.4947    2.8748 H       1  UNL1        0.0632
     35 H          -1.7126    1.1957    2.2304 H       1  UNL1        0.0621
     36 H          -3.8323   -0.5822   -0.1114 H       1  UNL1        0.0286
     37 H          -2.9730   -0.4382    1.4610 H       1  UNL1        0.0286
     38 H          -3.3698   -2.7958    0.7571 H       1  UNL1        0.0463
     39 H          -2.6918   -3.5753   -1.4064 H       1  UNL1        0.0281
     40 H          -3.1152   -1.8148   -1.7529 H       1  UNL1        0.0281
     41 H          -0.8260   -1.4314   -2.2309 H       1  UNL1        0.0281
     42 H          -0.5065   -3.1264   -1.8868 H       1  UNL1        0.0281
     43 H           0.6344   -2.2830   -0.1498 H       1  UNL1        0.0470
     44 H          -0.1234   -4.2809    1.1758 H       1  UNL1        0.0391
     45 H          -1.0023   -4.3913   -0.3661 H       1  UNL1        0.0391
     46 H          -1.9224   -4.5407    1.1553 H       1  UNL1        0.0391
     47 H           2.2860    2.1563   -1.5125 H       1  UNL1        0.0636
     48 H           4.3768    3.0891   -2.2059 H       1  UNL1        0.0618
     49 H           6.5036    2.2541   -1.3818 H       1  UNL1        0.0618
     50 H           6.5523    0.3944    0.2065 H       1  UNL1        0.0618
     51 H           4.4015   -0.6138    0.9453 H       1  UNL1        0.0636
@<TRIPOS>BOND
     1     1     2    1
     2     2     3   am
     3     3     4    2
     4     3     5    1
     5     5     6    1
     6     6     7    1
     7     7     8   ar
     8     8     9   ar
     9     9    10   ar
    10    10    11    1
    11    10    12   ar
    12    12    13   ar
    13     6    14    1
    14    14    15    1
    15    15    16    1
    16    16    17    1
    17    17    18    1
    18    18    19    1
    19    19    20    1
    20     2    21    1
    21    21    22   ar
    22    22    23   ar
    23    23    24   ar
    24    24    25   ar
    25    25    26   ar
    26    18     5    1
    27    26    21   ar
    28    13     7   ar
    29    19    15    1
    30     1    27    1
    31     1    28    1
    32     1    29    1
    33     5    30    1
    34     6    31    1
    35     8    32    1
    36     9    33    1
    37    12    34    1
    38    13    35    1
    39    14    36    1
    40    14    37    1
    41    15    38    1
    42    16    39    1
    43    16    40    1
    44    17    41    1
    45    17    42    1
    46    18    43    1
    47    20    44    1
    48    20    45    1
    49    20    46    1
    50    22    47    1
    51    23    48    1
    52    24    49    1
    53    25    50    1
    54    26    51    1
