
     RDKit          3D

 37 39  0  0  0  0  0  0  0  0999 V2000
    1.4814   -0.3644    1.0756 C   0  0  2  0  0  0  0  0  0  0  0  0
    1.7402   -1.7676    1.6306 C   0  0  0  0  0  0  0  0  0  0  0  0
    0.2056   -0.3799    0.5230 O   0  0  0  0  0  0  0  0  0  0  0  0
   -0.8607    0.3995    0.8771 C   0  0  0  0  0  0  0  0  0  0  0  0
   -2.0543    0.2351    0.2058 C   0  0  0  0  0  0  0  0  0  0  0  0
   -2.1612   -0.6996   -0.8015 C   0  0  0  0  0  0  0  0  0  0  0  0
   -1.0858   -1.5253   -1.1993 N   0  0  0  0  0  0  0  0  0  0  0  0
   -3.3199   -0.8648   -1.4587 N   0  0  0  0  0  0  0  0  0  0  0  0
   -4.3709   -0.1063   -1.1198 C   0  0  0  0  0  0  0  0  0  0  0  0
   -5.6228   -0.2715   -1.8163 N   0  0  0  0  0  0  0  0  0  0  0  0
   -4.3104    0.8101   -0.1509 N   0  0  0  0  0  0  0  0  0  0  0  0
   -3.1653    1.0137    0.5403 C   0  0  0  0  0  0  0  0  0  0  0  0
   -3.1171    1.9658    1.5408 C   0  0  0  0  0  0  0  0  0  0  0  0
   -1.9275    2.1445    2.2251 C   0  0  0  0  0  0  0  0  0  0  0  0
   -0.8520    1.3607    1.8703 C   0  0  0  0  0  0  0  0  0  0  0  0
    2.5564   -0.1480    0.0432 C   0  0  0  0  0  0  0  0  0  0  0  0
    3.5959    0.7573    0.2852 C   0  0  0  0  0  0  0  0  0  0  0  0
    4.5770    0.9502   -0.6650 C   0  0  0  0  0  0  0  0  0  0  0  0
    5.8390    2.0944   -0.2909 Cl  0  0  0  0  0  0  0  0  0  0  0  0
    4.5724    0.2724   -1.8665 C   0  0  0  0  0  0  0  0  0  0  0  0
    3.5348   -0.6161   -2.0811 C   0  0  0  0  0  0  0  0  0  0  0  0
    2.5292   -0.8447   -1.1622 C   0  0  0  0  0  0  0  0  0  0  0  0
    1.6527    0.3537    1.8870 H   0  0  0  0  0  0  0  0  0  0  0  0
    2.8194   -1.9614    1.7605 H   0  0  0  0  0  0  0  0  0  0  0  0
    1.3826   -2.4559    0.8243 H   0  0  0  0  0  0  0  0  0  0  0  0
    1.1232   -1.9699    2.5119 H   0  0  0  0  0  0  0  0  0  0  0  0
   -0.7760   -2.2362   -0.5044 H   0  0  0  0  0  0  0  0  0  0  0  0
   -0.5533   -1.5163   -2.1112 H   0  0  0  0  0  0  0  0  0  0  0  0
   -6.3983   -0.6047   -1.2064 H   0  0  0  0  0  0  0  0  0  0  0  0
   -5.4981   -0.0167   -2.8221 H   0  0  0  0  0  0  0  0  0  0  0  0
   -3.9642    2.5690    1.8057 H   0  0  0  0  0  0  0  0  0  0  0  0
   -1.8577    2.8812    3.0129 H   0  0  0  0  0  0  0  0  0  0  0  0
    0.0653    1.5192    2.4193 H   0  0  0  0  0  0  0  0  0  0  0  0
    3.5621    1.2626    1.2300 H   0  0  0  0  0  0  0  0  0  0  0  0
    5.3590    0.4497   -2.5881 H   0  0  0  0  0  0  0  0  0  0  0  0
    3.5622   -1.1392   -3.0491 H   0  0  0  0  0  0  0  0  0  0  0  0
    1.7374   -1.5505   -1.3753 H   0  0  0  0  0  0  0  0  0  0  0  0
  1  2  1  0
  1  3  1  0
  3  4  1  0
  4  5  1  0
  5  6  2  0
  6  7  1  0
  6  8  1  0
  8  9  2  0
  9 10  1  0
  9 11  1  0
 11 12  2  0
 12 13  1  0
 13 14  2  0
 14 15  1  0
  1 16  1  0
 16 17  2  0
 17 18  1  0
 18 19  1  0
 18 20  2  0
 20 21  1  0
 21 22  2  0
 15  4  2  0
 22 16  1  0
 12  5  1  0
  1 23  1  1
  2 24  1  0
  2 25  1  0
  2 26  1  0
  7 27  1  0
  7 28  1  0
 10 29  1  0
 10 30  1  0
 13 31  1  0
 14 32  1  0
 15 33  1  0
 17 34  1  0
 20 35  1  0
 21 36  1  0
 22 37  1  0
M  END
$$$$
