@<TRIPOS>MOLECULE
*****
 37 39 0 0 0
SMALL
GASTEIGER

@<TRIPOS>ATOM
      1 C           1.4814   -0.3644    1.0756 C.3     1  UNL1        0.1224
      2 C           1.7402   -1.7676    1.6306 C.3     1  UNL1       -0.0235
      3 O           0.2056   -0.3799    0.5230 O.3     1  UNL1       -0.4837
      4 C          -0.8607    0.3995    0.8771 C.ar    1  UNL1        0.1338
      5 C          -2.0543    0.2351    0.2058 C.ar    1  UNL1        0.0816
      6 C          -2.1612   -0.6996   -0.8015 C.ar    1  UNL1        0.1326
      7 N          -1.0858   -1.5253   -1.1993 N.pl3   1  UNL1       -0.3424
      8 N          -3.3199   -0.8648   -1.4587 N.ar    1  UNL1       -0.1994
      9 C          -4.3709   -0.1063   -1.1198 C.ar    1  UNL1        0.2148
     10 N          -5.6228   -0.2715   -1.8163 N.pl3   1  UNL1       -0.3274
     11 N          -4.3104    0.8101   -0.1509 N.ar    1  UNL1       -0.2144
     12 C          -3.1653    1.0137    0.5403 C.ar    1  UNL1        0.0814
     13 C          -3.1171    1.9658    1.5408 C.ar    1  UNL1       -0.0353
     14 C          -1.9275    2.1445    2.2251 C.ar    1  UNL1       -0.0563
     15 C          -0.8520    1.3607    1.8703 C.ar    1  UNL1       -0.0191
     16 C           2.5564   -0.1480    0.0432 C.ar    1  UNL1       -0.0063
     17 C           3.5959    0.7573    0.2852 C.ar    1  UNL1       -0.0367
     18 C           4.5770    0.9502   -0.6650 C.ar    1  UNL1        0.0413
     19 CL          5.8390    2.0944   -0.2909 Cl      1  UNL1       -0.0835
     20 C           4.5724    0.2724   -1.8665 C.ar    1  UNL1       -0.0434
     21 C           3.5348   -0.6161   -2.0811 C.ar    1  UNL1       -0.0600
     22 C           2.5292   -0.8447   -1.1622 C.ar    1  UNL1       -0.0550
     23 H           1.6527    0.3537    1.8870 H       1  UNL1        0.0781
     24 H           2.8194   -1.9614    1.7605 H       1  UNL1        0.0269
     25 H           1.3826   -2.4559    0.8243 H       1  UNL1        0.0269
     26 H           1.1232   -1.9699    2.5119 H       1  UNL1        0.0269
     27 H          -0.7760   -2.2362   -0.5044 H       1  UNL1        0.1437
     28 H          -0.5533   -1.5163   -2.1112 H       1  UNL1        0.1437
     29 H          -6.3983   -0.6047   -1.2064 H       1  UNL1        0.1452
     30 H          -5.4981   -0.0167   -2.8221 H       1  UNL1        0.1452
     31 H          -3.9642    2.5690    1.8057 H       1  UNL1        0.0639
     32 H          -1.8577    2.8812    3.0129 H       1  UNL1        0.0619
     33 H           0.0653    1.5192    2.4193 H       1  UNL1        0.0654
     34 H           3.5621    1.2626    1.2300 H       1  UNL1        0.0636
     35 H           5.3590    0.4497   -2.5881 H       1  UNL1        0.0632
     36 H           3.5622   -1.1392   -3.0491 H       1  UNL1        0.0618
     37 H           1.7374   -1.5505   -1.3753 H       1  UNL1        0.0621
@<TRIPOS>BOND
     1     1     2    1
     2     1     3    1
     3     3     4    1
     4     4     5   ar
     5     5     6   ar
     6     6     7    1
     7     6     8   ar
     8     8     9   ar
     9     9    10    1
    10     9    11   ar
    11    11    12   ar
    12    12    13   ar
    13    13    14   ar
    14    14    15   ar
    15     1    16    1
    16    16    17   ar
    17    17    18   ar
    18    18    19    1
    19    18    20   ar
    20    20    21   ar
    21    21    22   ar
    22    15     4   ar
    23    22    16   ar
    24    12     5   ar
    25     1    23    1
    26     2    24    1
    27     2    25    1
    28     2    26    1
    29     7    27    1
    30     7    28    1
    31    10    29    1
    32    10    30    1
    33    13    31    1
    34    14    32    1
    35    15    33    1
    36    17    34    1
    37    20    35    1
    38    21    36    1
    39    22    37    1
