@<TRIPOS>MOLECULE
*****
 40 42 0 0 0
SMALL
GASTEIGER

@<TRIPOS>ATOM
      1 O           6.9160    2.2169   -2.3989 O.2     1  UNL1       -0.2489
      2 C           6.6698    1.7425   -1.2660 C.2     1  UNL1        0.3282
      3 O           6.3538    2.5876   -0.2188 O.3     1  UNL1       -0.4793
      4 C           6.7272    0.2739   -1.0885 C.3     1  UNL1        0.1593
      5 N           5.3891   -0.2445   -1.3718 N.ar    1  UNL1       -0.1518
      6 N           4.9127   -0.6405   -2.5358 N.ar    1  UNL1       -0.0452
      7 N           3.6600   -1.0483   -2.4100 N.ar    1  UNL1       -0.1045
      8 C           3.3112   -0.9093   -1.1045 C.ar    1  UNL1        0.2421
      9 C           2.0150   -1.2434   -0.5324 C.ar    1  UNL1        0.2112
     10 C           1.7922   -1.4844    0.7952 C.ar    1  UNL1        0.0517
     11 C           0.4264   -1.7669    0.9323 C.ar    1  UNL1        0.2553
     12 O          -0.1539   -2.0610    2.1195 O.3     1  UNL1       -0.4742
     13 C          -1.4087   -2.3450    2.5140 C.3     1  UNL1        0.0944
     14 C          -2.4710   -1.3097    2.4374 C.3     1  UNL1        0.0157
     15 C          -2.6814   -0.7727    1.0722 C.3     1  UNL1        0.0927
     16 O          -3.7880    0.1434    1.1640 O.3     1  UNL1       -0.4907
     17 C          -4.2424    0.8209    0.0547 C.ar    1  UNL1        0.1371
     18 C          -3.6608    0.6509   -1.1794 C.ar    1  UNL1        0.0164
     19 C          -4.1512    1.3577   -2.2839 C.ar    1  UNL1        0.1269
     20 F          -3.5967    1.2097   -3.5143 F       1  UNL1       -0.2054
     21 C          -5.2147    2.2241   -2.1425 C.ar    1  UNL1       -0.0252
     22 C          -5.7984    2.3951   -0.9052 C.ar    1  UNL1       -0.0415
     23 C          -5.3029    1.6881    0.1836 C.ar    1  UNL1        0.0596
     24 BR         -6.1597    1.9750    1.8615 Br      1  UNL1       -0.0465
     25 N          -0.0600   -1.6742   -0.3136 N.ar    1  UNL1       -0.0394
     26 O           0.8729   -1.3693   -1.1571 O.2     1  UNL1       -0.3478
     27 N           4.4031   -0.4134   -0.5071 N.ar    1  UNL1       -0.1266
     28 H           6.7591    3.5344   -0.1724 H       1  UNL1        0.2951
     29 H           6.9989    0.0394   -0.0411 H       1  UNL1        0.0644
     30 H           7.4851   -0.2044   -1.7424 H       1  UNL1        0.0644
     31 H           2.4997   -1.4716    1.6193 H       1  UNL1        0.0711
     32 H          -1.8310   -3.2857    2.0030 H       1  UNL1        0.0698
     33 H          -1.4415   -2.7018    3.6152 H       1  UNL1        0.0698
     34 H          -3.4213   -1.7033    2.8988 H       1  UNL1        0.0331
     35 H          -2.1749   -0.4362    3.0844 H       1  UNL1        0.0331
     36 H          -2.7812   -1.4956    0.2636 H       1  UNL1        0.0697
     37 H          -1.7729   -0.1341    0.8420 H       1  UNL1        0.0697
     38 H          -2.8263   -0.0132   -1.3500 H       1  UNL1        0.0683
     39 H          -5.6217    2.7896   -2.9793 H       1  UNL1        0.0646
     40 H          -6.6315    3.0792   -0.8148 H       1  UNL1        0.0631
@<TRIPOS>BOND
     1     1     2    2
     2     2     3    1
     3     2     4    1
     4     4     5    1
     5     5     6   ar
     6     6     7   ar
     7     7     8   ar
     8     8     9    1
     9     9    10   ar
    10    10    11   ar
    11    11    12    1
    12    12    13    1
    13    13    14    1
    14    14    15    1
    15    15    16    1
    16    16    17    1
    17    17    18   ar
    18    18    19   ar
    19    19    20    1
    20    19    21   ar
    21    21    22   ar
    22    22    23   ar
    23    23    24    1
    24    11    25   ar
    25    25    26   ar
    26     8    27   ar
    27    27     5   ar
    28    26     9   ar
    29    23    17   ar
    30     3    28    1
    31     4    29    1
    32     4    30    1
    33    10    31    1
    34    13    32    1
    35    13    33    1
    36    14    34    1
    37    14    35    1
    38    15    36    1
    39    15    37    1
    40    18    38    1
    41    21    39    1
    42    22    40    1
