@<TRIPOS>MOLECULE
*****
 40 42 0 0 0
SMALL
GASTEIGER

@<TRIPOS>ATOM
      1 C           6.3415    1.0982   -0.4195 C.3     1  UNL1       -0.0397
      2 C           4.8847    0.9520   -0.2194 C.ar    1  UNL1       -0.0490
      3 C           4.2431   -0.2253   -0.5170 C.ar    1  UNL1       -0.0577
      4 C           2.8804   -0.4269   -0.3522 C.ar    1  UNL1       -0.0463
      5 C           2.1041    0.5863    0.1343 C.ar    1  UNL1        0.0311
      6 S           0.3733    0.4556    0.4480 S.3     1  UNL1       -0.0861
      7 C          -0.2965   -1.1486    0.6341 C.ar    1  UNL1        0.0338
      8 C           0.4511   -2.2445    0.9496 C.ar    1  UNL1       -0.0462
      9 C          -0.1561   -3.4879    1.0310 C.ar    1  UNL1       -0.0606
     10 C          -1.5109   -3.6163    0.7955 C.ar    1  UNL1       -0.0599
     11 C          -2.2661   -2.5074    0.4782 C.ar    1  UNL1       -0.0396
     12 C          -1.6832   -1.2720    0.3927 C.ar    1  UNL1        0.0437
     13 N          -2.4564   -0.1139    0.0645 N.pl3   1  UNL1       -0.3266
     14 C          -2.5075    0.9755    1.0206 C.3     1  UNL1        0.0248
     15 C          -3.9044    1.5048    1.1994 C.3     1  UNL1        0.0117
     16 N          -4.7236    1.2928    0.0244 N.3     1  UNL1       -0.3130
     17 C          -3.9428    1.2564   -1.1969 C.3     1  UNL1        0.0117
     18 C          -3.1672   -0.0444   -1.1977 C.3     1  UNL1        0.0248
     19 C           2.7296    1.7958    0.4448 C.ar    1  UNL1        0.0549
     20 CL          1.7979    3.1211    1.0643 Cl      1  UNL1       -0.0824
     21 C           4.0799    1.9634    0.2696 C.ar    1  UNL1       -0.0394
     22 H           6.5550    0.9623   -1.5028 H       1  UNL1        0.0278
     23 H           6.7287    2.0267   -0.0047 H       1  UNL1        0.0278
     24 H           6.8162    0.2282    0.1209 H       1  UNL1        0.0278
     25 H           4.8142   -1.0800   -0.9115 H       1  UNL1        0.0621
     26 H           2.4481   -1.4012   -0.6530 H       1  UNL1        0.0629
     27 H           1.5044   -2.1737    1.1724 H       1  UNL1        0.0629
     28 H           0.4446   -4.3629    1.2823 H       1  UNL1        0.0618
     29 H          -1.9311   -4.6158    0.8738 H       1  UNL1        0.0618
     30 H          -3.3108   -2.6234    0.3000 H       1  UNL1        0.0636
     31 H          -2.1558    0.6239    2.0128 H       1  UNL1        0.0476
     32 H          -1.8017    1.7717    0.6922 H       1  UNL1        0.0476
     33 H          -4.3872    0.9451    2.0267 H       1  UNL1        0.0439
     34 H          -3.8179    2.5790    1.4634 H       1  UNL1        0.0439
     35 H          -5.5336    1.9130   -0.0255 H       1  UNL1        0.1220
     36 H          -4.6888    1.2858   -2.0356 H       1  UNL1        0.0439
     37 H          -3.2355    2.0886   -1.2397 H       1  UNL1        0.0439
     38 H          -3.8553   -0.9186   -1.2287 H       1  UNL1        0.0476
     39 H          -2.4582   -0.0680   -2.0626 H       1  UNL1        0.0476
     40 H           4.5937    2.9044    0.5065 H       1  UNL1        0.0635
@<TRIPOS>BOND
     1     1     2    1
     2     2     3   ar
     3     3     4   ar
     4     4     5   ar
     5     5     6    1
     6     6     7    1
     7     7     8   ar
     8     8     9   ar
     9     9    10   ar
    10    10    11   ar
    11    11    12   ar
    12    12    13    1
    13    13    14    1
    14    14    15    1
    15    15    16    1
    16    16    17    1
    17    17    18    1
    18     5    19   ar
    19    19    20    1
    20    19    21   ar
    21    21     2   ar
    22    12     7   ar
    23    18    13    1
    24     1    22    1
    25     1    23    1
    26     1    24    1
    27     3    25    1
    28     4    26    1
    29     8    27    1
    30     9    28    1
    31    10    29    1
    32    11    30    1
    33    14    31    1
    34    14    32    1
    35    15    33    1
    36    15    34    1
    37    16    35    1
    38    17    36    1
    39    17    37    1
    40    18    38    1
    41    18    39    1
    42    21    40    1
