@<TRIPOS>MOLECULE
*****
 39 41 0 0 0
SMALL
GASTEIGER

@<TRIPOS>ATOM
      1 O           6.2353    1.1509   -1.6816 O.2     1  UNL1       -0.2451
      2 C           5.2593    0.4033   -1.4387 C.2     1  UNL1        0.3369
      3 O           5.0260   -0.6725   -2.2535 O.3     1  UNL1       -0.4771
      4 C           4.4063    0.6995   -0.3024 C.ar    1  UNL1        0.0607
      5 C           4.6520    1.7863    0.5108 C.ar    1  UNL1       -0.0477
      6 C           3.8492    2.0806    1.5953 C.ar    1  UNL1       -0.0591
      7 C           2.7732    1.2777    1.8836 C.ar    1  UNL1       -0.0353
      8 C           2.4924    0.1661    1.0811 C.ar    1  UNL1        0.1063
      9 S           1.1407   -0.8752    1.4124 S.O2    1  UNL1        0.0612
     10 O           0.9166   -0.8893    2.8973 O.2     1  UNL1       -0.1528
     11 O           1.4363   -2.2853    0.9244 O.2     1  UNL1       -0.1528
     12 N          -0.2864   -0.3626    0.6180 N.3     1  UNL1       -0.1720
     13 C          -0.1777   -0.3573   -0.8017 C.3     1  UNL1        0.0248
     14 C          -1.2978   -1.0706   -1.5255 C.3     1  UNL1       -0.0127
     15 C          -2.5765   -0.6060   -0.9254 C.ar    1  UNL1       -0.0352
     16 C          -3.6710   -0.2000   -1.6601 C.ar    1  UNL1        0.0191
     17 C          -4.8393    0.2237   -1.0122 C.ar    1  UNL1        0.2734
     18 N          -5.9512    0.6362   -1.7714 N.pl3   1  UNL1        0.0796
     19 O          -6.9794    1.0091   -1.2025 O.2     1  UNL1        0.0414
     20 O          -5.8969    0.6255   -3.1309 O.co2   1  UNL1       -0.5760
     21 C          -4.8939    0.2343    0.3732 C.ar    1  UNL1        0.0159
     22 C          -3.7787   -0.1791    1.0967 C.ar    1  UNL1       -0.0506
     23 C          -2.6321   -0.5949    0.4540 C.ar    1  UNL1       -0.0280
     24 C          -1.4100   -1.0473    1.1686 C.3     1  UNL1        0.0458
     25 C           3.3137   -0.0897    0.0158 C.ar    1  UNL1       -0.0214
     26 H           5.7583   -1.1288   -2.8158 H       1  UNL1        0.2954
     27 H           5.5044    2.4046    0.2651 H       1  UNL1        0.0626
     28 H           4.0795    2.9565    2.2186 H       1  UNL1        0.0618
     29 H           2.1161    1.4794    2.7332 H       1  UNL1        0.0637
     30 H          -0.2446    0.7206   -1.1335 H       1  UNL1        0.0447
     31 H           0.8195   -0.7402   -1.1577 H       1  UNL1        0.0447
     32 H          -1.2429   -0.7976   -2.5962 H       1  UNL1        0.0326
     33 H          -1.2040   -2.1784   -1.4303 H       1  UNL1        0.0326
     34 H          -3.6048   -0.2170   -2.7449 H       1  UNL1        0.0688
     35 H          -5.7765    0.5540    0.9232 H       1  UNL1        0.0685
     36 H          -3.7642   -0.1918    2.1836 H       1  UNL1        0.0623
     37 H          -1.4594   -0.8322    2.2445 H       1  UNL1        0.0493
     38 H          -1.2481   -2.1489    0.9770 H       1  UNL1        0.0493
     39 H           3.1565   -0.9435   -0.6584 H       1  UNL1        0.0645
@<TRIPOS>UNITY_ATOM_ATTR
18 1
charge 1
20 1
charge -1
@<TRIPOS>BOND
     1     1     2    2
     2     2     3    1
     3     2     4    1
     4     4     5   ar
     5     5     6   ar
     6     6     7   ar
     7     7     8   ar
     8     8     9    1
     9     9    10    2
    10     9    11    2
    11     9    12    1
    12    12    13    1
    13    13    14    1
    14    14    15    1
    15    15    16   ar
    16    16    17   ar
    17    17    18    1
    18    18    19    2
    19    18    20    1
    20    17    21   ar
    21    21    22   ar
    22    22    23   ar
    23    23    24    1
    24     8    25   ar
    25    25     4   ar
    26    24    12    1
    27    23    15   ar
    28     3    26    1
    29     5    27    1
    30     6    28    1
    31     7    29    1
    32    13    30    1
    33    13    31    1
    34    14    32    1
    35    14    33    1
    36    16    34    1
    37    21    35    1
    38    22    36    1
    39    24    37    1
    40    24    38    1
    41    25    39    1
