@<TRIPOS>MOLECULE
*****
 48 49 0 0 0
SMALL
GASTEIGER

@<TRIPOS>ATOM
      1 C          -3.4216   -0.4425    1.8894 C.3     1  UNL1        0.0007
      2 N          -2.7972   -0.3524    0.6076 N.pl3   1  UNL1       -0.3329
      3 C          -3.7910   -0.3376   -0.4131 C.3     1  UNL1        0.0119
      4 C          -4.6338    0.9143   -0.4287 C.3     1  UNL1       -0.0367
      5 C          -5.6772    0.9185   -1.5066 C.3     1  UNL1       -0.0416
      6 C          -6.6572   -0.2100   -1.3975 C.3     1  UNL1        0.0448
      7 C          -7.4233   -0.2085   -0.1139 C.2     1  UNL1        0.3047
      8 O          -7.3929    0.6475    0.9947 O.3     1  UNL1       -0.4806
      9 O          -8.3105   -1.0152    0.2769 O.2     1  UNL1       -0.2510
     10 C          -1.3907   -0.2854    0.4117 C.ar    1  UNL1        0.0295
     11 C          -0.4993   -0.2996    1.4574 C.ar    1  UNL1       -0.0401
     12 C           0.8826   -0.2362    1.2744 C.ar    1  UNL1       -0.0528
     13 C           1.4188   -0.1556    0.0198 C.ar    1  UNL1       -0.0249
     14 C           2.8521   -0.0864   -0.2463 C.2     1  UNL1       -0.0540
     15 C           3.8126   -0.0859    0.6447 C.2     1  UNL1       -0.0540
     16 C           5.2558   -0.0199    0.4548 C.ar    1  UNL1       -0.0246
     17 C           6.1420   -0.0235    1.5118 C.ar    1  UNL1       -0.0482
     18 C           7.5038    0.0374    1.3190 C.ar    1  UNL1        0.0161
     19 C           8.0504    0.1049    0.0599 C.ar    1  UNL1        0.2732
     20 C           7.1492    0.1074   -0.9796 C.ar    1  UNL1        0.0161
     21 C           5.7577    0.0474   -0.8382 C.ar    1  UNL1       -0.0482
     22 N           9.4464    0.1668   -0.1606 N.pl3   1  UNL1        0.0796
     23 O           9.8790    0.2308   -1.4620 O.co2   1  UNL1       -0.5760
     24 O          10.1973    0.1600    0.8533 O.2     1  UNL1        0.0414
     25 C           0.5471   -0.1394   -1.0467 C.ar    1  UNL1       -0.0528
     26 C          -0.8123   -0.2035   -0.8313 C.ar    1  UNL1       -0.0401
     27 H          -2.7375   -0.8998    2.6353 H       1  UNL1        0.0428
     28 H          -4.3299   -1.1142    1.9106 H       1  UNL1        0.0428
     29 H          -3.6968    0.5494    2.3154 H       1  UNL1        0.0428
     30 H          -3.3534   -0.4501   -1.4219 H       1  UNL1        0.0463
     31 H          -4.4311   -1.2588   -0.2968 H       1  UNL1        0.0463
     32 H          -3.9749    1.7804   -0.6330 H       1  UNL1        0.0280
     33 H          -5.1307    1.1263    0.5308 H       1  UNL1        0.0280
     34 H          -6.1905    1.8864   -1.4735 H       1  UNL1        0.0271
     35 H          -5.1967    0.8171   -2.4963 H       1  UNL1        0.0271
     36 H          -7.4283   -0.0184   -2.1983 H       1  UNL1        0.0377
     37 H          -6.2150   -1.1826   -1.6053 H       1  UNL1        0.0377
     38 H          -6.9958    0.3964    1.8869 H       1  UNL1        0.2951
     39 H          -0.8182   -0.3582    2.4701 H       1  UNL1        0.0636
     40 H           1.5318   -0.2517    2.1415 H       1  UNL1        0.0624
     41 H           3.2086   -0.0285   -1.2623 H       1  UNL1        0.0624
     42 H           3.4877   -0.1446    1.6963 H       1  UNL1        0.0624
     43 H           5.7505   -0.0756    2.5185 H       1  UNL1        0.0626
     44 H           8.1279    0.0303    2.1904 H       1  UNL1        0.0685
     45 H           7.5613    0.1613   -1.9955 H       1  UNL1        0.0685
     46 H           5.1660    0.0573   -1.7414 H       1  UNL1        0.0626
     47 H           0.9730   -0.0736   -2.0545 H       1  UNL1        0.0624
     48 H          -1.3961   -0.1819   -1.7358 H       1  UNL1        0.0636
@<TRIPOS>UNITY_ATOM_ATTR
22 1
charge 1
23 1
charge -1
@<TRIPOS>BOND
     1     1     2    1
     2     2     3    1
     3     3     4    1
     4     4     5    1
     5     5     6    1
     6     6     7    1
     7     7     8    1
     8     7     9    2
     9     2    10    1
    10    10    11   ar
    11    11    12   ar
    12    12    13   ar
    13    13    14    1
    14    14    15    2
    15    15    16    1
    16    16    17   ar
    17    17    18   ar
    18    18    19   ar
    19    19    20   ar
    20    20    21   ar
    21    19    22    1
    22    22    23    1
    23    22    24    2
    24    13    25   ar
    25    25    26   ar
    26    26    10   ar
    27    21    16   ar
    28     1    27    1
    29     1    28    1
    30     1    29    1
    31     3    30    1
    32     3    31    1
    33     4    32    1
    34     4    33    1
    35     5    34    1
    36     5    35    1
    37     6    36    1
    38     6    37    1
    39     8    38    1
    40    11    39    1
    41    12    40    1
    42    14    41    1
    43    15    42    1
    44    17    43    1
    45    18    44    1
    46    20    45    1
    47    21    46    1
    48    25    47    1
    49    26    48    1
