
     RDKit          3D

 44 45  0  0  0  0  0  0  0  0999 V2000
    2.6345    3.4169   -0.7738 C   0  0  0  0  0  0  0  0  0  0  0  0
    1.8538    2.1292   -0.6028 C   0  0  0  0  0  0  0  0  0  0  0  0
    1.5032    2.0173    0.7999 N   0  0  0  0  0  0  0  0  0  0  0  0
    0.7503    0.8141    1.0749 C   0  0  1  0  0  0  0  0  0  0  0  0
   -0.5001    0.8440    0.2740 C   0  0  0  0  0  0  0  0  0  0  0  0
   -1.4655   -0.1674    0.7053 N   0  0  0  0  0  0  0  0  0  0  0  0
   -2.7997    0.1456    0.2067 C   0  0  0  0  0  0  0  0  0  0  0  0
   -3.8256   -0.4884    1.0892 C   0  0  0  0  0  0  0  0  0  0  0  0
   -5.2429   -0.2335    0.7133 C   0  0  0  0  0  0  0  0  0  0  0  0
   -5.7398   -0.6872   -0.4105 O   0  0  0  0  0  0  0  0  0  0  0  0
   -5.3447   -0.4672   -1.6572 C   0  0  0  0  0  0  0  0  0  0  0  0
   -0.8502   -1.6254    0.0107 S   0  0  0  0  0  6  0  0  0  0  0  0
   -1.1769   -1.6321   -1.4726 O   0  0  0  0  0  0  0  0  0  0  0  0
   -1.4186   -2.8430    0.6626 O   0  0  0  0  0  0  0  0  0  0  0  0
    0.8900   -1.5221    0.2099 C   0  0  0  0  0  0  0  0  0  0  0  0
    2.1950   -2.7463   -0.1325 S   0  0  0  0  0  0  0  0  0  0  0  0
    3.5193   -1.6463    0.4040 C   0  0  0  0  0  0  0  0  0  0  0  0
    5.2113   -2.1081    0.3847 S   0  0  0  0  0  6  0  0  0  0  0  0
    5.7670   -2.5074   -1.1769 N   0  0  0  0  0  0  0  0  0  0  0  0
    5.3354   -3.3342    1.2568 O   0  0  0  0  0  0  0  0  0  0  0  0
    5.9675   -0.9981    1.0184 O   0  0  0  0  0  0  0  0  0  0  0  0
    2.9063   -0.5242    0.7713 C   0  0  0  0  0  0  0  0  0  0  0  0
    1.5606   -0.4241    0.6857 C   0  0  0  0  0  0  0  0  0  0  0  0
    3.1023    3.7424    0.1773 H   0  0  0  0  0  0  0  0  0  0  0  0
    1.9855    4.2502   -1.1305 H   0  0  0  0  0  0  0  0  0  0  0  0
    3.4475    3.3109   -1.5181 H   0  0  0  0  0  0  0  0  0  0  0  0
    2.5282    1.3099   -0.9289 H   0  0  0  0  0  0  0  0  0  0  0  0
    0.9562    2.2157   -1.2591 H   0  0  0  0  0  0  0  0  0  0  0  0
    0.8744    2.8225    1.0100 H   0  0  0  0  0  0  0  0  0  0  0  0
    0.4798    0.7836    2.1476 H   0  0  0  0  0  0  0  0  0  0  0  0
   -0.9824    1.8280    0.4111 H   0  0  0  0  0  0  0  0  0  0  0  0
   -0.3333    0.6611   -0.8143 H   0  0  0  0  0  0  0  0  0  0  0  0
   -2.9131    1.2496    0.3376 H   0  0  0  0  0  0  0  0  0  0  0  0
   -2.8414   -0.1864   -0.8074 H   0  0  0  0  0  0  0  0  0  0  0  0
   -3.6672   -1.6109    1.1619 H   0  0  0  0  0  0  0  0  0  0  0  0
   -3.6569   -0.0990    2.1504 H   0  0  0  0  0  0  0  0  0  0  0  0
   -5.3818    0.9210    0.6997 H   0  0  0  0  0  0  0  0  0  0  0  0
   -5.9284   -0.5109    1.5901 H   0  0  0  0  0  0  0  0  0  0  0  0
   -6.1071   -0.9454   -2.3760 H   0  0  0  0  0  0  0  0  0  0  0  0
   -5.1878    0.5616   -2.0004 H   0  0  0  0  0  0  0  0  0  0  0  0
   -4.4377   -1.1200   -1.9180 H   0  0  0  0  0  0  0  0  0  0  0  0
    6.2799   -1.6617   -1.5613 H   0  0  0  0  0  0  0  0  0  0  0  0
    6.4893   -3.2571   -1.0882 H   0  0  0  0  0  0  0  0  0  0  0  0
    3.5637    0.3229    1.1514 H   0  0  0  0  0  0  0  0  0  0  0  0
  1  2  1  0
  2  3  1  0
  3  4  1  0
  4  5  1  0
  5  6  1  0
  6  7  1  0
  7  8  1  0
  8  9  1  0
  9 10  1  0
 10 11  1  0
  6 12  1  0
 12 13  2  0
 12 14  2  0
 12 15  1  0
 15 16  1  0
 16 17  1  0
 17 18  1  0
 18 19  1  0
 18 20  2  0
 18 21  2  0
 17 22  2  0
 22 23  1  0
 23  4  1  0
 23 15  2  0
  1 24  1  0
  1 25  1  0
  1 26  1  0
  2 27  1  0
  2 28  1  0
  3 29  1  0
  4 30  1  1
  5 31  1  0
  5 32  1  0
  7 33  1  0
  7 34  1  0
  8 35  1  0
  8 36  1  0
  9 37  1  0
  9 38  1  0
 11 39  1  0
 11 40  1  0
 11 41  1  0
 19 42  1  0
 19 43  1  0
 22 44  1  0
M  END
$$$$
