@<TRIPOS>MOLECULE
*****
 44 45 0 0 0
SMALL
GASTEIGER

@<TRIPOS>ATOM
      1 C           2.6345    3.4169   -0.7738 C.3     1  UNL1       -0.0526
      2 C           1.8538    2.1292   -0.6028 C.3     1  UNL1       -0.0064
      3 N           1.5032    2.0173    0.7999 N.3     1  UNL1       -0.3084
      4 C           0.7503    0.8141    1.0749 C.3     1  UNL1        0.0498
      5 C          -0.5001    0.8440    0.2740 C.3     1  UNL1        0.0401
      6 N          -1.4655   -0.1674    0.7053 N.3     1  UNL1       -0.1742
      7 C          -2.7997    0.1456    0.2067 C.3     1  UNL1        0.0227
      8 C          -3.8256   -0.4884    1.0892 C.3     1  UNL1       -0.0150
      9 C          -5.2429   -0.2335    0.7133 C.3     1  UNL1        0.0485
     10 O          -5.7398   -0.6872   -0.4105 O.3     1  UNL1       -0.3829
     11 C          -5.3447   -0.4672   -1.6572 C.3     1  UNL1        0.0364
     12 S          -0.8502   -1.6254    0.0107 S.O2    1  UNL1        0.0675
     13 O          -1.1769   -1.6321   -1.4726 O.2     1  UNL1       -0.1523
     14 O          -1.4186   -2.8430    0.6626 O.2     1  UNL1       -0.1523
     15 C           0.8900   -1.5221    0.2099 C.ar    1  UNL1        0.1491
     16 S           2.1950   -2.7463   -0.1325 S.2     1  UNL1       -0.0484
     17 C           3.5193   -1.6463    0.4040 C.ar    1  UNL1        0.1443
     18 S           5.2113   -2.1081    0.3847 S.O2    1  UNL1        0.0623
     19 N           5.7670   -2.5074   -1.1769 N.3     1  UNL1       -0.2030
     20 O           5.3354   -3.3342    1.2568 O.2     1  UNL1       -0.1527
     21 O           5.9675   -0.9981    1.0184 O.2     1  UNL1       -0.1527
     22 C           2.9063   -0.5242    0.7713 C.ar    1  UNL1       -0.0214
     23 C           1.5606   -0.4241    0.6857 C.ar    1  UNL1        0.0063
     24 H           3.1023    3.7424    0.1773 H       1  UNL1        0.0242
     25 H           1.9855    4.2502   -1.1305 H       1  UNL1        0.0242
     26 H           3.4475    3.3109   -1.5181 H       1  UNL1        0.0242
     27 H           2.5282    1.3099   -0.9289 H       1  UNL1        0.0421
     28 H           0.9562    2.2157   -1.2591 H       1  UNL1        0.0421
     29 H           0.8744    2.8225    1.0100 H       1  UNL1        0.1225
     30 H           0.4798    0.7836    2.1476 H       1  UNL1        0.0524
     31 H          -0.9824    1.8280    0.4111 H       1  UNL1        0.0463
     32 H          -0.3333    0.6611   -0.8143 H       1  UNL1        0.0463
     33 H          -2.9131    1.2496    0.3376 H       1  UNL1        0.0445
     34 H          -2.8414   -0.1864   -0.8074 H       1  UNL1        0.0445
     35 H          -3.6672   -1.6109    1.1619 H       1  UNL1        0.0300
     36 H          -3.6569   -0.0990    2.1504 H       1  UNL1        0.0300
     37 H          -5.3818    0.9210    0.6997 H       1  UNL1        0.0560
     38 H          -5.9284   -0.5109    1.5901 H       1  UNL1        0.0560
     39 H          -6.1071   -0.9454   -2.3760 H       1  UNL1        0.0523
     40 H          -5.1878    0.5616   -2.0004 H       1  UNL1        0.0523
     41 H          -4.4377   -1.1200   -1.9180 H       1  UNL1        0.0523
     42 H           6.2799   -1.6617   -1.5613 H       1  UNL1        0.1443
     43 H           6.4893   -3.2571   -1.0882 H       1  UNL1        0.1443
     44 H           3.5637    0.3229    1.1514 H       1  UNL1        0.0646
@<TRIPOS>BOND
     1     1     2    1
     2     2     3    1
     3     3     4    1
     4     4     5    1
     5     5     6    1
     6     6     7    1
     7     7     8    1
     8     8     9    1
     9     9    10    1
    10    10    11    1
    11     6    12    1
    12    12    13    2
    13    12    14    2
    14    12    15    1
    15    15    16   ar
    16    16    17   ar
    17    17    18    1
    18    18    19    1
    19    18    20    2
    20    18    21    2
    21    17    22   ar
    22    22    23   ar
    23    23     4    1
    24    23    15   ar
    25     1    24    1
    26     1    25    1
    27     1    26    1
    28     2    27    1
    29     2    28    1
    30     3    29    1
    31     4    30    1
    32     5    31    1
    33     5    32    1
    34     7    33    1
    35     7    34    1
    36     8    35    1
    37     8    36    1
    38     9    37    1
    39     9    38    1
    40    11    39    1
    41    11    40    1
    42    11    41    1
    43    19    42    1
    44    19    43    1
    45    22    44    1
