
     RDKit          3D

 22 22  0  0  0  0  0  0  0  0999 V2000
   -2.8109    0.3787    0.0765 C   0  0  0  0  0  0  0  0  0  0  0  0
   -1.6427   -0.2127    0.8622 C   0  0  0  0  0  0  0  0  0  0  0  0
   -0.4414   -0.0965   -0.0341 C   0  0  0  0  0  0  0  0  0  0  0  0
   -0.7320   -0.8874   -1.3072 C   0  0  0  0  0  0  0  0  0  0  0  0
   -0.1946    1.2596   -0.2828 O   0  0  0  0  0  0  0  0  0  0  0  0
    1.1956    1.4710   -0.3557 C   0  0  0  0  0  0  0  0  0  0  0  0
    1.8171    2.4877   -0.8135 O   0  0  0  0  0  0  0  0  0  0  0  0
    1.8380    0.3140    0.1891 N   0  0  0  0  0  0  0  0  0  0  0  0
    3.2668    0.0547    0.3339 C   0  0  0  0  0  0  0  0  0  0  0  0
    0.8063   -0.6061    0.5952 C   0  0  0  0  0  0  0  0  0  0  0  0
    0.9793   -1.6223    1.3355 O   0  0  0  0  0  0  0  0  0  0  0  0
   -3.1408   -0.4267   -0.6372 H   0  0  0  0  0  0  0  0  0  0  0  0
   -2.4152    1.2038   -0.5541 H   0  0  0  0  0  0  0  0  0  0  0  0
   -3.6127    0.6783    0.7687 H   0  0  0  0  0  0  0  0  0  0  0  0
   -1.4934    0.4524    1.7612 H   0  0  0  0  0  0  0  0  0  0  0  0
   -1.9194   -1.2309    1.1459 H   0  0  0  0  0  0  0  0  0  0  0  0
   -1.3985   -1.7313   -1.0442 H   0  0  0  0  0  0  0  0  0  0  0  0
   -1.2261   -0.2338   -2.0710 H   0  0  0  0  0  0  0  0  0  0  0  0
    0.2392   -1.2752   -1.6565 H   0  0  0  0  0  0  0  0  0  0  0  0
    3.4766   -0.0142    1.4043 H   0  0  0  0  0  0  0  0  0  0  0  0
    3.5930   -0.8649   -0.1889 H   0  0  0  0  0  0  0  0  0  0  0  0
    3.8157    0.9016   -0.1317 H   0  0  0  0  0  0  0  0  0  0  0  0
  1  2  1  0
  2  3  1  0
  3  4  1  0
  3  5  1  0
  5  6  1  0
  6  7  2  0
  6  8  1  0
  8  9  1  0
  8 10  1  0
 10 11  2  0
 10  3  1  0
  1 12  1  0
  1 13  1  0
  1 14  1  0
  2 15  1  0
  2 16  1  0
  4 17  1  0
  4 18  1  0
  4 19  1  0
  9 20  1  0
  9 21  1  0
  9 22  1  0
M  END
$$$$
