@<TRIPOS>MOLECULE
*****
 56 60 0 0 0
SMALL
GASTEIGER

@<TRIPOS>ATOM
      1 N           4.7467   -3.6747    0.3457 N.3     1  UNL1       -0.2035
      2 S           3.7103   -2.9317   -0.8185 S.O2    1  UNL1        0.0560
      3 O           2.3014   -2.9611   -0.3069 O.2     1  UNL1       -0.1533
      4 O           3.8135   -3.7032   -2.1022 O.2     1  UNL1       -0.1533
      5 C           4.2641   -1.2803   -1.0372 C.ar    1  UNL1        0.1056
      6 C           5.2079   -0.9449   -1.9843 C.ar    1  UNL1       -0.0353
      7 C           5.6319    0.3568   -2.1434 C.ar    1  UNL1       -0.0593
      8 C           5.1043    1.3627   -1.3378 C.ar    1  UNL1       -0.0524
      9 C           4.1569    1.0425   -0.3834 C.ar    1  UNL1        0.0045
     10 C           3.6234    2.1125    0.4521 C.ar    1  UNL1        0.1003
     11 N           4.3138    3.0877    1.0921 N.ar    1  UNL1       -0.1727
     12 N           3.4511    3.8560    1.7351 N.ar    1  UNL1       -0.2764
     13 C           2.1966    3.4132    1.5370 C.ar    1  UNL1        0.0665
     14 C           0.9456    3.8159    1.9507 C.ar    1  UNL1       -0.0345
     15 C          -0.1824    3.1263    1.5588 C.ar    1  UNL1       -0.0385
     16 C          -0.1271    2.0150    0.7460 C.ar    1  UNL1        0.0342
     17 N          -1.2815    1.2966    0.3349 N.am    1  UNL1       -0.2839
     18 C          -1.7350    0.2269    1.1493 C.2     1  UNL1        0.2390
     19 O          -1.0712   -0.0225    2.2002 O.2     1  UNL1       -0.2734
     20 C          -2.9274   -0.5688    0.7956 C.3     1  UNL1        0.1136
     21 C          -2.5091   -1.9640    0.2851 C.ar    1  UNL1       -0.0144
     22 C          -1.9434   -2.1894   -0.8966 C.ar    1  UNL1       -0.0496
     23 C          -1.6022   -3.4946   -1.2623 C.ar    1  UNL1       -0.0240
     24 S          -2.1308   -4.4415    0.1858 S.2     1  UNL1       -0.1047
     25 C          -2.7499   -3.0278    1.1329 C.ar    1  UNL1       -0.0192
     26 N          -3.5659    0.0564   -0.3442 N.3     1  UNL1       -0.2879
     27 C          -4.6848   -0.7522   -0.8211 C.3     1  UNL1       -0.0001
     28 C          -5.6923   -0.5706    0.2832 C.3     1  UNL1       -0.0390
     29 C          -5.5722    0.9155    0.5471 C.3     1  UNL1       -0.0390
     30 C          -4.1953    1.3124    0.0224 C.3     1  UNL1       -0.0001
     31 C           1.1449    1.6142    0.3317 C.ar    1  UNL1       -0.0292
     32 C           2.2825    2.2920    0.7143 C.ar    1  UNL1        0.0291
     33 C           3.7419   -0.2636   -0.2347 C.ar    1  UNL1       -0.0261
     34 H           4.9983   -4.6483    0.0864 H       1  UNL1        0.1442
     35 H           4.3280   -3.6306    1.3013 H       1  UNL1        0.1442
     36 H           5.6125   -1.7318   -2.6059 H       1  UNL1        0.0637
     37 H           6.3709    0.5537   -2.8999 H       1  UNL1        0.0618
     38 H           5.4149    2.3739   -1.4410 H       1  UNL1        0.0624
     39 H           3.6931    4.6975    2.3223 H       1  UNL1        0.1889
     40 H           0.9044    4.6913    2.5907 H       1  UNL1        0.0639
     41 H          -1.1758    3.4588    1.8968 H       1  UNL1        0.0637
     42 H          -1.7507    1.5780   -0.5548 H       1  UNL1        0.1549
     43 H          -3.5880   -0.6547    1.6487 H       1  UNL1        0.0609
     44 H          -1.7325   -1.3304   -1.6172 H       1  UNL1        0.0626
     45 H          -1.1547   -3.8659   -2.1404 H       1  UNL1        0.0693
     46 H          -3.1755   -3.0810    2.0885 H       1  UNL1        0.0697
     47 H          -4.4142   -1.7883   -1.0209 H       1  UNL1        0.0427
     48 H          -5.0786   -0.2347   -1.7358 H       1  UNL1        0.0427
     49 H          -5.4929   -1.1884    1.1599 H       1  UNL1        0.0278
     50 H          -6.6925   -0.7690   -0.1611 H       1  UNL1        0.0278
     51 H          -6.3422    1.4535   -0.0185 H       1  UNL1        0.0278
     52 H          -5.6524    1.0530    1.6410 H       1  UNL1        0.0278
     53 H          -4.2918    1.9242   -0.8833 H       1  UNL1        0.0427
     54 H          -3.6456    1.8603    0.8186 H       1  UNL1        0.0427
     55 H           1.1866    0.7292   -0.3190 H       1  UNL1        0.0643
     56 H           3.0124   -0.5626    0.4935 H       1  UNL1        0.0644
@<TRIPOS>BOND
     1     1     2    1
     2     2     3    2
     3     2     4    2
     4     2     5    1
     5     5     6   ar
     6     6     7   ar
     7     7     8   ar
     8     8     9   ar
     9     9    10    1
    10    10    11   ar
    11    11    12   ar
    12    12    13   ar
    13    13    14   ar
    14    14    15   ar
    15    15    16   ar
    16    16    17    1
    17    17    18   am
    18    18    19    2
    19    18    20    1
    20    20    21    1
    21    21    22   ar
    22    22    23   ar
    23    23    24   ar
    24    24    25   ar
    25    20    26    1
    26    26    27    1
    27    27    28    1
    28    28    29    1
    29    29    30    1
    30    16    31   ar
    31    31    32   ar
    32     9    33   ar
    33    33     5   ar
    34    32    10   ar
    35    32    13   ar
    36    25    21   ar
    37    30    26    1
    38     1    34    1
    39     1    35    1
    40     6    36    1
    41     7    37    1
    42     8    38    1
    43    12    39    1
    44    14    40    1
    45    15    41    1
    46    17    42    1
    47    20    43    1
    48    22    44    1
    49    23    45    1
    50    25    46    1
    51    27    47    1
    52    27    48    1
    53    28    49    1
    54    28    50    1
    55    29    51    1
    56    29    52    1
    57    30    53    1
    58    30    54    1
    59    31    55    1
    60    33    56    1
