@<TRIPOS>MOLECULE
*****
 31 32 0 0 0
SMALL
GASTEIGER

@<TRIPOS>ATOM
      1 C          -2.8373    1.5191   -0.9156 C.3     1  UNL1        0.0110
      2 N          -2.5278    0.9713    0.3771 N.3     1  UNL1       -0.1583
      3 C          -2.5729   -0.4637    0.4494 C.3     1  UNL1        0.1074
      4 C          -3.9296   -1.0228    0.1446 C.3     1  UNL1        0.0559
      5 CL         -4.5042   -0.6121   -1.4682 Cl      1  UNL1       -0.1221
      6 N          -1.5927   -1.1120   -0.4034 N.pl3   1  UNL1       -0.3248
      7 C          -0.2110   -0.7810   -0.3975 C.ar    1  UNL1        0.0565
      8 C           0.7575   -1.6128   -0.9310 C.ar    1  UNL1       -0.0186
      9 C           2.0920   -1.2072   -0.8818 C.ar    1  UNL1        0.0691
     10 CL          3.2744   -2.3009   -1.5728 Cl      1  UNL1       -0.0815
     11 C           2.4691   -0.0225   -0.3271 C.ar    1  UNL1        0.1252
     12 C           1.5187    0.8260    0.2128 C.ar    1  UNL1       -0.0057
     13 C           0.2076    0.4004    0.1508 C.ar    1  UNL1        0.1282
     14 S          -0.9683    1.5209    0.8545 S.O2    1  UNL1        0.0641
     15 O          -0.6675    2.9065    0.3599 O.2     1  UNL1       -0.1527
     16 O          -0.9310    1.4499    2.3628 O.2     1  UNL1       -0.1527
     17 S           4.1682    0.4009   -0.3115 S.O2    1  UNL1        0.0574
     18 N           5.0949   -0.7466    0.5489 N.3     1  UNL1       -0.2035
     19 O           4.6248    0.3843   -1.7426 O.2     1  UNL1       -0.1532
     20 O           4.3645    1.7912    0.2470 O.2     1  UNL1       -0.1532
     21 H          -2.2661    2.4880   -1.0081 H       1  UNL1        0.0409
     22 H          -2.4737    0.9033   -1.7606 H       1  UNL1        0.0409
     23 H          -3.8981    1.8235   -1.0175 H       1  UNL1        0.0409
     24 H          -2.3248   -0.7293    1.4956 H       1  UNL1        0.0696
     25 H          -3.8656   -2.1297    0.2028 H       1  UNL1        0.0462
     26 H          -4.6740   -0.7148    0.9086 H       1  UNL1        0.0462
     27 H          -1.8604   -1.8789   -1.0866 H       1  UNL1        0.1477
     28 H           0.4157   -2.5549   -1.3673 H       1  UNL1        0.0652
     29 H           1.8346    1.7583    0.6472 H       1  UNL1        0.0658
     30 H           6.0681   -0.7495    0.1181 H       1  UNL1        0.1442
     31 H           5.2147   -0.5051    1.5492 H       1  UNL1        0.1442
@<TRIPOS>BOND
     1     1     2    1
     2     2     3    1
     3     3     4    1
     4     4     5    1
     5     3     6    1
     6     6     7    1
     7     7     8   ar
     8     8     9   ar
     9     9    10    1
    10     9    11   ar
    11    11    12   ar
    12    12    13   ar
    13    13    14    1
    14    14    15    2
    15    14    16    2
    16    11    17    1
    17    17    18    1
    18    17    19    2
    19    17    20    2
    20    14     2    1
    21    13     7   ar
    22     1    21    1
    23     1    22    1
    24     1    23    1
    25     3    24    1
    26     4    25    1
    27     4    26    1
    28     6    27    1
    29     8    28    1
    30    12    29    1
    31    18    30    1
    32    18    31    1
