
     RDKit          3D

 44 48  0  0  0  0  0  0  0  0999 V2000
   -1.9884   -1.2934    0.1797 C   0  0  1  0  0  0  0  0  0  0  0  0
   -0.5355   -1.5159    0.0981 C   0  0  0  0  0  0  0  0  0  0  0  0
    0.0632   -2.5783   -0.2888 O   0  0  0  0  0  0  0  0  0  0  0  0
    0.1231   -0.3094    0.5369 N   0  0  0  0  0  0  0  0  0  0  0  0
   -0.9029    0.6954    0.6885 C   0  0  0  0  0  0  0  0  0  0  0  0
   -0.5789    1.9181    0.5021 O   0  0  0  0  0  0  0  0  0  0  0  0
   -2.1337   -0.0758    1.0480 C   0  0  1  0  0  0  0  0  0  0  0  0
   -3.4044    0.6109    0.6752 C   0  0  2  0  0  0  0  0  0  0  0  0
   -4.4384   -0.5035    0.4644 C   0  0  0  0  0  0  0  0  0  0  0  0
   -4.1652   -1.1939   -0.8681 C   0  0  0  0  0  0  0  0  0  0  0  0
   -2.6638   -1.0164   -1.1233 C   0  0  1  0  0  0  0  0  0  0  0  0
   -2.5282    0.4256   -1.5897 C   0  0  0  0  0  0  0  0  0  0  0  0
   -3.2014    1.3587   -0.6230 C   0  0  0  0  0  0  0  0  0  0  0  0
    1.5365   -0.1801    0.7671 C   0  0  0  0  0  0  0  0  0  0  0  0
    2.0420   -0.4566    2.0412 C   0  0  0  0  0  0  0  0  0  0  0  0
    3.3720   -0.3446    2.2928 C   0  0  0  0  0  0  0  0  0  0  0  0
    4.1794    0.0479    1.2483 C   0  0  0  0  0  0  0  0  0  0  0  0
    3.7468    0.3342   -0.0256 C   0  0  0  0  0  0  0  0  0  0  0  0
    4.5752    0.7255   -1.0537 C   0  0  0  0  0  0  0  0  0  0  0  0
    4.0739    0.9993   -2.3138 C   0  0  0  0  0  0  0  0  0  0  0  0
    2.7029    0.8755   -2.5430 C   0  0  0  0  0  0  0  0  0  0  0  0
    1.9089    0.4825   -1.4916 C   0  0  0  0  0  0  0  0  0  0  0  0
    2.3889    0.2044   -0.2265 C   0  0  0  0  0  0  0  0  0  0  0  0
    5.5630    0.1548    1.5540 N   0  0  0  0  0  4  0  0  0  0  0  0
    6.7137    0.8094    1.1941 O   0  0  0  0  0  1  0  0  0  0  0  0
    6.1634   -0.4942    2.4416 O   0  0  0  0  0  0  0  0  0  0  0  0
   -2.5196   -2.1204    0.7023 H   0  0  0  0  0  0  0  0  0  0  0  0
   -2.0534   -0.3070    2.1263 H   0  0  0  0  0  0  0  0  0  0  0  0
   -3.8327    1.2612    1.4682 H   0  0  0  0  0  0  0  0  0  0  0  0
   -5.4747   -0.1254    0.5272 H   0  0  0  0  0  0  0  0  0  0  0  0
   -4.3217   -1.2889    1.2401 H   0  0  0  0  0  0  0  0  0  0  0  0
   -4.4692   -2.2510   -0.8522 H   0  0  0  0  0  0  0  0  0  0  0  0
   -4.7235   -0.5989   -1.6382 H   0  0  0  0  0  0  0  0  0  0  0  0
   -2.3226   -1.6759   -1.9601 H   0  0  0  0  0  0  0  0  0  0  0  0
   -1.5108    0.7176   -1.8531 H   0  0  0  0  0  0  0  0  0  0  0  0
   -3.1199    0.4654   -2.5511 H   0  0  0  0  0  0  0  0  0  0  0  0
   -4.2347    1.6420   -0.9800 H   0  0  0  0  0  0  0  0  0  0  0  0
   -2.6803    2.3034   -0.4473 H   0  0  0  0  0  0  0  0  0  0  0  0
    1.3590   -0.7590    2.8153 H   0  0  0  0  0  0  0  0  0  0  0  0
    3.7573   -0.5606    3.2828 H   0  0  0  0  0  0  0  0  0  0  0  0
    5.6252    0.8150   -0.8591 H   0  0  0  0  0  0  0  0  0  0  0  0
    4.7222    1.3046   -3.1166 H   0  0  0  0  0  0  0  0  0  0  0  0
    2.3234    1.0917   -3.5273 H   0  0  0  0  0  0  0  0  0  0  0  0
    0.8639    0.4061   -1.7332 H   0  0  0  0  0  0  0  0  0  0  0  0
  1  2  1  0
  2  3  2  0
  2  4  1  0
  4  5  1  0
  5  6  2  0
  5  7  1  0
  7  8  1  0
  8  9  1  0
  9 10  1  0
 10 11  1  0
 11 12  1  0
 12 13  1  0
  4 14  1  0
 14 15  2  0
 15 16  1  0
 16 17  2  0
 17 18  1  0
 18 19  2  0
 19 20  1  0
 20 21  2  0
 21 22  1  0
 22 23  2  0
 17 24  1  0
 24 25  1  0
 24 26  2  0
  7  1  1  0
 13  8  1  0
 23 14  1  0
 11  1  1  0
 23 18  1  0
  1 27  1  1
  7 28  1  1
  8 29  1  1
  9 30  1  0
  9 31  1  0
 10 32  1  0
 10 33  1  0
 11 34  1  6
 12 35  1  0
 12 36  1  0
 13 37  1  0
 13 38  1  0
 15 39  1  0
 16 40  1  0
 19 41  1  0
 20 42  1  0
 21 43  1  0
 22 44  1  0
M  CHG  2  24   1  25  -1
M  END
$$$$
