@<TRIPOS>MOLECULE
*****
 70 74 0 0 0
SMALL
GASTEIGER

@<TRIPOS>ATOM
      1 O          -0.3964   -3.3069    3.3709 O.2     1  UNL1       -0.1500
      2 S           0.4758   -3.6418    2.1603 S.O2    1  UNL1        0.0723
      3 O           1.3720   -4.8080    2.6417 O.2     1  UNL1       -0.1500
      4 N          -0.4429   -4.1903    0.8675 N.pl3   1  UNL1       -0.2163
      5 C          -1.4776   -3.5201    0.1590 C.ar    1  UNL1        0.0481
      6 C          -2.5737   -4.3142   -0.2517 C.ar    1  UNL1       -0.0391
      7 C          -3.6128   -3.7376   -0.9210 C.ar    1  UNL1       -0.0567
      8 C          -3.6513   -2.3973   -1.2220 C.ar    1  UNL1       -0.0460
      9 C          -4.8188   -1.8770   -1.9440 C.3     1  UNL1       -0.0151
     10 C          -6.0237   -1.8059   -0.9972 C.3     1  UNL1       -0.0000
     11 N          -5.8911   -0.9780    0.1227 N.3     1  UNL1       -0.3129
     12 C          -5.9246    0.4339   -0.0362 C.3     1  UNL1        0.0262
     13 C          -7.3169    0.8978   -0.4143 C.3     1  UNL1        0.0940
     14 O          -7.8008    0.4195   -1.5969 O.3     1  UNL1       -0.3859
     15 C          -7.4834    2.3434   -0.3155 C.ar    1  UNL1        0.0002
     16 C          -8.7445    2.8459   -0.6526 C.ar    1  UNL1       -0.0532
     17 C          -8.9621    4.1990   -0.5657 C.ar    1  UNL1       -0.0433
     18 C          -7.9435    5.0178   -0.1536 C.ar    1  UNL1        0.0276
     19 N          -6.7406    4.4907    0.1635 N.ar    1  UNL1       -0.2629
     20 C          -6.4830    3.1898    0.0939 C.ar    1  UNL1        0.0332
     21 C          -2.6063   -1.6377   -0.8342 C.ar    1  UNL1       -0.0567
     22 C          -1.5077   -2.2205   -0.1345 C.ar    1  UNL1       -0.0391
     23 C           1.5001   -2.2866    1.7761 C.ar    1  UNL1        0.1085
     24 C           1.1958   -0.9603    1.8954 C.ar    1  UNL1       -0.0344
     25 C           2.1040    0.0492    1.6089 C.ar    1  UNL1       -0.0502
     26 C           3.3797   -0.2280    1.1831 C.ar    1  UNL1        0.0072
     27 C           4.3654    0.7902    0.8879 C.ar    1  UNL1        0.1089
     28 N           5.5540    0.8584    0.6134 N.ar    1  UNL1       -0.2391
     29 C           6.3184    1.8461    0.4082 C.ar    1  UNL1        0.0788
     30 C           7.7939    1.7896    0.1168 C.ar    1  UNL1        0.0009
     31 C           8.4284    0.5645    0.0610 C.ar    1  UNL1       -0.0520
     32 C           9.7554    0.4054   -0.1785 C.ar    1  UNL1       -0.0495
     33 C          10.5050    1.5620   -0.3772 C.ar    1  UNL1        0.0548
     34 C          11.9714    1.3993   -0.6343 C.3     1  UNL1        0.4174
     35 F          12.3723    0.2319   -0.0355 F       1  UNL1       -0.1659
     36 F          12.6077    2.4953   -0.1277 F       1  UNL1       -0.1659
     37 F          12.1560    1.3306   -2.0137 F       1  UNL1       -0.1659
     38 C           9.9058    2.8050   -0.3302 C.ar    1  UNL1       -0.0495
     39 C           8.5314    2.9179   -0.0802 C.ar    1  UNL1       -0.0520
     40 C           5.7350    3.1339    0.4968 C.ar    1  UNL1        0.0037
     41 S           3.9858    2.6192    0.9124 S.2     1  UNL1       -0.0750
     42 C           3.7133   -1.5651    1.0540 C.ar    1  UNL1       -0.0502
     43 C           2.8210   -2.5575    1.3344 C.ar    1  UNL1       -0.0344
     44 H          -0.2100   -5.2034    0.5267 H       1  UNL1        0.1737
     45 H          -2.5282   -5.3617   -0.0126 H       1  UNL1        0.0636
     46 H          -4.4423   -4.3767   -1.2148 H       1  UNL1        0.0621
     47 H          -5.0951   -2.5935   -2.7372 H       1  UNL1        0.0325
     48 H          -4.6185   -0.9144   -2.4289 H       1  UNL1        0.0325
     49 H          -6.9027   -1.6798   -1.6443 H       1  UNL1        0.0427
     50 H          -6.1093   -2.8703   -0.6157 H       1  UNL1        0.0427
     51 H          -4.9966   -1.2277    0.6314 H       1  UNL1        0.1220
     52 H          -5.1577    0.7640   -0.7480 H       1  UNL1        0.0453
     53 H          -5.6832    0.8993    0.9406 H       1  UNL1        0.0453
     54 H          -7.9796    0.4028    0.3918 H       1  UNL1        0.0657
     55 H          -8.7486    0.1340   -1.5608 H       1  UNL1        0.2103
     56 H          -9.5621    2.2181   -0.9747 H       1  UNL1        0.0622
     57 H          -9.9023    4.6094   -0.8134 H       1  UNL1        0.0633
     58 H          -8.0305    6.0932   -0.0546 H       1  UNL1        0.0829
     59 H          -5.4981    2.8470    0.3572 H       1  UNL1        0.0833
     60 H          -2.5399   -0.5886   -1.0225 H       1  UNL1        0.0621
     61 H          -0.6890   -1.5748    0.1397 H       1  UNL1        0.0636
     62 H           0.1955   -0.7068    2.2232 H       1  UNL1        0.0637
     63 H           1.8170    1.0860    1.7182 H       1  UNL1        0.0625
     64 H           7.7927   -0.3125    0.2235 H       1  UNL1        0.0624
     65 H          10.2720   -0.5588   -0.2261 H       1  UNL1        0.0623
     66 H          10.5089    3.6662   -0.4868 H       1  UNL1        0.0623
     67 H           8.0783    3.9034   -0.0481 H       1  UNL1        0.0624
     68 H           6.0589    4.1079    0.3938 H       1  UNL1        0.0715
     69 H           4.7380   -1.7644    0.7136 H       1  UNL1        0.0625
     70 H           3.0866   -3.6015    1.2359 H       1  UNL1        0.0637
@<TRIPOS>BOND
     1     1     2    2
     2     2     3    2
     3     2     4    1
     4     4     5    1
     5     5     6   ar
     6     6     7   ar
     7     7     8   ar
     8     8     9    1
     9     9    10    1
    10    10    11    1
    11    11    12    1
    12    12    13    1
    13    13    14    1
    14    13    15    1
    15    15    16   ar
    16    16    17   ar
    17    17    18   ar
    18    18    19   ar
    19    19    20   ar
    20     8    21   ar
    21    21    22   ar
    22     2    23    1
    23    23    24   ar
    24    24    25   ar
    25    25    26   ar
    26    26    27    1
    27    27    28   ar
    28    28    29   ar
    29    29    30    1
    30    30    31   ar
    31    31    32   ar
    32    32    33   ar
    33    33    34    1
    34    34    35    1
    35    34    36    1
    36    34    37    1
    37    33    38   ar
    38    38    39   ar
    39    29    40   ar
    40    40    41   ar
    41    26    42   ar
    42    42    43   ar
    43    22     5   ar
    44    43    23   ar
    45    20    15   ar
    46    41    27   ar
    47    39    30   ar
    48     4    44    1
    49     6    45    1
    50     7    46    1
    51     9    47    1
    52     9    48    1
    53    10    49    1
    54    10    50    1
    55    11    51    1
    56    12    52    1
    57    12    53    1
    58    13    54    1
    59    14    55    1
    60    16    56    1
    61    17    57    1
    62    18    58    1
    63    20    59    1
    64    21    60    1
    65    22    61    1
    66    24    62    1
    67    25    63    1
    68    31    64    1
    69    32    65    1
    70    38    66    1
    71    39    67    1
    72    40    68    1
    73    42    69    1
    74    43    70    1
