@<TRIPOS>MOLECULE
*****
 50 52 0 0 0
SMALL
GASTEIGER

@<TRIPOS>ATOM
      1 C          -6.1259    1.7252   -2.8248 C.3     1  UNL1       -0.0370
      2 C          -6.2418    1.0068   -1.5338 C.ar    1  UNL1       -0.0150
      3 C          -5.3606    1.2814   -0.4878 C.ar    1  UNL1       -0.0514
      4 C          -5.4598    0.6199    0.7175 C.ar    1  UNL1       -0.0299
      5 C          -4.5546    0.8729    1.8388 C.3     1  UNL1        0.0372
      6 N          -3.3944    0.0207    1.8971 N.am    1  UNL1       -0.3060
      7 C          -2.2390    0.1403    1.0851 C.2     1  UNL1        0.2628
      8 O          -2.2015    1.0581    0.2393 O.2     1  UNL1       -0.2685
      9 C          -1.1012   -0.7588    1.1978 C.ar    1  UNL1        0.1292
     10 C          -0.0030   -0.5825    0.3757 C.ar    1  UNL1       -0.0006
     11 C           1.0887   -1.4170    0.4615 C.ar    1  UNL1        0.1292
     12 C           2.2388   -1.2222   -0.4060 C.2     1  UNL1        0.2628
     13 O           2.2350   -0.2677   -1.2603 O.2     1  UNL1       -0.2685
     14 N           3.3479   -2.0942   -0.2911 N.am    1  UNL1       -0.3060
     15 C           4.5168   -1.9662   -1.1055 C.3     1  UNL1        0.0372
     16 C           5.4423   -0.8912   -0.7161 C.ar    1  UNL1       -0.0299
     17 C           6.4144   -1.1252    0.2689 C.ar    1  UNL1       -0.0543
     18 C           7.2966   -0.1340    0.6347 C.ar    1  UNL1       -0.0259
     19 C           7.2474    1.1045    0.0467 C.ar    1  UNL1        0.1263
     20 F           8.1068    2.1116    0.3849 F       1  UNL1       -0.2052
     21 C           6.2877    1.3082   -0.9140 C.ar    1  UNL1       -0.0150
     22 C           6.1848    2.6497   -1.5964 C.3     1  UNL1       -0.0370
     23 C           5.3787    0.3419   -1.3154 C.ar    1  UNL1       -0.0514
     24 N           1.0647   -2.3994    1.3543 N.ar    1  UNL1       -0.2308
     25 C           0.0071   -2.6009    2.1743 C.ar    1  UNL1        0.1176
     26 N          -1.0462   -1.7801    2.0775 N.ar    1  UNL1       -0.2308
     27 C          -6.4575   -0.3167    0.8463 C.ar    1  UNL1       -0.0543
     28 C          -7.3282   -0.5920   -0.1789 C.ar    1  UNL1       -0.0259
     29 C          -7.2388    0.0686   -1.4006 C.ar    1  UNL1        0.1263
     30 F          -8.1092   -0.2193   -2.3980 F       1  UNL1       -0.2052
     31 H          -7.1432    1.9428   -3.2623 H       1  UNL1        0.0278
     32 H          -5.6180    2.7151   -2.6721 H       1  UNL1        0.0278
     33 H          -5.5860    1.1445   -3.5943 H       1  UNL1        0.0278
     34 H          -4.5989    2.0195   -0.6227 H       1  UNL1        0.0624
     35 H          -5.0655    0.8406    2.8294 H       1  UNL1        0.0512
     36 H          -4.2137    1.9448    1.7436 H       1  UNL1        0.0512
     37 H          -3.3834   -0.7725    2.6027 H       1  UNL1        0.1494
     38 H          -0.0132    0.2301   -0.3456 H       1  UNL1        0.0663
     39 H           3.2652   -2.8652    0.4474 H       1  UNL1        0.1494
     40 H           5.0691   -2.9307   -1.0710 H       1  UNL1        0.0512
     41 H           4.2622   -1.8194   -2.1950 H       1  UNL1        0.0512
     42 H           6.4874   -2.0877    0.7574 H       1  UNL1        0.0622
     43 H           8.0622   -0.2782    1.3929 H       1  UNL1        0.0646
     44 H           6.1193    2.5124   -2.6978 H       1  UNL1        0.0278
     45 H           7.0760    3.2451   -1.3528 H       1  UNL1        0.0278
     46 H           5.2976    3.2072   -1.2282 H       1  UNL1        0.0278
     47 H           4.6423    0.5840   -2.1025 H       1  UNL1        0.0624
     48 H           0.0005   -3.4001    2.8924 H       1  UNL1        0.1047
     49 H          -6.5496   -0.8452    1.7869 H       1  UNL1        0.0622
     50 H          -8.1062   -1.3295   -0.0634 H       1  UNL1        0.0646
@<TRIPOS>BOND
     1     1     2    1
     2     2     3   ar
     3     3     4   ar
     4     4     5    1
     5     5     6    1
     6     6     7   am
     7     7     8    2
     8     7     9    1
     9     9    10   ar
    10    10    11   ar
    11    11    12    1
    12    12    13    2
    13    12    14   am
    14    14    15    1
    15    15    16    1
    16    16    17   ar
    17    17    18   ar
    18    18    19   ar
    19    19    20    1
    20    19    21   ar
    21    21    22    1
    22    21    23   ar
    23    11    24   ar
    24    24    25   ar
    25    25    26   ar
    26     4    27   ar
    27    27    28   ar
    28    28    29   ar
    29    29    30    1
    30    29     2   ar
    31    26     9   ar
    32    23    16   ar
    33     1    31    1
    34     1    32    1
    35     1    33    1
    36     3    34    1
    37     5    35    1
    38     5    36    1
    39     6    37    1
    40    10    38    1
    41    14    39    1
    42    15    40    1
    43    15    41    1
    44    17    42    1
    45    18    43    1
    46    22    44    1
    47    22    45    1
    48    22    46    1
    49    23    47    1
    50    25    48    1
    51    27    49    1
    52    28    50    1
