@<TRIPOS>MOLECULE
*****
 47 50 0 0 0
SMALL
GASTEIGER

@<TRIPOS>ATOM
      1 C          -3.5380   -0.9920   -4.3702 C.3     1  UNL1       -0.0029
      2 C          -3.9174   -0.6011   -2.9825 C.ar    1  UNL1        0.1469
      3 O          -5.0848   -0.3985   -2.4809 O.2     1  UNL1       -0.3586
      4 N          -4.9824   -0.0748   -1.2425 N.ar    1  UNL1       -0.0772
      5 C          -3.6636   -0.0471   -0.8502 C.ar    1  UNL1        0.1271
      6 C          -3.1958    0.2807    0.4858 C.ar    1  UNL1        0.0227
      7 C          -2.4400    1.3762    0.8272 C.ar    1  UNL1       -0.0510
      8 C          -2.0846    1.6518    2.1301 C.ar    1  UNL1       -0.0610
      9 C          -2.4804    0.8191    3.1727 C.ar    1  UNL1       -0.0603
     10 C          -3.2419   -0.2899    2.8414 C.ar    1  UNL1       -0.0427
     11 C          -3.5924   -0.5551    1.5369 C.ar    1  UNL1        0.0503
     12 CL         -4.5632   -1.9786    1.1662 Cl      1  UNL1       -0.0829
     13 C          -2.9581   -0.3890   -1.9680 C.ar    1  UNL1        0.1060
     14 C          -1.5235   -0.5333   -2.1516 C.2     1  UNL1        0.2502
     15 O          -1.0790   -0.6164   -3.3401 O.2     1  UNL1       -0.2700
     16 N          -0.5320   -0.5995   -1.1530 N.am    1  UNL1       -0.2976
     17 CA          0.8771   -0.7448   -1.4364 C.3     1  UNL1        0.1279
     18 C           1.6147   -1.8037   -0.7710 C.2     1  UNL1        0.2402
     19 O           1.4787   -3.0748   -0.8083 O.2     1  UNL1       -0.2734
     20 N           2.4666   -0.8808   -0.1303 N.am    1  UNL1       -0.2708
     21 CA          3.4799   -0.3099    0.7156 C.3     1  UNL1        0.1379
     22 C           4.6167    0.1161   -0.1325 C.2     1  UNL1        0.3269
     23 O           5.6385    0.7271    0.2797 O.2     1  UNL1       -0.2489
     24 OXT         4.5809   -0.1671   -1.4857 O.3     1  UNL1       -0.4793
     25 C           2.8835    0.8070    1.5405 C.3     1  UNL1        0.0417
     26 C           3.7477    2.0210    1.6150 C.3     1  UNL1       -0.0484
     27 C           2.5858    0.3383    2.9460 C.3     1  UNL1       -0.0484
     28 S           1.3345    1.1560    0.6094 S.3     1  UNL1       -0.1273
     29 C           1.8452    0.1857   -0.8731 C.3     1  UNL1        0.1005
     30 H          -2.8443   -0.2859   -4.8270 H       1  UNL1        0.0309
     31 H          -3.0385   -1.9919   -4.3473 H       1  UNL1        0.0309
     32 H          -4.4744   -1.0752   -4.9570 H       1  UNL1        0.0309
     33 H          -2.1159    2.0400    0.0478 H       1  UNL1        0.0625
     34 H          -1.4895    2.5280    2.3633 H       1  UNL1        0.0618
     35 H          -2.1870    1.0511    4.1974 H       1  UNL1        0.0618
     36 H          -3.5460   -0.9299    3.6623 H       1  UNL1        0.0632
     37 H          -0.8126   -0.5670   -0.1644 H       1  UNL1        0.1499
     38 HA          1.0155   -0.8293   -2.5398 H       1  UNL1        0.0622
     39 HA          3.8597   -1.1100    1.4352 H       1  UNL1        0.0631
     40 HXT         5.3307    0.1037   -2.1000 H       1  UNL1        0.2951
     41 H           3.2431    2.7541    2.2958 H       1  UNL1        0.0244
     42 H           3.9253    2.5295    0.6586 H       1  UNL1        0.0244
     43 H           4.6814    1.7379    2.1444 H       1  UNL1        0.0244
     44 H           2.4326   -0.7529    3.0133 H       1  UNL1        0.0244
     45 H           1.7592    0.8829    3.4257 H       1  UNL1        0.0244
     46 H           3.4995    0.5611    3.5608 H       1  UNL1        0.0244
     47 H           2.4881    0.7706   -1.5594 H       1  UNL1        0.0640
@<TRIPOS>BOND
     1     1     2    1
     2     2     3   ar
     3     3     4   ar
     4     4     5   ar
     5     5     6    1
     6     6     7   ar
     7     7     8   ar
     8     8     9   ar
     9     9    10   ar
    10    10    11   ar
    11    11    12    1
    12     5    13   ar
    13    13    14    1
    14    14    15    2
    15    14    16   am
    16    16    17    1
    17    17    18    1
    18    18    19    2
    19    18    20   am
    20    20    21    1
    21    21    22    1
    22    22    23    2
    23    22    24    1
    24    21    25    1
    25    25    26    1
    26    25    27    1
    27    25    28    1
    28    28    29    1
    29    13     2   ar
    30    29    17    1
    31    11     6   ar
    32    29    20    1
    33     1    30    1
    34     1    31    1
    35     1    32    1
    36     7    33    1
    37     8    34    1
    38     9    35    1
    39    10    36    1
    40    16    37    1
    41    17    38    1
    42    21    39    1
    43    24    40    1
    44    26    41    1
    45    26    42    1
    46    26    43    1
    47    27    44    1
    48    27    45    1
    49    27    46    1
    50    29    47    1
