
     RDKit          3D

 47 50  0  0  0  0  0  0  0  0999 V2000
   -3.5380   -0.9920   -4.3702 C   0  0  0  0  0  0  0  0  0  0  0  0
   -3.9174   -0.6011   -2.9825 C   0  0  0  0  0  0  0  0  0  0  0  0
   -5.0848   -0.3985   -2.4809 O   0  0  0  0  0  0  0  0  0  0  0  0
   -4.9824   -0.0748   -1.2425 N   0  0  0  0  0  0  0  0  0  0  0  0
   -3.6636   -0.0471   -0.8502 C   0  0  0  0  0  0  0  0  0  0  0  0
   -3.1958    0.2807    0.4858 C   0  0  0  0  0  0  0  0  0  0  0  0
   -2.4400    1.3762    0.8272 C   0  0  0  0  0  0  0  0  0  0  0  0
   -2.0846    1.6518    2.1301 C   0  0  0  0  0  0  0  0  0  0  0  0
   -2.4804    0.8191    3.1727 C   0  0  0  0  0  0  0  0  0  0  0  0
   -3.2419   -0.2899    2.8414 C   0  0  0  0  0  0  0  0  0  0  0  0
   -3.5924   -0.5551    1.5369 C   0  0  0  0  0  0  0  0  0  0  0  0
   -4.5632   -1.9786    1.1662 Cl  0  0  0  0  0  0  0  0  0  0  0  0
   -2.9581   -0.3890   -1.9680 C   0  0  0  0  0  0  0  0  0  0  0  0
   -1.5235   -0.5333   -2.1516 C   0  0  0  0  0  0  0  0  0  0  0  0
   -1.0790   -0.6164   -3.3401 O   0  0  0  0  0  0  0  0  0  0  0  0
   -0.5320   -0.5995   -1.1530 N   0  0  0  0  0  0  0  0  0  0  0  0
    0.8771   -0.7448   -1.4364 C   0  0  2  0  0  0  0  0  0  0  0  0
    1.6147   -1.8037   -0.7710 C   0  0  0  0  0  0  0  0  0  0  0  0
    1.4787   -3.0748   -0.8083 O   0  0  0  0  0  0  0  0  0  0  0  0
    2.4666   -0.8808   -0.1303 N   0  0  0  0  0  0  0  0  0  0  0  0
    3.4799   -0.3099    0.7156 C   0  0  1  0  0  0  0  0  0  0  0  0
    4.6167    0.1161   -0.1325 C   0  0  0  0  0  0  0  0  0  0  0  0
    5.6385    0.7271    0.2797 O   0  0  0  0  0  0  0  0  0  0  0  0
    4.5809   -0.1671   -1.4857 O   0  0  0  0  0  0  0  0  0  0  0  0
    2.8835    0.8070    1.5405 C   0  0  0  0  0  0  0  0  0  0  0  0
    3.7477    2.0210    1.6150 C   0  0  0  0  0  0  0  0  0  0  0  0
    2.5858    0.3383    2.9460 C   0  0  0  0  0  0  0  0  0  0  0  0
    1.3345    1.1560    0.6094 S   0  0  0  0  0  0  0  0  0  0  0  0
    1.8452    0.1857   -0.8731 C   0  0  2  0  0  0  0  0  0  0  0  0
   -2.8443   -0.2859   -4.8270 H   0  0  0  0  0  0  0  0  0  0  0  0
   -3.0385   -1.9919   -4.3473 H   0  0  0  0  0  0  0  0  0  0  0  0
   -4.4744   -1.0752   -4.9570 H   0  0  0  0  0  0  0  0  0  0  0  0
   -2.1159    2.0400    0.0478 H   0  0  0  0  0  0  0  0  0  0  0  0
   -1.4895    2.5280    2.3633 H   0  0  0  0  0  0  0  0  0  0  0  0
   -2.1870    1.0511    4.1974 H   0  0  0  0  0  0  0  0  0  0  0  0
   -3.5460   -0.9299    3.6623 H   0  0  0  0  0  0  0  0  0  0  0  0
   -0.8126   -0.5670   -0.1644 H   0  0  0  0  0  0  0  0  0  0  0  0
    1.0155   -0.8293   -2.5398 H   0  0  0  0  0  0  0  0  0  0  0  0
    3.8597   -1.1100    1.4352 H   0  0  0  0  0  0  0  0  0  0  0  0
    5.3307    0.1037   -2.1000 H   0  0  0  0  0  0  0  0  0  0  0  0
    3.2431    2.7541    2.2958 H   0  0  0  0  0  0  0  0  0  0  0  0
    3.9253    2.5295    0.6586 H   0  0  0  0  0  0  0  0  0  0  0  0
    4.6814    1.7379    2.1444 H   0  0  0  0  0  0  0  0  0  0  0  0
    2.4326   -0.7529    3.0133 H   0  0  0  0  0  0  0  0  0  0  0  0
    1.7592    0.8829    3.4257 H   0  0  0  0  0  0  0  0  0  0  0  0
    3.4995    0.5611    3.5608 H   0  0  0  0  0  0  0  0  0  0  0  0
    2.4881    0.7706   -1.5594 H   0  0  0  0  0  0  0  0  0  0  0  0
  1  2  1  0
  2  3  1  0
  3  4  1  0
  4  5  2  0
  5  6  1  0
  6  7  2  0
  7  8  1  0
  8  9  2  0
  9 10  1  0
 10 11  2  0
 11 12  1  0
  5 13  1  0
 13 14  1  0
 14 15  2  0
 14 16  1  0
 16 17  1  0
 17 18  1  0
 18 19  2  0
 18 20  1  0
 20 21  1  0
 21 22  1  0
 22 23  2  0
 22 24  1  0
 21 25  1  0
 25 26  1  0
 25 27  1  0
 25 28  1  0
 28 29  1  0
 13  2  2  0
 29 17  1  0
 11  6  1  0
 29 20  1  0
  1 30  1  0
  1 31  1  0
  1 32  1  0
  7 33  1  0
  8 34  1  0
  9 35  1  0
 10 36  1  0
 16 37  1  0
 17 38  1  6
 21 39  1  1
 24 40  1  0
 26 41  1  0
 26 42  1  0
 26 43  1  0
 27 44  1  0
 27 45  1  0
 27 46  1  0
 29 47  1  6
M  END
$$$$
