
     RDKit          3D

 49 52  0  0  0  0  0  0  0  0999 V2000
    4.8603   -1.9009   -1.2579 C   0  0  0  0  0  0  0  0  0  0  0  0
    5.1999   -0.7136   -0.5775 C   0  0  0  0  0  0  0  0  0  0  0  0
    6.3700   -0.0892   -0.3905 C   0  0  0  0  0  0  0  0  0  0  0  0
    6.6701    1.0266    0.3187 C   0  0  0  0  0  0  0  0  0  0  0  0
    7.9528    1.7630    0.3735 C   0  0  0  0  0  0  0  0  0  0  0  0
    8.8855    2.2947    0.4313 N   0  0  0  0  0  0  0  0  0  0  0  0
    5.5977    1.6518    0.9839 C   0  0  0  0  0  0  0  0  0  0  0  0
    4.4671    1.0235    0.7689 N   0  0  0  0  0  0  0  0  0  0  0  0
    4.0313    0.0601    0.1782 C   0  0  0  0  0  0  0  0  0  0  0  0
    2.7172   -0.4425   -0.0259 C   0  0  0  0  0  0  0  0  0  0  0  0
    2.2784   -1.2185   -0.8024 O   0  0  0  0  0  0  0  0  0  0  0  0
    1.6776    0.1032    0.9225 N   0  0  0  0  0  0  0  0  0  0  0  0
    0.3594   -0.2491    0.8980 C   0  0  0  0  0  0  0  0  0  0  0  0
   -0.0237   -1.5092    1.4851 C   0  0  0  0  0  0  0  0  0  0  0  0
   -1.1922   -1.9155    1.5355 C   0  0  0  0  0  0  0  0  0  0  0  0
   -1.5332   -3.2804    2.1497 C   0  0  0  0  0  0  0  0  0  0  0  0
   -2.3145   -1.2057    1.0176 C   0  0  0  0  0  0  0  0  0  0  0  0
   -3.5373   -1.7136    1.1240 F   0  0  0  0  0  0  0  0  0  0  0  0
   -2.0295    0.0330    0.4186 C   0  0  0  0  0  0  0  0  0  0  0  0
   -3.2332    0.7368   -0.0997 C   0  0  1  0  0  0  0  0  0  0  0  0
   -3.9870    1.1105    1.2274 C   0  0  0  0  0  0  0  0  0  0  0  0
   -5.1552    1.7804    0.9371 F   0  0  0  0  0  0  0  0  0  0  0  0
   -3.1949    1.9622    1.9744 F   0  0  0  0  0  0  0  0  0  0  0  0
   -3.0748    1.9587   -0.7328 N   0  0  0  0  0  0  0  0  0  0  0  0
   -3.5336    2.2835   -1.9357 C   0  0  0  0  0  0  0  0  0  0  0  0
   -3.2033    3.6617   -2.2993 N   0  0  0  0  0  0  0  0  0  0  0  0
   -4.2214    1.4247   -2.6460 O   0  0  0  0  0  0  0  0  0  0  0  0
   -4.5842    0.1699   -2.2208 C   0  0  2  0  0  0  0  0  0  0  0  0
   -5.5431   -0.0419   -1.0417 C   0  0  0  0  0  0  0  0  0  0  0  0
   -4.0953   -0.2044   -0.8999 C   0  0  2  0  0  0  0  0  0  0  0  0
   -0.7294    0.4745    0.3776 C   0  0  0  0  0  0  0  0  0  0  0  0
    5.7856   -2.6085   -1.1025 H   0  0  0  0  0  0  0  0  0  0  0  0
    4.0498   -2.5234   -0.7798 H   0  0  0  0  0  0  0  0  0  0  0  0
    4.6881   -1.8884   -2.3341 H   0  0  0  0  0  0  0  0  0  0  0  0
    7.2645   -0.5646   -0.9352 H   0  0  0  0  0  0  0  0  0  0  0  0
    5.7571    2.5021    1.5845 H   0  0  0  0  0  0  0  0  0  0  0  0
    2.0993    0.8074    1.6029 H   0  0  0  0  0  0  0  0  0  0  0  0
    0.9057   -2.0255    1.8637 H   0  0  0  0  0  0  0  0  0  0  0  0
   -1.5245   -3.9769    1.2871 H   0  0  0  0  0  0  0  0  0  0  0  0
   -0.7679   -3.4499    2.9008 H   0  0  0  0  0  0  0  0  0  0  0  0
   -2.5205   -3.1922    2.5925 H   0  0  0  0  0  0  0  0  0  0  0  0
   -4.2079    0.2538    1.8370 H   0  0  0  0  0  0  0  0  0  0  0  0
   -3.9085    4.2942   -2.7077 H   0  0  0  0  0  0  0  0  0  0  0  0
   -2.2500    4.0240   -2.1471 H   0  0  0  0  0  0  0  0  0  0  0  0
   -4.6988   -0.6472   -3.0097 H   0  0  0  0  0  0  0  0  0  0  0  0
   -6.1485   -1.0081   -1.0257 H   0  0  0  0  0  0  0  0  0  0  0  0
   -6.1498    0.8156   -0.8371 H   0  0  0  0  0  0  0  0  0  0  0  0
   -3.7052   -1.2684   -0.8893 H   0  0  0  0  0  0  0  0  0  0  0  0
   -0.5500    1.4216   -0.0923 H   0  0  0  0  0  0  0  0  0  0  0  0
  1  2  1  0
  2  3  2  0
  3  4  1  0
  4  5  1  0
  5  6  3  0
  4  7  2  0
  7  8  1  0
  8  9  2  0
  9 10  1  0
 10 11  2  0
 10 12  1  0
 12 13  1  0
 13 14  2  0
 14 15  1  0
 15 16  1  0
 15 17  2  0
 17 18  1  0
 17 19  1  0
 19 20  1  0
 20 21  1  1
 21 22  1  0
 21 23  1  0
 20 24  1  0
 24 25  2  0
 25 26  1  0
 25 27  1  0
 27 28  1  0
 28 29  1  0
 29 30  1  0
 19 31  2  0
  9  2  1  0
 31 13  1  0
 30 20  1  0
 30 28  1  0
  1 32  1  0
  1 33  1  0
  1 34  1  0
  3 35  1  0
  7 36  1  0
 12 37  1  0
 14 38  1  0
 16 39  1  0
 16 40  1  0
 16 41  1  0
 21 42  1  0
 26 43  1  0
 26 44  1  0
 28 45  1  6
 29 46  1  0
 29 47  1  0
 30 48  1  6
 31 49  1  0
M  END
$$$$
