@<TRIPOS>MOLECULE
*****
 49 52 0 0 0
SMALL
GASTEIGER

@<TRIPOS>ATOM
      1 C           4.8603   -1.9009   -1.2579 C.3     1  UNL1       -0.0375
      2 C           5.1999   -0.7136   -0.5775 C.ar    1  UNL1       -0.0187
      3 C           6.3700   -0.0892   -0.3905 C.ar    1  UNL1       -0.0378
      4 C           6.6701    1.0266    0.3187 C.ar    1  UNL1        0.0701
      5 C           7.9528    1.7630    0.3735 C.1     1  UNL1        0.1007
      6 N           8.8855    2.2947    0.4313 N.1     1  UNL1       -0.1908
      7 C           5.5977    1.6518    0.9839 C.ar    1  UNL1        0.0458
      8 N           4.4671    1.0235    0.7689 N.ar    1  UNL1       -0.2488
      9 C           4.0313    0.0601    0.1782 C.ar    1  UNL1        0.1286
     10 C           2.7172   -0.4425   -0.0259 C.2     1  UNL1        0.2668
     11 O           2.2784   -1.2185   -0.8024 O.2     1  UNL1       -0.2682
     12 N           1.6776    0.1032    0.9225 N.am    1  UNL1       -0.2802
     13 C           0.3594   -0.2491    0.8980 C.ar    1  UNL1        0.0345
     14 C          -0.0237   -1.5092    1.4851 C.ar    1  UNL1       -0.0348
     15 C          -1.1922   -1.9155    1.5355 C.ar    1  UNL1       -0.0132
     16 C          -1.5332   -3.2804    2.1497 C.3     1  UNL1       -0.0369
     17 C          -2.3145   -1.2057    1.0176 C.ar    1  UNL1        0.1320
     18 F          -3.5373   -1.7136    1.1240 F       1  UNL1       -0.2048
     19 C          -2.0295    0.0330    0.4186 C.ar    1  UNL1        0.0230
     20 C          -3.2332    0.7368   -0.0997 C.3     1  UNL1        0.1603
     21 C          -3.9870    1.1105    1.2274 C.3     1  UNL1        0.2686
     22 F          -5.1552    1.7804    0.9371 F       1  UNL1       -0.2062
     23 F          -3.1949    1.9622    1.9744 F       1  UNL1       -0.2062
     24 N          -3.0748    1.9587   -0.7328 N.2     1  UNL1       -0.2194
     25 C          -3.5336    2.2835   -1.9357 C.2     1  UNL1        0.2764
     26 N          -3.2033    3.6617   -2.2993 N.pl3   1  UNL1       -0.3134
     27 O          -4.2214    1.4247   -2.6460 O.2     1  UNL1       -0.4622
     28 C          -4.5842    0.1699   -2.2208 C.3     1  UNL1        0.1091
     29 C          -5.5431   -0.0419   -1.0417 C.3     1  UNL1       -0.0064
     30 C          -4.0953   -0.2044   -0.8999 C.3     1  UNL1        0.0344
     31 C          -0.7294    0.4745    0.3776 C.ar    1  UNL1       -0.0320
     32 H           5.7856   -2.6085   -1.1025 H       1  UNL1        0.0278
     33 H           4.0498   -2.5234   -0.7798 H       1  UNL1        0.0278
     34 H           4.6881   -1.8884   -2.3341 H       1  UNL1        0.0278
     35 H           7.2645   -0.5646   -0.9352 H       1  UNL1        0.0634
     36 H           5.7571    2.5021    1.5845 H       1  UNL1        0.0843
     37 H           2.0993    0.8074    1.6029 H       1  UNL1        0.1552
     38 H           0.9057   -2.0255    1.8637 H       1  UNL1        0.0640
     39 H          -1.5245   -3.9769    1.2871 H       1  UNL1        0.0278
     40 H          -0.7679   -3.4499    2.9008 H       1  UNL1        0.0278
     41 H          -2.5205   -3.1922    2.5925 H       1  UNL1        0.0278
     42 H          -4.2079    0.2538    1.8370 H       1  UNL1        0.1047
     43 H          -3.9085    4.2942   -2.7077 H       1  UNL1        0.1466
     44 H          -2.2500    4.0240   -2.1471 H       1  UNL1        0.1466
     45 H          -4.6988   -0.6472   -3.0097 H       1  UNL1        0.0737
     46 H          -6.1485   -1.0081   -1.0257 H       1  UNL1        0.0306
     47 H          -6.1498    0.8156   -0.8371 H       1  UNL1        0.0306
     48 H          -3.7052   -1.2684   -0.8893 H       1  UNL1        0.0366
     49 H          -0.5500    1.4216   -0.0923 H       1  UNL1        0.0640
@<TRIPOS>BOND
     1     1     2    1
     2     2     3   ar
     3     3     4   ar
     4     4     5    1
     5     5     6    3
     6     4     7   ar
     7     7     8   ar
     8     8     9   ar
     9     9    10    1
    10    10    11    2
    11    10    12   am
    12    12    13    1
    13    13    14   ar
    14    14    15   ar
    15    15    16    1
    16    15    17   ar
    17    17    18    1
    18    17    19   ar
    19    19    20    1
    20    20    21    1
    21    21    22    1
    22    21    23    1
    23    20    24    1
    24    24    25    2
    25    25    26    1
    26    25    27    1
    27    27    28    1
    28    28    29    1
    29    29    30    1
    30    19    31   ar
    31     9     2   ar
    32    31    13   ar
    33    30    20    1
    34    30    28    1
    35     1    32    1
    36     1    33    1
    37     1    34    1
    38     3    35    1
    39     7    36    1
    40    12    37    1
    41    14    38    1
    42    16    39    1
    43    16    40    1
    44    16    41    1
    45    21    42    1
    46    26    43    1
    47    26    44    1
    48    28    45    1
    49    29    46    1
    50    29    47    1
    51    30    48    1
    52    31    49    1
