@<TRIPOS>MOLECULE
*****
 48 51 0 0 0
SMALL
GASTEIGER

@<TRIPOS>ATOM
      1 C          -4.8202   -4.0573    0.0171 C.3     1  UNL1        0.0817
      2 O          -4.2229   -2.9488   -0.6288 O.3     1  UNL1       -0.4670
      3 C          -3.9440   -1.7584   -0.0009 C.2     1  UNL1        0.3238
      4 O          -4.2242   -1.6225    1.2083 O.2     1  UNL1       -0.2493
      5 C          -3.3185   -0.6222   -0.7089 C.3     1  UNL1        0.1259
      6 C          -1.9626   -0.8224   -1.3277 C.3     1  UNL1       -0.0201
      7 C          -2.1857    0.0589   -0.1147 C.3     1  UNL1        0.0154
      8 C          -2.0850    1.5310   -0.2015 C.3     1  UNL1        0.0936
      9 C          -2.8310    2.1394    0.9785 C.3     1  UNL1       -0.0351
     10 C          -0.6435    1.9065   -0.0892 C.ar    1  UNL1        0.0158
     11 C           0.3305    0.9327   -0.0916 C.ar    1  UNL1       -0.0463
     12 C           1.6901    1.2359    0.0076 C.ar    1  UNL1       -0.0217
     13 C           2.6693    0.1630   -0.0075 C.2     1  UNL1       -0.0172
     14 C           3.7368    0.2132    0.7676 C.2     1  UNL1        0.1492
     15 F           3.9544    1.2595    1.5980 F       1  UNL1       -0.2032
     16 C           4.7139   -0.8941    0.7286 C.ar    1  UNL1        0.0990
     17 C           5.8237   -0.8493    1.5291 C.ar    1  UNL1       -0.0324
     18 C           6.7767   -1.8513    1.5431 C.ar    1  UNL1       -0.0442
     19 C           6.5771   -2.9264    0.7083 C.ar    1  UNL1        0.0360
     20 BR          7.8655   -4.3540    0.6806 Br      1  UNL1       -0.0487
     21 C           5.4564   -2.9662   -0.0964 C.ar    1  UNL1        0.0423
     22 N           4.5443   -1.9544   -0.0757 N.ar    1  UNL1       -0.2516
     23 C           2.0554    2.5595    0.1109 C.ar    1  UNL1       -0.0518
     24 C           1.0924    3.5790    0.1168 C.ar    1  UNL1       -0.0255
     25 C          -0.2350    3.2176    0.0159 C.ar    1  UNL1        0.1289
     26 F          -1.2310    4.1568    0.0149 F       1  UNL1       -0.2051
     27 N          -2.5823    2.1512   -1.3743 N.2     1  UNL1       -0.2521
     28 C          -3.5420    1.8494   -2.1310 C.2     1  UNL1        0.1485
     29 N          -3.9356    2.5679   -3.2880 N.pl3   1  UNL1       -0.3380
     30 S          -4.4569    0.3811   -1.6647 S.3     1  UNL1       -0.0726
     31 H          -5.7140   -3.7747    0.6143 H       1  UNL1        0.0661
     32 H          -5.0529   -4.8590   -0.7124 H       1  UNL1        0.0661
     33 H          -4.0878   -4.4814    0.7318 H       1  UNL1        0.0661
     34 H          -1.5483   -1.8333   -1.1947 H       1  UNL1        0.0288
     35 H          -1.7256   -0.3636   -2.2952 H       1  UNL1        0.0288
     36 H          -1.7634   -0.3755    0.8159 H       1  UNL1        0.0347
     37 H          -3.4728    2.9918    0.6761 H       1  UNL1        0.0256
     38 H          -3.5172    1.3666    1.3751 H       1  UNL1        0.0256
     39 H          -2.1256    2.4073    1.7987 H       1  UNL1        0.0256
     40 H           0.0971   -0.1278   -0.1708 H       1  UNL1        0.0628
     41 H           2.5638   -0.7011   -0.6418 H       1  UNL1        0.0653
     42 H           5.9979   -0.0091    2.1940 H       1  UNL1        0.0640
     43 H           7.6445   -1.7674    2.2000 H       1  UNL1        0.0630
     44 H           5.3420   -3.8252   -0.7322 H       1  UNL1        0.0841
     45 H           3.1075    2.8316    0.1872 H       1  UNL1        0.0624
     46 H           1.3920    4.6034    0.1978 H       1  UNL1        0.0646
     47 H          -4.9287    2.5083   -3.5890 H       1  UNL1        0.1442
     48 H          -3.2752    3.1339   -3.8233 H       1  UNL1        0.1442
@<TRIPOS>BOND
     1     1     2    1
     2     2     3    1
     3     3     4    2
     4     5     3    1
     5     5     6    1
     6     6     7    1
     7     7     8    1
     8     8     9    1
     9     8    10    1
    10    10    11   ar
    11    11    12   ar
    12    12    13    1
    13    13    14    2
    14    14    15    1
    15    14    16    1
    16    16    17   ar
    17    17    18   ar
    18    18    19   ar
    19    19    20    1
    20    19    21   ar
    21    21    22   ar
    22    12    23   ar
    23    23    24   ar
    24    24    25   ar
    25    25    26    1
    26     8    27    1
    27    27    28    2
    28    28    29    1
    29    28    30    1
    30     7     5    1
    31    25    10   ar
    32    30     5    1
    33    22    16   ar
    34     1    31    1
    35     1    32    1
    36     1    33    1
    37     6    34    1
    38     6    35    1
    39     7    36    1
    40     9    37    1
    41     9    38    1
    42     9    39    1
    43    11    40    1
    44    13    41    1
    45    17    42    1
    46    18    43    1
    47    21    44    1
    48    23    45    1
    49    24    46    1
    50    29    47    1
    51    29    48    1
