
     RDKit          3D

 48 51  0  0  0  0  0  0  0  0999 V2000
   -4.8202   -4.0573    0.0171 C   0  0  0  0  0  0  0  0  0  0  0  0
   -4.2229   -2.9488   -0.6288 O   0  0  0  0  0  0  0  0  0  0  0  0
   -3.9440   -1.7584   -0.0009 C   0  0  0  0  0  0  0  0  0  0  0  0
   -4.2242   -1.6225    1.2083 O   0  0  0  0  0  0  0  0  0  0  0  0
   -3.3185   -0.6222   -0.7089 C   0  0  2  0  0  0  0  0  0  0  0  0
   -1.9626   -0.8224   -1.3277 C   0  0  0  0  0  0  0  0  0  0  0  0
   -2.1857    0.0589   -0.1147 C   0  0  1  0  0  0  0  0  0  0  0  0
   -2.0850    1.5310   -0.2015 C   0  0  1  0  0  0  0  0  0  0  0  0
   -2.8310    2.1394    0.9785 C   0  0  0  0  0  0  0  0  0  0  0  0
   -0.6435    1.9065   -0.0892 C   0  0  0  0  0  0  0  0  0  0  0  0
    0.3305    0.9327   -0.0916 C   0  0  0  0  0  0  0  0  0  0  0  0
    1.6901    1.2359    0.0076 C   0  0  0  0  0  0  0  0  0  0  0  0
    2.6693    0.1630   -0.0075 C   0  0  0  0  0  0  0  0  0  0  0  0
    3.7368    0.2132    0.7676 C   0  0  0  0  0  0  0  0  0  0  0  0
    3.9544    1.2595    1.5980 F   0  0  0  0  0  0  0  0  0  0  0  0
    4.7139   -0.8941    0.7286 C   0  0  0  0  0  0  0  0  0  0  0  0
    5.8237   -0.8493    1.5291 C   0  0  0  0  0  0  0  0  0  0  0  0
    6.7767   -1.8513    1.5431 C   0  0  0  0  0  0  0  0  0  0  0  0
    6.5771   -2.9264    0.7083 C   0  0  0  0  0  0  0  0  0  0  0  0
    7.8655   -4.3540    0.6806 Br  0  0  0  0  0  0  0  0  0  0  0  0
    5.4564   -2.9662   -0.0964 C   0  0  0  0  0  0  0  0  0  0  0  0
    4.5443   -1.9544   -0.0757 N   0  0  0  0  0  0  0  0  0  0  0  0
    2.0554    2.5595    0.1109 C   0  0  0  0  0  0  0  0  0  0  0  0
    1.0924    3.5790    0.1168 C   0  0  0  0  0  0  0  0  0  0  0  0
   -0.2350    3.2176    0.0159 C   0  0  0  0  0  0  0  0  0  0  0  0
   -1.2310    4.1568    0.0149 F   0  0  0  0  0  0  0  0  0  0  0  0
   -2.5823    2.1512   -1.3743 N   0  0  0  0  0  0  0  0  0  0  0  0
   -3.5420    1.8494   -2.1310 C   0  0  0  0  0  0  0  0  0  0  0  0
   -3.9356    2.5679   -3.2880 N   0  0  0  0  0  0  0  0  0  0  0  0
   -4.4569    0.3811   -1.6647 S   0  0  0  0  0  0  0  0  0  0  0  0
   -5.7140   -3.7747    0.6143 H   0  0  0  0  0  0  0  0  0  0  0  0
   -5.0529   -4.8590   -0.7124 H   0  0  0  0  0  0  0  0  0  0  0  0
   -4.0878   -4.4814    0.7318 H   0  0  0  0  0  0  0  0  0  0  0  0
   -1.5483   -1.8333   -1.1947 H   0  0  0  0  0  0  0  0  0  0  0  0
   -1.7256   -0.3636   -2.2952 H   0  0  0  0  0  0  0  0  0  0  0  0
   -1.7634   -0.3755    0.8159 H   0  0  0  0  0  0  0  0  0  0  0  0
   -3.4728    2.9918    0.6761 H   0  0  0  0  0  0  0  0  0  0  0  0
   -3.5172    1.3666    1.3751 H   0  0  0  0  0  0  0  0  0  0  0  0
   -2.1256    2.4073    1.7987 H   0  0  0  0  0  0  0  0  0  0  0  0
    0.0971   -0.1278   -0.1708 H   0  0  0  0  0  0  0  0  0  0  0  0
    2.5638   -0.7011   -0.6418 H   0  0  0  0  0  0  0  0  0  0  0  0
    5.9979   -0.0091    2.1940 H   0  0  0  0  0  0  0  0  0  0  0  0
    7.6445   -1.7674    2.2000 H   0  0  0  0  0  0  0  0  0  0  0  0
    5.3420   -3.8252   -0.7322 H   0  0  0  0  0  0  0  0  0  0  0  0
    3.1075    2.8316    0.1872 H   0  0  0  0  0  0  0  0  0  0  0  0
    1.3920    4.6034    0.1978 H   0  0  0  0  0  0  0  0  0  0  0  0
   -4.9287    2.5083   -3.5890 H   0  0  0  0  0  0  0  0  0  0  0  0
   -3.2752    3.1339   -3.8233 H   0  0  0  0  0  0  0  0  0  0  0  0
  1  2  1  0
  2  3  1  0
  3  4  2  0
  5  3  1  1
  5  6  1  0
  6  7  1  0
  7  8  1  0
  8  9  1  1
  8 10  1  0
 10 11  2  0
 11 12  1  0
 12 13  1  0
 13 14  2  0
 14 15  1  0
 14 16  1  0
 16 17  2  0
 17 18  1  0
 18 19  2  0
 19 20  1  0
 19 21  1  0
 21 22  2  0
 12 23  2  0
 23 24  1  0
 24 25  2  0
 25 26  1  0
  8 27  1  0
 27 28  2  0
 28 29  1  0
 28 30  1  0
  7  5  1  0
 25 10  1  0
 30  5  1  0
 22 16  1  0
  1 31  1  0
  1 32  1  0
  1 33  1  0
  6 34  1  0
  6 35  1  0
  7 36  1  1
  9 37  1  0
  9 38  1  0
  9 39  1  0
 11 40  1  0
 13 41  1  0
 17 42  1  0
 18 43  1  0
 21 44  1  0
 23 45  1  0
 24 46  1  0
 29 47  1  0
 29 48  1  0
M  END
$$$$
