
     RDKit          3D

 29 29  0  0  0  0  0  0  0  0999 V2000
   -1.2277    2.3228   -0.3067 N   0  0  0  0  0  0  0  0  0  0  0  0
   -0.9056    1.0945   -1.0463 C   0  0  0  0  0  0  0  0  0  0  0  0
   -0.2647    0.1812   -0.0216 C   0  0  0  0  0  0  0  0  0  0  0  0
   -1.2894   -0.0444    1.0744 C   0  0  0  0  0  0  0  0  0  0  0  0
   -2.5226   -0.6734    0.5486 C   0  0  0  0  0  0  0  0  0  0  0  0
   -3.0558   -1.1337   -0.6502 O   0  0  0  0  0  0  0  0  0  0  0  0
   -3.3560   -0.8444    1.5031 O   0  0  0  0  0  0  0  0  0  0  0  0
    0.1476   -1.1487   -0.5785 C   0  0  0  0  0  0  0  0  0  0  0  0
    1.5980   -1.1175   -1.0740 C   0  0  0  0  0  0  0  0  0  0  0  0
    2.5434   -0.7916    0.0606 C   0  0  0  0  0  0  0  0  0  0  0  0
    1.8989   -0.0023    1.1584 C   0  0  0  0  0  0  0  0  0  0  0  0
    0.9049    0.9518    0.5459 C   0  0  0  0  0  0  0  0  0  0  0  0
   -2.0490    2.8227   -0.6866 H   0  0  0  0  0  0  0  0  0  0  0  0
   -0.3783    2.9043   -0.1526 H   0  0  0  0  0  0  0  0  0  0  0  0
   -1.8271    0.6758   -1.4747 H   0  0  0  0  0  0  0  0  0  0  0  0
   -0.1819    1.4103   -1.8238 H   0  0  0  0  0  0  0  0  0  0  0  0
   -0.8560   -0.6867    1.8413 H   0  0  0  0  0  0  0  0  0  0  0  0
   -1.5773    0.9011    1.5722 H   0  0  0  0  0  0  0  0  0  0  0  0
   -3.3171   -2.0968   -0.6844 H   0  0  0  0  0  0  0  0  0  0  0  0
   -0.4647   -1.5189   -1.3983 H   0  0  0  0  0  0  0  0  0  0  0  0
    0.1667   -1.8646    0.2774 H   0  0  0  0  0  0  0  0  0  0  0  0
    1.7111   -0.4359   -1.9376 H   0  0  0  0  0  0  0  0  0  0  0  0
    1.8250   -2.1565   -1.3988 H   0  0  0  0  0  0  0  0  0  0  0  0
    3.3857   -0.2037   -0.3714 H   0  0  0  0  0  0  0  0  0  0  0  0
    2.9686   -1.7221    0.5223 H   0  0  0  0  0  0  0  0  0  0  0  0
    1.4388   -0.6360    1.9612 H   0  0  0  0  0  0  0  0  0  0  0  0
    2.6987    0.6383    1.6090 H   0  0  0  0  0  0  0  0  0  0  0  0
    0.5593    1.7393    1.2414 H   0  0  0  0  0  0  0  0  0  0  0  0
    1.4267    1.4348   -0.3106 H   0  0  0  0  0  0  0  0  0  0  0  0
  1  2  1  0
  2  3  1  0
  3  4  1  0
  4  5  1  0
  5  6  1  0
  5  7  2  0
  3  8  1  0
  8  9  1  0
  9 10  1  0
 10 11  1  0
 11 12  1  0
 12  3  1  0
  1 13  1  0
  1 14  1  0
  2 15  1  0
  2 16  1  0
  4 17  1  0
  4 18  1  0
  6 19  1  0
  8 20  1  0
  8 21  1  0
  9 22  1  0
  9 23  1  0
 10 24  1  0
 10 25  1  0
 11 26  1  0
 11 27  1  0
 12 28  1  0
 12 29  1  0
M  END
$$$$
