@<TRIPOS>MOLECULE
*****
 29 29 0 0 0
SMALL
GASTEIGER

@<TRIPOS>ATOM
      1 N          -1.2277    2.3228   -0.3067 N.3     1  UNL1       -0.3294
      2 C          -0.9056    1.0945   -1.0463 C.3     1  UNL1       -0.0007
      3 C          -0.2647    0.1812   -0.0216 C.3     1  UNL1       -0.0069
      4 C          -1.2894   -0.0444    1.0744 C.3     1  UNL1        0.0515
      5 C          -2.5226   -0.6734    0.5486 C.2     1  UNL1        0.3053
      6 O          -3.0558   -1.1337   -0.6502 O.3     1  UNL1       -0.4806
      7 O          -3.3560   -0.8444    1.5031 O.2     1  UNL1       -0.2510
      8 C           0.1476   -1.1487   -0.5785 C.3     1  UNL1       -0.0457
      9 C           1.5980   -1.1175   -1.0740 C.3     1  UNL1       -0.0525
     10 C           2.5434   -0.7916    0.0606 C.3     1  UNL1       -0.0530
     11 C           1.8989   -0.0023    1.1584 C.3     1  UNL1       -0.0525
     12 C           0.9049    0.9518    0.5459 C.3     1  UNL1       -0.0457
     13 H          -2.0490    2.8227   -0.6866 H       1  UNL1        0.1182
     14 H          -0.3783    2.9043   -0.1526 H       1  UNL1        0.1182
     15 H          -1.8271    0.6758   -1.4747 H       1  UNL1        0.0427
     16 H          -0.1819    1.4103   -1.8238 H       1  UNL1        0.0427
     17 H          -0.8560   -0.6867    1.8413 H       1  UNL1        0.0383
     18 H          -1.5773    0.9011    1.5722 H       1  UNL1        0.0383
     19 H          -3.3171   -2.0968   -0.6844 H       1  UNL1        0.2951
     20 H          -0.4647   -1.5189   -1.3983 H       1  UNL1        0.0271
     21 H           0.1667   -1.8646    0.2774 H       1  UNL1        0.0271
     22 H           1.7111   -0.4359   -1.9376 H       1  UNL1        0.0265
     23 H           1.8250   -2.1565   -1.3988 H       1  UNL1        0.0265
     24 H           3.3857   -0.2037   -0.3714 H       1  UNL1        0.0265
     25 H           2.9686   -1.7221    0.5223 H       1  UNL1        0.0265
     26 H           1.4388   -0.6360    1.9612 H       1  UNL1        0.0265
     27 H           2.6987    0.6383    1.6090 H       1  UNL1        0.0265
     28 H           0.5593    1.7393    1.2414 H       1  UNL1        0.0271
     29 H           1.4267    1.4348   -0.3106 H       1  UNL1        0.0271
@<TRIPOS>BOND
     1     1     2    1
     2     2     3    1
     3     3     4    1
     4     4     5    1
     5     5     6    1
     6     5     7    2
     7     3     8    1
     8     8     9    1
     9     9    10    1
    10    10    11    1
    11    11    12    1
    12    12     3    1
    13     1    13    1
    14     1    14    1
    15     2    15    1
    16     2    16    1
    17     4    17    1
    18     4    18    1
    19     6    19    1
    20     8    20    1
    21     8    21    1
    22     9    22    1
    23     9    23    1
    24    10    24    1
    25    10    25    1
    26    11    26    1
    27    11    27    1
    28    12    28    1
    29    12    29    1
