@<TRIPOS>MOLECULE
*****
 29 29 0 0 0
SMALL
GASTEIGER

@<TRIPOS>ATOM
      1 C          -2.6734    2.7137   -0.2197 C.3     1  UNL1       -0.0188
      2 C          -1.5458    1.8266    0.1850 C.ar    1  UNL1        0.0798
      3 N          -0.4786    2.1308    0.9518 N.ar    1  UNL1       -0.2562
      4 C           0.4347    1.2078    1.2117 C.ar    1  UNL1        0.0338
      5 C           0.4405   -0.0989    0.7777 C.ar    1  UNL1        0.0046
      6 C           1.4442   -1.1333    1.0594 C.3     1  UNL1        0.0859
      7 O           2.2316   -1.3047   -0.0779 O.3     1  UNL1       -0.2820
      8 P           3.0305    0.1073   -0.5246 P.3     1  UNL1        0.4727
      9 O           1.9342    1.1234   -1.2764 O.3     1  UNL1       -0.3026
     10 O           4.2593   -0.2557   -1.6326 O.3     1  UNL1       -0.3026
     11 O           3.6662    0.7949    0.6591 O.2     1  UNL1       -0.2275
     12 C          -0.6582   -0.4342   -0.0192 C.ar    1  UNL1        0.0162
     13 C          -0.7505   -1.8160   -0.5420 C.3     1  UNL1        0.0225
     14 N          -1.1695   -2.7192    0.5123 N.3     1  UNL1       -0.3260
     15 C          -1.6319    0.5199   -0.3064 C.ar    1  UNL1        0.1425
     16 O          -2.6806    0.0880   -1.1046 O.3     1  UNL1       -0.5047
     17 H          -2.4285    3.7551    0.0176 H       1  UNL1        0.0294
     18 H          -2.8030    2.5451   -1.3142 H       1  UNL1        0.0294
     19 H          -3.6340    2.4275    0.2411 H       1  UNL1        0.0294
     20 H           1.2832    1.4960    1.8368 H       1  UNL1        0.0833
     21 H           2.0815   -0.8706    1.9441 H       1  UNL1        0.0616
     22 H           1.0126   -2.1235    1.2769 H       1  UNL1        0.0616
     23 H           2.3017    1.9528   -1.6263 H       1  UNL1        0.2220
     24 H           4.3820   -1.2579   -1.6721 H       1  UNL1        0.2220
     25 H           0.1800   -2.1961   -0.9639 H       1  UNL1        0.0473
     26 H          -1.5731   -1.8651   -1.3105 H       1  UNL1        0.0473
     27 H          -2.2116   -2.7828    0.5793 H       1  UNL1        0.1185
     28 H          -0.8478   -3.7088    0.2883 H       1  UNL1        0.1185
     29 H          -3.5958   -0.1220   -0.6923 H       1  UNL1        0.2922
@<TRIPOS>BOND
     1     1     2    1
     2     2     3   ar
     3     3     4   ar
     4     4     5   ar
     5     5     6    1
     6     6     7    1
     7     7     8    1
     8     8     9    1
     9     8    10    1
    10     8    11    2
    11     5    12   ar
    12    12    13    1
    13    13    14    1
    14    12    15   ar
    15    15    16    1
    16    15     2   ar
    17     1    17    1
    18     1    18    1
    19     1    19    1
    20     4    20    1
    21     6    21    1
    22     6    22    1
    23     9    23    1
    24    10    24    1
    25    13    25    1
    26    13    26    1
    27    14    27    1
    28    14    28    1
    29    16    29    1
