
     RDKit          3D

 29 29  0  0  0  0  0  0  0  0999 V2000
   -2.6734    2.7137   -0.2197 C   0  0  0  0  0  0  0  0  0  0  0  0
   -1.5458    1.8266    0.1850 C   0  0  0  0  0  0  0  0  0  0  0  0
   -0.4786    2.1308    0.9518 N   0  0  0  0  0  0  0  0  0  0  0  0
    0.4347    1.2078    1.2117 C   0  0  0  0  0  0  0  0  0  0  0  0
    0.4405   -0.0989    0.7777 C   0  0  0  0  0  0  0  0  0  0  0  0
    1.4442   -1.1333    1.0594 C   0  0  0  0  0  0  0  0  0  0  0  0
    2.2316   -1.3047   -0.0779 O   0  0  0  0  0  0  0  0  0  0  0  0
    3.0305    0.1073   -0.5246 P   0  0  0  0  0  0  0  0  0  0  0  0
    1.9342    1.1234   -1.2764 O   0  0  0  0  0  0  0  0  0  0  0  0
    4.2593   -0.2557   -1.6326 O   0  0  0  0  0  0  0  0  0  0  0  0
    3.6662    0.7949    0.6591 O   0  0  0  0  0  0  0  0  0  0  0  0
   -0.6582   -0.4342   -0.0192 C   0  0  0  0  0  0  0  0  0  0  0  0
   -0.7505   -1.8160   -0.5420 C   0  0  0  0  0  0  0  0  0  0  0  0
   -1.1695   -2.7192    0.5123 N   0  0  0  0  0  0  0  0  0  0  0  0
   -1.6319    0.5199   -0.3064 C   0  0  0  0  0  0  0  0  0  0  0  0
   -2.6806    0.0880   -1.1046 O   0  0  0  0  0  0  0  0  0  0  0  0
   -2.4285    3.7551    0.0176 H   0  0  0  0  0  0  0  0  0  0  0  0
   -2.8030    2.5451   -1.3142 H   0  0  0  0  0  0  0  0  0  0  0  0
   -3.6340    2.4275    0.2411 H   0  0  0  0  0  0  0  0  0  0  0  0
    1.2832    1.4960    1.8368 H   0  0  0  0  0  0  0  0  0  0  0  0
    2.0815   -0.8706    1.9441 H   0  0  0  0  0  0  0  0  0  0  0  0
    1.0126   -2.1235    1.2769 H   0  0  0  0  0  0  0  0  0  0  0  0
    2.3017    1.9528   -1.6263 H   0  0  0  0  0  0  0  0  0  0  0  0
    4.3820   -1.2579   -1.6721 H   0  0  0  0  0  0  0  0  0  0  0  0
    0.1800   -2.1961   -0.9639 H   0  0  0  0  0  0  0  0  0  0  0  0
   -1.5731   -1.8651   -1.3105 H   0  0  0  0  0  0  0  0  0  0  0  0
   -2.2116   -2.7828    0.5793 H   0  0  0  0  0  0  0  0  0  0  0  0
   -0.8478   -3.7088    0.2883 H   0  0  0  0  0  0  0  0  0  0  0  0
   -3.5958   -0.1220   -0.6923 H   0  0  0  0  0  0  0  0  0  0  0  0
  1  2  1  0
  2  3  2  0
  3  4  1  0
  4  5  2  0
  5  6  1  0
  6  7  1  0
  7  8  1  0
  8  9  1  0
  8 10  1  0
  8 11  2  0
  5 12  1  0
 12 13  1  0
 13 14  1  0
 12 15  2  0
 15 16  1  0
 15  2  1  0
  1 17  1  0
  1 18  1  0
  1 19  1  0
  4 20  1  0
  6 21  1  0
  6 22  1  0
  9 23  1  0
 10 24  1  0
 13 25  1  0
 13 26  1  0
 14 27  1  0
 14 28  1  0
 16 29  1  0
M  END
$$$$
