
     RDKit          3D

 23 23  0  0  0  0  0  0  0  0999 V2000
   -1.5463   -1.0013    1.0183 N   0  0  0  0  0  0  0  0  0  0  0  0
   -1.5687    0.2745    0.3414 C   0  0  1  0  0  0  0  0  0  0  0  0
   -0.7753    0.2464   -0.9455 C   0  0  0  0  0  0  0  0  0  0  0  0
    0.6136   -0.0825   -0.7178 N   0  0  0  0  0  0  0  0  0  0  0  0
    1.3710    1.0286   -0.4992 C   0  0  0  0  0  0  0  0  0  0  0  0
    2.7378    0.8723   -0.2629 C   0  0  0  0  0  0  0  0  0  0  0  0
    3.3066   -0.3925   -0.2524 C   0  0  0  0  0  0  0  0  0  0  0  0
    4.5328   -0.5037   -0.0383 O   0  0  0  0  0  0  0  0  0  0  0  0
    2.4957   -1.4525   -0.4770 N   0  0  0  0  0  0  0  0  0  0  0  0
    1.1792   -1.3047   -0.7048 C   0  0  0  0  0  0  0  0  0  0  0  0
    0.3863   -2.2602   -0.9185 O   0  0  0  0  0  0  0  0  0  0  0  0
   -2.9908    0.6130    0.0847 C   0  0  0  0  0  0  0  0  0  0  0  0
   -3.1530    1.8195   -0.5627 O   0  0  0  0  0  0  0  0  0  0  0  0
   -3.9990   -0.0914    0.4025 O   0  0  0  0  0  0  0  0  0  0  0  0
   -0.6114   -1.1701    1.4067 H   0  0  0  0  0  0  0  0  0  0  0  0
   -1.9395   -1.7708    0.4658 H   0  0  0  0  0  0  0  0  0  0  0  0
   -1.1290    1.0410    0.9854 H   0  0  0  0  0  0  0  0  0  0  0  0
   -1.2054   -0.5942   -1.5567 H   0  0  0  0  0  0  0  0  0  0  0  0
   -0.8955    1.1428   -1.5445 H   0  0  0  0  0  0  0  0  0  0  0  0
    1.0059    2.0481   -0.4908 H   0  0  0  0  0  0  0  0  0  0  0  0
    3.3620    1.7425   -0.0861 H   0  0  0  0  0  0  0  0  0  0  0  0
    2.8925   -2.4130   -0.4754 H   0  0  0  0  0  0  0  0  0  0  0  0
   -4.0693    2.2080   -0.7871 H   0  0  0  0  0  0  0  0  0  0  0  0
  1  2  1  0
  2  3  1  0
  3  4  1  0
  4  5  1  0
  5  6  2  0
  6  7  1  0
  7  8  2  0
  7  9  1  0
  9 10  1  0
 10 11  2  0
  2 12  1  0
 12 13  1  0
 12 14  2  0
 10  4  1  0
  1 15  1  0
  1 16  1  0
  2 17  1  1
  3 18  1  0
  3 19  1  0
  5 20  1  0
  6 21  1  0
  9 22  1  0
 13 23  1  0
M  END
$$$$
