@<TRIPOS>MOLECULE
*****
 23 23 0 0 0
SMALL
GASTEIGER

@<TRIPOS>ATOM
      1 N          -1.5463   -1.0013    1.0183 N.3     1  UNL1       -0.3170
      2 CA         -1.5687    0.2745    0.3414 C.3     1  UNL1        0.1214
      3 C          -0.7753    0.2464   -0.9455 C.3     1  UNL1        0.0530
      4 N           0.6136   -0.0825   -0.7178 N.ar    1  UNL1       -0.2984
      5 C           1.3710    1.0286   -0.4992 C.ar    1  UNL1        0.0145
      6 C           2.7378    0.8723   -0.2629 C.ar    1  UNL1        0.0191
      7 C           3.3066   -0.3925   -0.2524 C.ar    1  UNL1        0.2539
      8 O           4.5328   -0.5037   -0.0383 O.2     1  UNL1       -0.2677
      9 N           2.4957   -1.4525   -0.4770 N.ar    1  UNL1       -0.2749
     10 C           1.1792   -1.3047   -0.7048 C.ar    1  UNL1        0.3294
     11 O           0.3863   -2.2602   -0.9185 O.2     1  UNL1       -0.2465
     12 C          -2.9908    0.6130    0.0847 C.2     1  UNL1        0.3235
     13 O          -3.1530    1.8195   -0.5627 O.3     1  UNL1       -0.4795
     14 OXT        -3.9990   -0.0914    0.4025 O.2     1  UNL1       -0.2492
     15 H1         -0.6114   -1.1701    1.4067 H       1  UNL1        0.1190
     16 H2         -1.9395   -1.7708    0.4658 H       1  UNL1        0.1190
     17 HA         -1.1290    1.0410    0.9854 H       1  UNL1        0.0592
     18 H          -1.2054   -0.5942   -1.5567 H       1  UNL1        0.0514
     19 H          -0.8955    1.1428   -1.5445 H       1  UNL1        0.0514
     20 H           1.0059    2.0481   -0.4908 H       1  UNL1        0.0812
     21 H           3.3620    1.7425   -0.0861 H       1  UNL1        0.0686
     22 H           2.8925   -2.4130   -0.4754 H       1  UNL1        0.1734
     23 H          -4.0693    2.2080   -0.7871 H       1  UNL1        0.2951
@<TRIPOS>BOND
     1     1     2    1
     2     2     3    1
     3     3     4    1
     4     4     5   ar
     5     5     6   ar
     6     6     7   ar
     7     7     8    2
     8     7     9   ar
     9     9    10   ar
    10    10    11    2
    11     2    12    1
    12    12    13    1
    13    12    14    2
    14    10     4   ar
    15     1    15    1
    16     1    16    1
    17     2    17    1
    18     3    18    1
    19     3    19    1
    20     5    20    1
    21     6    21    1
    22     9    22    1
    23    13    23    1
