
     RDKit          3D

 50 53  0  0  0  0  0  0  0  0999 V2000
    2.5197   -2.1084    1.0724 C   0  0  0  0  0  0  0  0  0  0  0  0
    1.9302   -1.4959   -0.0244 N   0  0  0  0  0  0  0  0  0  0  0  0
    0.6763   -0.9199   -0.0083 C   0  0  2  0  0  0  0  0  0  0  0  0
    0.5283    0.0159    1.1950 C   0  0  0  0  0  0  0  0  0  0  0  0
   -0.7490   -0.2149    1.9266 C   0  0  0  0  0  0  0  0  0  0  0  0
   -1.8492   -0.1883    0.9190 C   0  0  0  0  0  0  0  0  0  0  0  0
   -3.0312    0.5360    0.7642 C   0  0  0  0  0  0  0  0  0  0  0  0
   -3.4025    1.5798    1.7207 C   0  0  0  0  0  0  0  0  0  0  0  0
   -4.7307    2.1570    1.6226 C   0  0  0  0  0  0  0  0  0  0  0  0
   -5.7713    1.4801    1.9163 O   0  0  0  0  0  0  0  0  0  0  0  0
   -4.9602    3.4712    1.2066 O   0  0  0  0  0  0  0  0  0  0  0  0
   -3.5850    0.0428   -0.3832 C   0  0  0  0  0  0  0  0  0  0  0  0
   -4.7360    0.3584   -1.0508 C   0  0  0  0  0  0  0  0  0  0  0  0
   -5.0901   -0.2860   -2.2184 C   0  0  0  0  0  0  0  0  0  0  0  0
   -4.3099   -1.2732   -2.7718 C   0  0  0  0  0  0  0  0  0  0  0  0
   -4.6904   -1.8985   -3.9324 F   0  0  0  0  0  0  0  0  0  0  0  0
   -3.1473   -1.5987   -2.1094 C   0  0  0  0  0  0  0  0  0  0  0  0
   -2.7790   -0.9612   -0.9372 C   0  0  0  0  0  0  0  0  0  0  0  0
   -1.7416   -1.0517   -0.1009 N   0  0  0  0  0  0  0  0  0  0  0  0
   -0.5143   -1.8557   -0.0968 C   0  0  0  0  0  0  0  0  0  0  0  0
    2.9576   -1.0676   -1.3108 S   0  0  0  0  0  6  0  0  0  0  0  0
    2.1412   -0.5606   -2.4704 O   0  0  0  0  0  0  0  0  0  0  0  0
    3.6617   -2.3098   -1.7694 O   0  0  0  0  0  0  0  0  0  0  0  0
    4.1688    0.0930   -0.8471 C   0  0  0  0  0  0  0  0  0  0  0  0
    5.4194   -0.2372   -0.3931 C   0  0  0  0  0  0  0  0  0  0  0  0
    6.3531    0.7219   -0.0251 C   0  0  0  0  0  0  0  0  0  0  0  0
    6.0314    2.0465   -0.1111 C   0  0  0  0  0  0  0  0  0  0  0  0
    6.9099    3.0517    0.2339 F   0  0  0  0  0  0  0  0  0  0  0  0
    4.8064    2.4296   -0.5546 C   0  0  0  0  0  0  0  0  0  0  0  0
    3.8905    1.4659   -0.9167 C   0  0  0  0  0  0  0  0  0  0  0  0
    3.5760   -2.4108    0.7710 H   0  0  0  0  0  0  0  0  0  0  0  0
    2.0553   -3.1068    1.3244 H   0  0  0  0  0  0  0  0  0  0  0  0
    2.5847   -1.5318    1.9944 H   0  0  0  0  0  0  0  0  0  0  0  0
    0.5978   -0.2593   -0.9391 H   0  0  0  0  0  0  0  0  0  0  0  0
    1.3684   -0.0359    1.8984 H   0  0  0  0  0  0  0  0  0  0  0  0
    0.5112    1.0801    0.8345 H   0  0  0  0  0  0  0  0  0  0  0  0
   -0.9203    0.6554    2.5972 H   0  0  0  0  0  0  0  0  0  0  0  0
   -0.7559   -1.1738    2.4590 H   0  0  0  0  0  0  0  0  0  0  0  0
   -2.5989    2.3659    1.6610 H   0  0  0  0  0  0  0  0  0  0  0  0
   -3.2511    1.1430    2.7627 H   0  0  0  0  0  0  0  0  0  0  0  0
   -5.7198    3.6003    0.5337 H   0  0  0  0  0  0  0  0  0  0  0  0
   -5.3538    1.1333   -0.6439 H   0  0  0  0  0  0  0  0  0  0  0  0
   -6.0100   -0.0329   -2.7471 H   0  0  0  0  0  0  0  0  0  0  0  0
   -2.5094   -2.3589   -2.5016 H   0  0  0  0  0  0  0  0  0  0  0  0
   -0.5673   -2.5578    0.7520 H   0  0  0  0  0  0  0  0  0  0  0  0
   -0.4635   -2.3622   -1.0830 H   0  0  0  0  0  0  0  0  0  0  0  0
    5.7155   -1.2719   -0.3090 H   0  0  0  0  0  0  0  0  0  0  0  0
    7.3393    0.4382    0.3320 H   0  0  0  0  0  0  0  0  0  0  0  0
    4.5587    3.4858   -0.6191 H   0  0  0  0  0  0  0  0  0  0  0  0
    2.9365    1.7779   -1.2569 H   0  0  0  0  0  0  0  0  0  0  0  0
  1  2  1  0
  2  3  1  0
  3  4  1  0
  4  5  1  0
  5  6  1  0
  6  7  2  0
  7  8  1  0
  8  9  1  0
  9 10  2  0
  9 11  1  0
  7 12  1  0
 12 13  2  0
 13 14  1  0
 14 15  2  0
 15 16  1  0
 15 17  1  0
 17 18  2  0
 18 19  1  0
 19 20  1  0
  2 21  1  0
 21 22  2  0
 21 23  2  0
 21 24  1  0
 24 25  2  0
 25 26  1  0
 26 27  2  0
 27 28  1  0
 27 29  1  0
 29 30  2  0
 20  3  1  0
 30 24  1  0
 19  6  1  0
 18 12  1  0
  1 31  1  0
  1 32  1  0
  1 33  1  0
  3 34  1  6
  4 35  1  0
  4 36  1  0
  5 37  1  0
  5 38  1  0
  8 39  1  0
  8 40  1  0
 11 41  1  0
 13 42  1  0
 14 43  1  0
 17 44  1  0
 20 45  1  0
 20 46  1  0
 25 47  1  0
 26 48  1  0
 29 49  1  0
 30 50  1  0
M  END
$$$$
