@<TRIPOS>MOLECULE
*****
 50 53 0 0 0
SMALL
GASTEIGER

@<TRIPOS>ATOM
      1 C           2.5197   -2.1084    1.0724 C.3     1  UNL1        0.0093
      2 N           1.9302   -1.4959   -0.0244 N.3     1  UNL1       -0.1749
      3 C           0.6763   -0.9199   -0.0083 C.3     1  UNL1        0.0498
      4 C           0.5283    0.0159    1.1950 C.3     1  UNL1       -0.0287
      5 C          -0.7490   -0.2149    1.9266 C.3     1  UNL1       -0.0105
      6 C          -1.8492   -0.1883    0.9190 C.ar    1  UNL1        0.0236
      7 C          -3.0312    0.5360    0.7642 C.ar    1  UNL1       -0.0083
      8 C          -3.4025    1.5798    1.7207 C.3     1  UNL1        0.0721
      9 C          -4.7307    2.1570    1.6226 C.2     1  UNL1        0.3091
     10 O          -5.7713    1.4801    1.9163 O.2     1  UNL1       -0.2507
     11 O          -4.9602    3.4712    1.2066 O.3     1  UNL1       -0.4804
     12 C          -3.5850    0.0428   -0.3832 C.ar    1  UNL1        0.0040
     13 C          -4.7360    0.3584   -1.0508 C.ar    1  UNL1       -0.0496
     14 C          -5.0901   -0.2860   -2.2184 C.ar    1  UNL1       -0.0258
     15 C          -4.3099   -1.2732   -2.7718 C.ar    1  UNL1        0.1254
     16 F          -4.6904   -1.8985   -3.9324 F       1  UNL1       -0.2054
     17 C          -3.1473   -1.5987   -2.1094 C.ar    1  UNL1       -0.0023
     18 C          -2.7790   -0.9612   -0.9372 C.ar    1  UNL1        0.0523
     19 N          -1.7416   -1.0517   -0.1009 N.ar    1  UNL1       -0.3419
     20 C          -0.5143   -1.8557   -0.0968 C.3     1  UNL1        0.0408
     21 S           2.9576   -1.0676   -1.3108 S.O2    1  UNL1        0.0609
     22 O           2.1412   -0.5606   -2.4704 O.2     1  UNL1       -0.1528
     23 O           3.6617   -2.3098   -1.7694 O.2     1  UNL1       -0.1528
     24 C           4.1688    0.0930   -0.8471 C.ar    1  UNL1        0.1056
     25 C           5.4194   -0.2372   -0.3931 C.ar    1  UNL1       -0.0326
     26 C           6.3531    0.7219   -0.0251 C.ar    1  UNL1       -0.0246
     27 C           6.0314    2.0465   -0.1111 C.ar    1  UNL1        0.1235
     28 F           6.9099    3.0517    0.2339 F       1  UNL1       -0.2055
     29 C           4.8064    2.4296   -0.5546 C.ar    1  UNL1       -0.0246
     30 C           3.8905    1.4659   -0.9167 C.ar    1  UNL1       -0.0326
     31 H           3.5760   -2.4108    0.7710 H       1  UNL1        0.0408
     32 H           2.0553   -3.1068    1.3244 H       1  UNL1        0.0408
     33 H           2.5847   -1.5318    1.9944 H       1  UNL1        0.0408
     34 H           0.5978   -0.2593   -0.9391 H       1  UNL1        0.0497
     35 H           1.3684   -0.0359    1.8984 H       1  UNL1        0.0285
     36 H           0.5112    1.0801    0.8345 H       1  UNL1        0.0285
     37 H          -0.9203    0.6554    2.5972 H       1  UNL1        0.0328
     38 H          -0.7559   -1.1738    2.4590 H       1  UNL1        0.0328
     39 H          -2.5989    2.3659    1.6610 H       1  UNL1        0.0427
     40 H          -3.2511    1.1430    2.7627 H       1  UNL1        0.0427
     41 H          -5.7198    3.6003    0.5337 H       1  UNL1        0.2951
     42 H          -5.3538    1.1333   -0.6439 H       1  UNL1        0.0625
     43 H          -6.0100   -0.0329   -2.7471 H       1  UNL1        0.0646
     44 H          -2.5094   -2.3589   -2.5016 H       1  UNL1        0.0667
     45 H          -0.5673   -2.5578    0.7520 H       1  UNL1        0.0508
     46 H          -0.4635   -2.3622   -1.0830 H       1  UNL1        0.0508
     47 H           5.7155   -1.2719   -0.3090 H       1  UNL1        0.0638
     48 H           7.3393    0.4382    0.3320 H       1  UNL1        0.0647
     49 H           4.5587    3.4858   -0.6191 H       1  UNL1        0.0647
     50 H           2.9365    1.7779   -1.2569 H       1  UNL1        0.0638
@<TRIPOS>BOND
     1     1     2    1
     2     2     3    1
     3     3     4    1
     4     4     5    1
     5     5     6    1
     6     6     7   ar
     7     7     8    1
     8     8     9    1
     9     9    10    2
    10     9    11    1
    11     7    12   ar
    12    12    13   ar
    13    13    14   ar
    14    14    15   ar
    15    15    16    1
    16    15    17   ar
    17    17    18   ar
    18    18    19   ar
    19    19    20    1
    20     2    21    1
    21    21    22    2
    22    21    23    2
    23    21    24    1
    24    24    25   ar
    25    25    26   ar
    26    26    27   ar
    27    27    28    1
    28    27    29   ar
    29    29    30   ar
    30    20     3    1
    31    30    24   ar
    32    19     6   ar
    33    18    12   ar
    34     1    31    1
    35     1    32    1
    36     1    33    1
    37     3    34    1
    38     4    35    1
    39     4    36    1
    40     5    37    1
    41     5    38    1
    42     8    39    1
    43     8    40    1
    44    11    41    1
    45    13    42    1
    46    14    43    1
    47    17    44    1
    48    20    45    1
    49    20    46    1
    50    25    47    1
    51    26    48    1
    52    29    49    1
    53    30    50    1
