@<TRIPOS>MOLECULE
*****
 56 59 0 0 0
SMALL
GASTEIGER

@<TRIPOS>ATOM
      1 C           8.9032   -1.2088   -0.9228 C.3     1  UNL1        0.0789
      2 O           8.2156    0.0083   -0.8069 O.3     1  UNL1       -0.4936
      3 C           6.8629    0.0153   -0.4972 C.ar    1  UNL1        0.1388
      4 C           6.2590    1.2641   -0.4017 C.ar    1  UNL1        0.0700
      5 N           4.9500    1.2988   -0.1033 N.ar    1  UNL1       -0.2478
      6 C           4.1969    0.2212    0.1060 C.ar    1  UNL1        0.1138
      7 C           2.8302    0.3379    0.4121 C.ar    1  UNL1        0.1492
      8 N           2.2978    1.6310    0.5135 N.pl3   1  UNL1       -0.2977
      9 C           0.9230    1.8562    0.7005 C.ar    1  UNL1        0.0330
     10 C           0.5303    3.0202    1.3662 C.ar    1  UNL1       -0.0378
     11 C          -0.8103    3.2572    1.5285 C.ar    1  UNL1       -0.0243
     12 C          -1.7509    2.3663    1.0454 C.ar    1  UNL1        0.1311
     13 F          -3.0848    2.5767    1.1929 F       1  UNL1       -0.2050
     14 C          -1.3795    1.2106    0.3845 C.ar    1  UNL1        0.0420
     15 C          -2.4307    0.2575   -0.1425 C.3     1  UNL1        0.1959
     16 C          -1.6260   -0.9571   -0.6670 C.3     1  UNL1       -0.0112
     17 C          -3.0825    0.9793   -1.2653 C.3     1  UNL1        0.1183
     18 S          -4.8405    0.8885   -1.1812 S.O2    1  UNL1       -0.0101
     19 O          -5.4190    0.6517   -2.5653 O.2     1  UNL1       -0.1731
     20 O          -5.4544    2.1640   -0.6823 O.2     1  UNL1       -0.1731
     21 C          -5.2722   -0.4950   -0.1751 C.3     1  UNL1        0.1831
     22 C          -6.7340   -0.3894    0.2932 C.3     1  UNL1       -0.0288
     23 C          -5.2085   -1.7423   -1.0096 C.3     1  UNL1       -0.0288
     24 C          -4.4052   -0.5202    1.0219 C.2     1  UNL1        0.3067
     25 N          -4.9997   -0.9480    2.2665 N.pl3   1  UNL1       -0.2488
     26 N          -3.2007   -0.1807    0.9415 N.2     1  UNL1       -0.0727
     27 C          -0.0341    0.9802    0.2256 C.ar    1  UNL1       -0.0301
     28 N           2.1684   -0.8052    0.6004 N.ar    1  UNL1       -0.2351
     29 C           2.6909   -2.0202    0.5224 C.ar    1  UNL1        0.0656
     30 C           4.0346   -2.1626    0.2224 C.ar    1  UNL1        0.1508
     31 F           4.6062   -3.3669    0.1332 F       1  UNL1       -0.2032
     32 C           4.7767   -1.0097    0.0155 C.ar    1  UNL1        0.0439
     33 C           6.1203   -1.1204   -0.2882 C.ar    1  UNL1       -0.0064
     34 H           8.3240   -2.0088   -1.4114 H       1  UNL1        0.0660
     35 H           9.8099   -1.0472   -1.5442 H       1  UNL1        0.0660
     36 H           9.2602   -1.5188    0.1010 H       1  UNL1        0.0660
     37 H           6.8380    2.1578   -0.5648 H       1  UNL1        0.0867
     38 H           2.9760    2.4583    0.4463 H       1  UNL1        0.1536
     39 H           1.3058    3.6775    1.7211 H       1  UNL1        0.0637
     40 H          -1.1318    4.1513    2.0405 H       1  UNL1        0.0647
     41 H          -1.0443   -0.7152   -1.5555 H       1  UNL1        0.0279
     42 H          -2.3379   -1.8091   -0.8769 H       1  UNL1        0.0279
     43 H          -1.0412   -1.3138    0.2031 H       1  UNL1        0.0279
     44 H          -2.7646    0.4761   -2.2294 H       1  UNL1        0.0550
     45 H          -2.7906    2.0710   -1.3283 H       1  UNL1        0.0550
     46 H          -6.8038    0.2198    1.2050 H       1  UNL1        0.0256
     47 H          -7.3548   -0.0398   -0.5395 H       1  UNL1        0.0256
     48 H          -7.0022   -1.4433    0.5933 H       1  UNL1        0.0256
     49 H          -6.1847   -2.0372   -1.4467 H       1  UNL1        0.0256
     50 H          -4.7503   -2.5970   -0.4366 H       1  UNL1        0.0256
     51 H          -4.5186   -1.6133   -1.8936 H       1  UNL1        0.0256
     52 H          -4.7168   -0.5050    3.1566 H       1  UNL1        0.2881
     53 H          -5.7087   -1.7044    2.2236 H       1  UNL1        0.2881
     54 H           0.2990    0.0974   -0.2970 H       1  UNL1        0.0641
     55 H           2.1175   -2.9241    0.6828 H       1  UNL1        0.0860
     56 H           6.5864   -2.0906   -0.3607 H       1  UNL1        0.0662
@<TRIPOS>BOND
     1     1     2    1
     2     2     3    1
     3     3     4   ar
     4     4     5   ar
     5     5     6   ar
     6     6     7   ar
     7     7     8    1
     8     8     9    1
     9     9    10   ar
    10    10    11   ar
    11    11    12   ar
    12    12    13    1
    13    12    14   ar
    14    14    15    1
    15    15    16    1
    16    15    17    1
    17    17    18    1
    18    18    19    2
    19    18    20    2
    20    18    21    1
    21    21    22    1
    22    21    23    1
    23    21    24    1
    24    24    25    1
    25    24    26    2
    26    14    27   ar
    27     7    28   ar
    28    28    29   ar
    29    29    30   ar
    30    30    31    1
    31    30    32   ar
    32    32    33   ar
    33    33     3   ar
    34    32     6   ar
    35    27     9   ar
    36    26    15    1
    37     1    34    1
    38     1    35    1
    39     1    36    1
    40     4    37    1
    41     8    38    1
    42    10    39    1
    43    11    40    1
    44    16    41    1
    45    16    42    1
    46    16    43    1
    47    17    44    1
    48    17    45    1
    49    22    46    1
    50    22    47    1
    51    22    48    1
    52    23    49    1
    53    23    50    1
    54    23    51    1
    55    25    52    1
    56    25    53    1
    57    27    54    1
    58    29    55    1
    59    33    56    1
