@<TRIPOS>MOLECULE
*****
 56 59 0 0 0
SMALL
GASTEIGER

@<TRIPOS>ATOM
      1 C          -1.3556    3.4350    1.7313 C.3     1  UNL1       -0.0617
      2 C          -2.7147    3.2488    1.1677 C.3     1  UNL1       -0.0157
      3 C          -2.9407    1.9824    0.3879 C.3     1  UNL1        0.1123
      4 C          -4.4155    2.0597   -0.0622 C.3     1  UNL1       -0.0157
      5 C          -5.3010    2.1357    1.1498 C.3     1  UNL1       -0.0617
      6 C          -2.0708    1.7989   -0.7850 C.3     1  UNL1        0.0098
      7 C          -1.2682    0.5493   -0.8061 C.3     1  UNL1        0.0570
      8 N           0.0018    0.7058   -0.0779 N.am    1  UNL1       -0.2921
      9 C           1.2560    0.4382   -0.6846 C.2     1  UNL1        0.3044
     10 O           1.2118    0.0522   -1.9008 O.2     1  UNL1       -0.2525
     11 N           2.5048    0.5793   -0.0103 N.am    1  UNL1       -0.2689
     12 C           3.6743    0.2667   -0.7430 C.ar    1  UNL1        0.0426
     13 C           4.3983    1.1408   -1.5071 C.ar    1  UNL1       -0.0398
     14 C           5.5189    0.7259   -2.1724 C.ar    1  UNL1       -0.0594
     15 C           5.9383   -0.5786   -2.0848 C.ar    1  UNL1       -0.0525
     16 C           5.2246   -1.4593   -1.3264 C.ar    1  UNL1        0.0020
     17 C           5.6309   -2.7839   -1.2259 C.ar    1  UNL1        0.0356
     18 N           4.9304   -3.6553   -0.4804 N.ar    1  UNL1       -0.2595
     19 C           3.8248   -3.3131    0.1952 C.ar    1  UNL1        0.0389
     20 C           3.0535   -4.2908    1.0189 C.3     1  UNL1       -0.0223
     21 C           3.4067   -1.9992    0.1060 C.ar    1  UNL1       -0.0312
     22 C           4.1046   -1.0625   -0.6563 C.ar    1  UNL1        0.0065
     23 C          -2.0282   -0.5987   -0.2615 C.ar    1  UNL1        0.0175
     24 C          -1.9444   -1.8580   -0.8315 C.ar    1  UNL1       -0.0531
     25 C          -2.6435   -2.8944   -0.2861 C.ar    1  UNL1       -0.0585
     26 C          -3.4204   -2.6963    0.8124 C.ar    1  UNL1       -0.0228
     27 C          -3.5162   -1.4366    1.3972 C.ar    1  UNL1        0.1652
     28 F          -4.2821   -1.2174    2.4925 F       1  UNL1       -0.2016
     29 C          -2.8202   -0.4112    0.8512 C.ar    1  UNL1        0.1612
     30 O          -2.8164    0.9125    1.3245 O.3     1  UNL1       -0.4824
     31 H          -1.4484    4.2687    2.4934 H       1  UNL1        0.0231
     32 H          -0.5706    3.7444    1.0457 H       1  UNL1        0.0231
     33 H          -1.1066    2.5466    2.3542 H       1  UNL1        0.0231
     34 H          -3.4554    3.2761    2.0010 H       1  UNL1        0.0301
     35 H          -2.9864    4.0988    0.5074 H       1  UNL1        0.0301
     36 H          -4.5789    2.9835   -0.6583 H       1  UNL1        0.0301
     37 H          -4.6659    1.2111   -0.7133 H       1  UNL1        0.0301
     38 H          -5.5873    3.1759    1.3367 H       1  UNL1        0.0231
     39 H          -6.2452    1.5660    1.0007 H       1  UNL1        0.0231
     40 H          -4.7815    1.7438    2.0569 H       1  UNL1        0.0231
     41 H          -2.7006    1.8817   -1.7090 H       1  UNL1        0.0325
     42 H          -1.3017    2.6414   -0.7958 H       1  UNL1        0.0325
     43 H          -0.9782    0.2408   -1.8462 H       1  UNL1        0.0551
     44 H           0.0321    1.0184    0.9154 H       1  UNL1        0.1508
     45 H           2.4845    0.9025    0.9757 H       1  UNL1        0.1564
     46 H           4.0535    2.1653   -1.5645 H       1  UNL1        0.0636
     47 H           6.0673    1.4342   -2.7661 H       1  UNL1        0.0618
     48 H           6.8308   -0.9186   -2.6119 H       1  UNL1        0.0624
     49 H           6.5133   -3.0922   -1.7553 H       1  UNL1        0.0836
     50 H           2.3312   -3.7585    1.6563 H       1  UNL1        0.0292
     51 H           3.7648   -4.8848    1.6294 H       1  UNL1        0.0292
     52 H           2.5303   -4.9568    0.2991 H       1  UNL1        0.0292
     53 H           2.5139   -1.6604    0.6334 H       1  UNL1        0.0642
     54 H          -1.3235   -2.0250   -1.7125 H       1  UNL1        0.0622
     55 H          -2.5601   -3.8864   -0.7575 H       1  UNL1        0.0619
     56 H          -3.9732   -3.4922    1.2527 H       1  UNL1        0.0647
@<TRIPOS>BOND
     1     1     2    1
     2     2     3    1
     3     3     4    1
     4     4     5    1
     5     3     6    1
     6     6     7    1
     7     7     8    1
     8     8     9   am
     9     9    10    2
    10     9    11   am
    11    11    12    1
    12    12    13   ar
    13    13    14   ar
    14    14    15   ar
    15    15    16   ar
    16    16    17   ar
    17    17    18   ar
    18    18    19   ar
    19    19    20    1
    20    19    21   ar
    21    21    22   ar
    22     7    23    1
    23    23    24   ar
    24    24    25   ar
    25    25    26   ar
    26    26    27   ar
    27    27    28    1
    28    27    29   ar
    29    29    30    1
    30    30     3    1
    31    22    12   ar
    32    29    23   ar
    33    22    16   ar
    34     1    31    1
    35     1    32    1
    36     1    33    1
    37     2    34    1
    38     2    35    1
    39     4    36    1
    40     4    37    1
    41     5    38    1
    42     5    39    1
    43     5    40    1
    44     6    41    1
    45     6    42    1
    46     7    43    1
    47     8    44    1
    48    11    45    1
    49    13    46    1
    50    14    47    1
    51    15    48    1
    52    17    49    1
    53    20    50    1
    54    20    51    1
    55    20    52    1
    56    21    53    1
    57    24    54    1
    58    25    55    1
    59    26    56    1
