
     RDKit          3D

 56 59  0  0  0  0  0  0  0  0999 V2000
   -1.3556    3.4350    1.7313 C   0  0  0  0  0  0  0  0  0  0  0  0
   -2.7147    3.2488    1.1677 C   0  0  0  0  0  0  0  0  0  0  0  0
   -2.9407    1.9824    0.3879 C   0  0  0  0  0  0  0  0  0  0  0  0
   -4.4155    2.0597   -0.0622 C   0  0  0  0  0  0  0  0  0  0  0  0
   -5.3010    2.1357    1.1498 C   0  0  0  0  0  0  0  0  0  0  0  0
   -2.0708    1.7989   -0.7850 C   0  0  0  0  0  0  0  0  0  0  0  0
   -1.2682    0.5493   -0.8061 C   0  0  1  0  0  0  0  0  0  0  0  0
    0.0018    0.7058   -0.0779 N   0  0  0  0  0  0  0  0  0  0  0  0
    1.2560    0.4382   -0.6846 C   0  0  0  0  0  0  0  0  0  0  0  0
    1.2118    0.0522   -1.9008 O   0  0  0  0  0  0  0  0  0  0  0  0
    2.5048    0.5793   -0.0103 N   0  0  0  0  0  0  0  0  0  0  0  0
    3.6743    0.2667   -0.7430 C   0  0  0  0  0  0  0  0  0  0  0  0
    4.3983    1.1408   -1.5071 C   0  0  0  0  0  0  0  0  0  0  0  0
    5.5189    0.7259   -2.1724 C   0  0  0  0  0  0  0  0  0  0  0  0
    5.9383   -0.5786   -2.0848 C   0  0  0  0  0  0  0  0  0  0  0  0
    5.2246   -1.4593   -1.3264 C   0  0  0  0  0  0  0  0  0  0  0  0
    5.6309   -2.7839   -1.2259 C   0  0  0  0  0  0  0  0  0  0  0  0
    4.9304   -3.6553   -0.4804 N   0  0  0  0  0  0  0  0  0  0  0  0
    3.8248   -3.3131    0.1952 C   0  0  0  0  0  0  0  0  0  0  0  0
    3.0535   -4.2908    1.0189 C   0  0  0  0  0  0  0  0  0  0  0  0
    3.4067   -1.9992    0.1060 C   0  0  0  0  0  0  0  0  0  0  0  0
    4.1046   -1.0625   -0.6563 C   0  0  0  0  0  0  0  0  0  0  0  0
   -2.0282   -0.5987   -0.2615 C   0  0  0  0  0  0  0  0  0  0  0  0
   -1.9444   -1.8580   -0.8315 C   0  0  0  0  0  0  0  0  0  0  0  0
   -2.6435   -2.8944   -0.2861 C   0  0  0  0  0  0  0  0  0  0  0  0
   -3.4204   -2.6963    0.8124 C   0  0  0  0  0  0  0  0  0  0  0  0
   -3.5162   -1.4366    1.3972 C   0  0  0  0  0  0  0  0  0  0  0  0
   -4.2821   -1.2174    2.4925 F   0  0  0  0  0  0  0  0  0  0  0  0
   -2.8202   -0.4112    0.8512 C   0  0  0  0  0  0  0  0  0  0  0  0
   -2.8164    0.9125    1.3245 O   0  0  0  0  0  0  0  0  0  0  0  0
   -1.4484    4.2687    2.4934 H   0  0  0  0  0  0  0  0  0  0  0  0
   -0.5706    3.7444    1.0457 H   0  0  0  0  0  0  0  0  0  0  0  0
   -1.1066    2.5466    2.3542 H   0  0  0  0  0  0  0  0  0  0  0  0
   -3.4554    3.2761    2.0010 H   0  0  0  0  0  0  0  0  0  0  0  0
   -2.9864    4.0988    0.5074 H   0  0  0  0  0  0  0  0  0  0  0  0
   -4.5789    2.9835   -0.6583 H   0  0  0  0  0  0  0  0  0  0  0  0
   -4.6659    1.2111   -0.7133 H   0  0  0  0  0  0  0  0  0  0  0  0
   -5.5873    3.1759    1.3367 H   0  0  0  0  0  0  0  0  0  0  0  0
   -6.2452    1.5660    1.0007 H   0  0  0  0  0  0  0  0  0  0  0  0
   -4.7815    1.7438    2.0569 H   0  0  0  0  0  0  0  0  0  0  0  0
   -2.7006    1.8817   -1.7090 H   0  0  0  0  0  0  0  0  0  0  0  0
   -1.3017    2.6414   -0.7958 H   0  0  0  0  0  0  0  0  0  0  0  0
   -0.9782    0.2408   -1.8462 H   0  0  0  0  0  0  0  0  0  0  0  0
    0.0321    1.0184    0.9154 H   0  0  0  0  0  0  0  0  0  0  0  0
    2.4845    0.9025    0.9757 H   0  0  0  0  0  0  0  0  0  0  0  0
    4.0535    2.1653   -1.5645 H   0  0  0  0  0  0  0  0  0  0  0  0
    6.0673    1.4342   -2.7661 H   0  0  0  0  0  0  0  0  0  0  0  0
    6.8308   -0.9186   -2.6119 H   0  0  0  0  0  0  0  0  0  0  0  0
    6.5133   -3.0922   -1.7553 H   0  0  0  0  0  0  0  0  0  0  0  0
    2.3312   -3.7585    1.6563 H   0  0  0  0  0  0  0  0  0  0  0  0
    3.7648   -4.8848    1.6294 H   0  0  0  0  0  0  0  0  0  0  0  0
    2.5303   -4.9568    0.2991 H   0  0  0  0  0  0  0  0  0  0  0  0
    2.5139   -1.6604    0.6334 H   0  0  0  0  0  0  0  0  0  0  0  0
   -1.3235   -2.0250   -1.7125 H   0  0  0  0  0  0  0  0  0  0  0  0
   -2.5601   -3.8864   -0.7575 H   0  0  0  0  0  0  0  0  0  0  0  0
   -3.9732   -3.4922    1.2527 H   0  0  0  0  0  0  0  0  0  0  0  0
  1  2  1  0
  2  3  1  0
  3  4  1  0
  4  5  1  0
  3  6  1  0
  6  7  1  0
  7  8  1  0
  8  9  1  0
  9 10  2  0
  9 11  1  0
 11 12  1  0
 12 13  2  0
 13 14  1  0
 14 15  2  0
 15 16  1  0
 16 17  2  0
 17 18  1  0
 18 19  2  0
 19 20  1  0
 19 21  1  0
 21 22  2  0
  7 23  1  0
 23 24  2  0
 24 25  1  0
 25 26  2  0
 26 27  1  0
 27 28  1  0
 27 29  2  0
 29 30  1  0
 30  3  1  0
 22 12  1  0
 29 23  1  0
 22 16  1  0
  1 31  1  0
  1 32  1  0
  1 33  1  0
  2 34  1  0
  2 35  1  0
  4 36  1  0
  4 37  1  0
  5 38  1  0
  5 39  1  0
  5 40  1  0
  6 41  1  0
  6 42  1  0
  7 43  1  6
  8 44  1  0
 11 45  1  0
 13 46  1  0
 14 47  1  0
 15 48  1  0
 17 49  1  0
 20 50  1  0
 20 51  1  0
 20 52  1  0
 21 53  1  0
 24 54  1  0
 25 55  1  0
 26 56  1  0
M  END
$$$$
