@<TRIPOS>MOLECULE
*****
 69 72 0 0 0
SMALL
GASTEIGER

@<TRIPOS>ATOM
      1 C           0.1874   -2.7305    1.3493 C.3     1  UNL1       -0.0633
      2 C           0.0573   -1.5173    2.1520 C.3     1  UNL1       -0.0329
      3 C           0.3955   -0.1833    1.5372 C.3     1  UNL1        0.0540
      4 C           1.7775   -0.0595    1.0601 C.ar    1  UNL1       -0.0269
      5 C           2.2075   -0.4803   -0.1703 C.ar    1  UNL1       -0.0562
      6 C           3.5389   -0.3379   -0.6072 C.ar    1  UNL1       -0.0537
      7 C           4.4899    0.2400    0.1941 C.ar    1  UNL1       -0.0177
      8 C           5.8621    0.3809   -0.2705 C.ar    1  UNL1       -0.0114
      9 C           6.1599    0.5783   -1.6166 C.ar    1  UNL1       -0.0376
     10 C           7.4757    0.7037   -1.9912 C.ar    1  UNL1        0.0082
     11 N           8.4951    0.6458   -1.1234 N.ar    1  UNL1       -0.3182
     12 C           9.8796    0.7791   -1.5274 C.3     1  UNL1        0.0147
     13 C           8.2539    0.4571    0.1817 C.ar    1  UNL1        0.2516
     14 O           9.2195    0.4009    1.0127 O.2     1  UNL1       -0.2677
     15 C           6.9434    0.3288    0.5807 C.ar    1  UNL1        0.0107
     16 C           4.0659    0.6648    1.4323 C.ar    1  UNL1       -0.0537
     17 C           2.7711    0.5313    1.8678 C.ar    1  UNL1       -0.0562
     18 N          -0.6283    0.3576    0.7071 N.am    1  UNL1       -0.2602
     19 C          -0.9879   -0.0775   -0.6103 C.3     1  UNL1        0.0224
     20 C          -2.3432    0.4172   -1.0097 C.3     1  UNL1        0.0076
     21 C          -3.3377    0.6002    0.0465 C.3     1  UNL1        0.1440
     22 C          -3.8028   -0.5566    0.8084 C.3     1  UNL1        0.0199
     23 C          -4.4840   -1.6833    0.1586 C.3     1  UNL1        0.0645
     24 C          -5.7755   -1.3678   -0.5635 C.3     1  UNL1       -0.0362
     25 C          -3.6347   -2.5819   -0.7009 C.3     1  UNL1       -0.0362
     26 O          -4.9123   -2.5326    1.2246 O.3     1  UNL1       -0.3890
     27 C          -4.5110    1.3898   -0.5051 C.ar    1  UNL1       -0.0040
     28 C          -4.5987    1.7456   -1.8236 C.ar    1  UNL1       -0.0548
     29 C          -5.6717    2.4735   -2.2703 C.ar    1  UNL1       -0.0614
     30 C          -6.6892    2.8730   -1.4359 C.ar    1  UNL1       -0.0617
     31 C          -6.5694    2.4982   -0.1149 C.ar    1  UNL1       -0.0614
     32 C          -5.4973    1.7610    0.3749 C.ar    1  UNL1       -0.0548
     33 O          -2.7737    1.5481    0.9806 O.3     1  UNL1       -0.4387
     34 C          -1.3887    1.4811    1.2228 C.2     1  UNL1        0.4042
     35 O          -0.8489    2.3822    1.8715 O.2     1  UNL1       -0.2262
     36 H           0.7259   -3.5679    1.8857 H       1  UNL1        0.0230
     37 H           0.6176   -2.7012    0.3626 H       1  UNL1        0.0230
     38 H          -0.8573   -3.1525    1.2051 H       1  UNL1        0.0230
     39 H          -0.9428   -1.3855    2.6352 H       1  UNL1        0.0284
     40 H           0.7529   -1.6316    3.0450 H       1  UNL1        0.0284
     41 H           0.3955    0.4887    2.4930 H       1  UNL1        0.0551
     42 H           1.4977   -0.9580   -0.8377 H       1  UNL1        0.0621
     43 H           3.7886   -0.6949   -1.5858 H       1  UNL1        0.0624
     44 H           5.3372    0.6240   -2.3071 H       1  UNL1        0.0638
     45 H           7.7369    0.8595   -3.0439 H       1  UNL1        0.0810
     46 H           9.9541    1.2492   -2.5292 H       1  UNL1        0.0457
     47 H          10.4621    1.3787   -0.7812 H       1  UNL1        0.0457
     48 H          10.3578   -0.2194   -1.5885 H       1  UNL1        0.0457
     49 H           6.7496    0.1770    1.6287 H       1  UNL1        0.0678
     50 H           4.8327    1.1228    2.0606 H       1  UNL1        0.0624
     51 H           2.4788    0.8804    2.8558 H       1  UNL1        0.0621
     52 H          -0.8815   -1.1708   -0.6651 H       1  UNL1        0.0467
     53 H          -0.2305    0.2961   -1.3762 H       1  UNL1        0.0467
     54 H          -2.1431    1.4671   -1.4252 H       1  UNL1        0.0322
     55 H          -2.7191   -0.1016   -1.9278 H       1  UNL1        0.0322
     56 H          -4.4727   -0.1849    1.6349 H       1  UNL1        0.0335
     57 H          -2.9397   -0.9960    1.3932 H       1  UNL1        0.0335
     58 H          -6.2141   -2.3935   -0.7849 H       1  UNL1        0.0257
     59 H          -6.5004   -0.9216    0.1207 H       1  UNL1        0.0257
     60 H          -5.6607   -0.9137   -1.5427 H       1  UNL1        0.0257
     61 H          -2.6230   -2.7515   -0.3133 H       1  UNL1        0.0257
     62 H          -4.1333   -3.5991   -0.7020 H       1  UNL1        0.0257
     63 H          -3.6281   -2.2937   -1.7671 H       1  UNL1        0.0257
     64 H          -5.0947   -2.0215    2.0314 H       1  UNL1        0.2101
     65 H          -3.8439    1.4656   -2.5164 H       1  UNL1        0.0622
     66 H          -5.7548    2.7657   -3.3272 H       1  UNL1        0.0618
     67 H          -7.5416    3.4530   -1.7980 H       1  UNL1        0.0618
     68 H          -7.3407    2.7860    0.5812 H       1  UNL1        0.0618
     69 H          -5.4907    1.5151    1.4442 H       1  UNL1        0.0622
@<TRIPOS>BOND
     1     1     2    1
     2     2     3    1
     3     3     4    1
     4     4     5   ar
     5     5     6   ar
     6     6     7   ar
     7     7     8    1
     8     8     9   ar
     9     9    10   ar
    10    10    11   ar
    11    11    12    1
    12    11    13   ar
    13    13    14    2
    14    13    15   ar
    15     7    16   ar
    16    16    17   ar
    17     3    18    1
    18    18    19    1
    19    19    20    1
    20    20    21    1
    21    21    22    1
    22    22    23    1
    23    23    24    1
    24    23    25    1
    25    23    26    1
    26    21    27    1
    27    27    28   ar
    28    28    29   ar
    29    29    30   ar
    30    30    31   ar
    31    31    32   ar
    32    21    33    1
    33    33    34    1
    34    34    35    2
    35    17     4   ar
    36    34    18   am
    37    15     8   ar
    38    32    27   ar
    39     1    36    1
    40     1    37    1
    41     1    38    1
    42     2    39    1
    43     2    40    1
    44     3    41    1
    45     5    42    1
    46     6    43    1
    47     9    44    1
    48    10    45    1
    49    12    46    1
    50    12    47    1
    51    12    48    1
    52    15    49    1
    53    16    50    1
    54    17    51    1
    55    19    52    1
    56    19    53    1
    57    20    54    1
    58    20    55    1
    59    22    56    1
    60    22    57    1
    61    24    58    1
    62    24    59    1
    63    24    60    1
    64    25    61    1
    65    25    62    1
    66    25    63    1
    67    26    64    1
    68    28    65    1
    69    29    66    1
    70    30    67    1
    71    31    68    1
    72    32    69    1
