
     RDKit          3D

 69 72  0  0  0  0  0  0  0  0999 V2000
    0.1874   -2.7305    1.3493 C   0  0  0  0  0  0  0  0  0  0  0  0
    0.0573   -1.5173    2.1520 C   0  0  0  0  0  0  0  0  0  0  0  0
    0.3955   -0.1833    1.5372 C   0  0  1  0  0  0  0  0  0  0  0  0
    1.7775   -0.0595    1.0601 C   0  0  0  0  0  0  0  0  0  0  0  0
    2.2075   -0.4803   -0.1703 C   0  0  0  0  0  0  0  0  0  0  0  0
    3.5389   -0.3379   -0.6072 C   0  0  0  0  0  0  0  0  0  0  0  0
    4.4899    0.2400    0.1941 C   0  0  0  0  0  0  0  0  0  0  0  0
    5.8621    0.3809   -0.2705 C   0  0  0  0  0  0  0  0  0  0  0  0
    6.1599    0.5783   -1.6166 C   0  0  0  0  0  0  0  0  0  0  0  0
    7.4757    0.7037   -1.9912 C   0  0  0  0  0  0  0  0  0  0  0  0
    8.4951    0.6458   -1.1234 N   0  0  0  0  0  0  0  0  0  0  0  0
    9.8796    0.7791   -1.5274 C   0  0  0  0  0  0  0  0  0  0  0  0
    8.2539    0.4571    0.1817 C   0  0  0  0  0  0  0  0  0  0  0  0
    9.2195    0.4009    1.0127 O   0  0  0  0  0  0  0  0  0  0  0  0
    6.9434    0.3288    0.5807 C   0  0  0  0  0  0  0  0  0  0  0  0
    4.0659    0.6648    1.4323 C   0  0  0  0  0  0  0  0  0  0  0  0
    2.7711    0.5313    1.8678 C   0  0  0  0  0  0  0  0  0  0  0  0
   -0.6283    0.3576    0.7071 N   0  0  0  0  0  0  0  0  0  0  0  0
   -0.9879   -0.0775   -0.6103 C   0  0  0  0  0  0  0  0  0  0  0  0
   -2.3432    0.4172   -1.0097 C   0  0  0  0  0  0  0  0  0  0  0  0
   -3.3377    0.6002    0.0465 C   0  0  2  0  0  0  0  0  0  0  0  0
   -3.8028   -0.5566    0.8084 C   0  0  0  0  0  0  0  0  0  0  0  0
   -4.4840   -1.6833    0.1586 C   0  0  0  0  0  0  0  0  0  0  0  0
   -5.7755   -1.3678   -0.5635 C   0  0  0  0  0  0  0  0  0  0  0  0
   -3.6347   -2.5819   -0.7009 C   0  0  0  0  0  0  0  0  0  0  0  0
   -4.9123   -2.5326    1.2246 O   0  0  0  0  0  0  0  0  0  0  0  0
   -4.5110    1.3898   -0.5051 C   0  0  0  0  0  0  0  0  0  0  0  0
   -4.5987    1.7456   -1.8236 C   0  0  0  0  0  0  0  0  0  0  0  0
   -5.6717    2.4735   -2.2703 C   0  0  0  0  0  0  0  0  0  0  0  0
   -6.6892    2.8730   -1.4359 C   0  0  0  0  0  0  0  0  0  0  0  0
   -6.5694    2.4982   -0.1149 C   0  0  0  0  0  0  0  0  0  0  0  0
   -5.4973    1.7610    0.3749 C   0  0  0  0  0  0  0  0  0  0  0  0
   -2.7737    1.5481    0.9806 O   0  0  0  0  0  0  0  0  0  0  0  0
   -1.3887    1.4811    1.2228 C   0  0  0  0  0  0  0  0  0  0  0  0
   -0.8489    2.3822    1.8715 O   0  0  0  0  0  0  0  0  0  0  0  0
    0.7259   -3.5679    1.8857 H   0  0  0  0  0  0  0  0  0  0  0  0
    0.6176   -2.7012    0.3626 H   0  0  0  0  0  0  0  0  0  0  0  0
   -0.8573   -3.1525    1.2051 H   0  0  0  0  0  0  0  0  0  0  0  0
   -0.9428   -1.3855    2.6352 H   0  0  0  0  0  0  0  0  0  0  0  0
    0.7529   -1.6316    3.0450 H   0  0  0  0  0  0  0  0  0  0  0  0
    0.3955    0.4887    2.4930 H   0  0  0  0  0  0  0  0  0  0  0  0
    1.4977   -0.9580   -0.8377 H   0  0  0  0  0  0  0  0  0  0  0  0
    3.7886   -0.6949   -1.5858 H   0  0  0  0  0  0  0  0  0  0  0  0
    5.3372    0.6240   -2.3071 H   0  0  0  0  0  0  0  0  0  0  0  0
    7.7369    0.8595   -3.0439 H   0  0  0  0  0  0  0  0  0  0  0  0
    9.9541    1.2492   -2.5292 H   0  0  0  0  0  0  0  0  0  0  0  0
   10.4621    1.3787   -0.7812 H   0  0  0  0  0  0  0  0  0  0  0  0
   10.3578   -0.2194   -1.5885 H   0  0  0  0  0  0  0  0  0  0  0  0
    6.7496    0.1770    1.6287 H   0  0  0  0  0  0  0  0  0  0  0  0
    4.8327    1.1228    2.0606 H   0  0  0  0  0  0  0  0  0  0  0  0
    2.4788    0.8804    2.8558 H   0  0  0  0  0  0  0  0  0  0  0  0
   -0.8815   -1.1708   -0.6651 H   0  0  0  0  0  0  0  0  0  0  0  0
   -0.2305    0.2961   -1.3762 H   0  0  0  0  0  0  0  0  0  0  0  0
   -2.1431    1.4671   -1.4252 H   0  0  0  0  0  0  0  0  0  0  0  0
   -2.7191   -0.1016   -1.9278 H   0  0  0  0  0  0  0  0  0  0  0  0
   -4.4727   -0.1849    1.6349 H   0  0  0  0  0  0  0  0  0  0  0  0
   -2.9397   -0.9960    1.3932 H   0  0  0  0  0  0  0  0  0  0  0  0
   -6.2141   -2.3935   -0.7849 H   0  0  0  0  0  0  0  0  0  0  0  0
   -6.5004   -0.9216    0.1207 H   0  0  0  0  0  0  0  0  0  0  0  0
   -5.6607   -0.9137   -1.5427 H   0  0  0  0  0  0  0  0  0  0  0  0
   -2.6230   -2.7515   -0.3133 H   0  0  0  0  0  0  0  0  0  0  0  0
   -4.1333   -3.5991   -0.7020 H   0  0  0  0  0  0  0  0  0  0  0  0
   -3.6281   -2.2937   -1.7671 H   0  0  0  0  0  0  0  0  0  0  0  0
   -5.0947   -2.0215    2.0314 H   0  0  0  0  0  0  0  0  0  0  0  0
   -3.8439    1.4656   -2.5164 H   0  0  0  0  0  0  0  0  0  0  0  0
   -5.7548    2.7657   -3.3272 H   0  0  0  0  0  0  0  0  0  0  0  0
   -7.5416    3.4530   -1.7980 H   0  0  0  0  0  0  0  0  0  0  0  0
   -7.3407    2.7860    0.5812 H   0  0  0  0  0  0  0  0  0  0  0  0
   -5.4907    1.5151    1.4442 H   0  0  0  0  0  0  0  0  0  0  0  0
  1  2  1  0
  2  3  1  0
  3  4  1  0
  4  5  2  0
  5  6  1  0
  6  7  2  0
  7  8  1  0
  8  9  1  0
  9 10  2  0
 10 11  1  0
 11 12  1  0
 11 13  1  0
 13 14  2  0
 13 15  1  0
  7 16  1  0
 16 17  2  0
  3 18  1  0
 18 19  1  0
 19 20  1  0
 20 21  1  0
 21 22  1  1
 22 23  1  0
 23 24  1  0
 23 25  1  0
 23 26  1  0
 21 27  1  0
 27 28  2  0
 28 29  1  0
 29 30  2  0
 30 31  1  0
 31 32  2  0
 21 33  1  0
 33 34  1  0
 34 35  2  0
 17  4  1  0
 34 18  1  0
 15  8  2  0
 32 27  1  0
  1 36  1  0
  1 37  1  0
  1 38  1  0
  2 39  1  0
  2 40  1  0
  3 41  1  1
  5 42  1  0
  6 43  1  0
  9 44  1  0
 10 45  1  0
 12 46  1  0
 12 47  1  0
 12 48  1  0
 15 49  1  0
 16 50  1  0
 17 51  1  0
 19 52  1  0
 19 53  1  0
 20 54  1  0
 20 55  1  0
 22 56  1  0
 22 57  1  0
 24 58  1  0
 24 59  1  0
 24 60  1  0
 25 61  1  0
 25 62  1  0
 25 63  1  0
 26 64  1  0
 28 65  1  0
 29 66  1  0
 30 67  1  0
 31 68  1  0
 32 69  1  0
M  END
$$$$
