@<TRIPOS>MOLECULE
*****
 91 93 0 0 0
SMALL
GASTEIGER

@<TRIPOS>ATOM
      1 C          -3.1855   -2.8582    0.1789 C.3     1  UNL1        0.1339
      2 O          -4.0313   -3.7592   -0.4934 O.3     1  UNL1       -0.3821
      3 C          -3.9898   -1.6260    0.4530 C.3     1  UNL1        0.0071
      4 C          -5.1845   -1.9633    1.3075 C.ar    1  UNL1       -0.0442
      5 C          -5.1272   -1.9292    2.6779 C.ar    1  UNL1       -0.0550
      6 C          -6.3015   -2.2598    3.3397 C.ar    1  UNL1       -0.0199
      7 C          -7.4908   -2.6112    2.7166 C.ar    1  UNL1        0.1169
      8 O          -8.6278   -2.9299    3.4389 O.3     1  UNL1       -0.5068
      9 C          -7.4904   -2.6284    1.3351 C.ar    1  UNL1       -0.0199
     10 C          -6.3447   -2.3065    0.6552 C.ar    1  UNL1       -0.0550
     11 C          -1.9837   -2.5971   -0.6754 C.2     1  UNL1        0.2131
     12 O          -1.4325   -3.8834   -0.8423 O.2     1  UNL1       -0.4939
     13 N          -1.2611   -1.7674   -1.2967 N.2     1  UNL1       -0.2395
     14 C          -1.4056   -0.3468   -1.4262 C.3     1  UNL1        0.1327
     15 C          -0.2494    0.3693   -0.9064 C.2     1  UNL1        0.2413
     16 O           0.0817   -0.8290   -0.7492 O.2     1  UNL1       -0.2732
     17 N           0.5527    1.4343   -0.5497 N.am    1  UNL1       -0.2847
     18 C           1.8159    1.0102    0.0091 C.3     1  UNL1        0.1019
     19 C           2.5025    2.3088    0.3602 C.3     1  UNL1       -0.0211
     20 C           1.9354    3.2730   -0.6327 C.3     1  UNL1       -0.0200
     21 C           2.1332    4.7062   -0.2878 C.3     1  UNL1       -0.0460
     22 C           0.8294    5.4420   -0.5161 C.3     1  UNL1       -0.0239
     23 C          -0.1971    4.9548    0.5076 C.3     1  UNL1        0.0915
     24 C          -0.1283    3.4538    0.6637 C.3     1  UNL1       -0.0053
     25 C           0.4510    2.8694   -0.5924 C.3     1  UNL1        0.0322
     26 O          -1.4389    5.3804    0.0376 O.3     1  UNL1       -0.2125
     27 S          -2.1128    6.5545    1.0353 S.O2    1  UNL1        0.2078
     28 O          -0.9015    7.1495    2.0249 O.3     1  UNL1       -0.2311
     29 O          -3.1950    5.8994    1.8390 O.2     1  UNL1       -0.1181
     30 O          -2.7292    7.6730    0.2448 O.2     1  UNL1       -0.1181
     31 C           1.6755    0.0916    1.1646 C.2     1  UNL1        0.2037
     32 O           1.3436   -0.4713    2.3801 O.2     1  UNL1       -0.4944
     33 N           2.1440   -1.1070    1.3330 N.2     1  UNL1       -0.2532
     34 C           2.9355   -1.8353    0.3945 C.3     1  UNL1        0.0432
     35 C           4.4229   -1.8118    0.6931 C.3     1  UNL1       -0.0305
     36 C           5.2122   -2.5847   -0.3209 C.3     1  UNL1       -0.0206
     37 C           6.7089   -2.5447    0.0063 C.3     1  UNL1        0.0647
     38 N           6.9248   -3.1304    1.3163 N.pl3   1  UNL1       -0.2761
     39 C           8.3078   -3.1460    1.7227 C.cat   1  UNL1        0.3762
     40 N           8.7160   -3.9524    2.8357 N.pl3   1  UNL1       -0.2893
     41 N           9.2495   -2.4806    1.1627 N.pl3   1  UNL1       -0.1298
     42 C          -1.6291   -0.0835   -2.9108 C.3     1  UNL1       -0.0131
     43 C          -1.7925    1.4019   -3.1045 C.3     1  UNL1       -0.0600
     44 C          -2.7967   -0.8793   -3.4484 C.3     1  UNL1       -0.0509
     45 C          -2.9929   -0.5969   -4.9224 C.3     1  UNL1       -0.0650
     46 H          -2.8820   -3.2779    1.1534 H       1  UNL1        0.0695
     47 H          -3.7444   -4.6873   -0.3115 H       1  UNL1        0.2104
     48 H          -3.4393   -0.8679    1.0488 H       1  UNL1        0.0343
     49 H          -4.3535   -1.1570   -0.4587 H       1  UNL1        0.0343
     50 H          -4.2259   -1.6626    3.1890 H       1  UNL1        0.0621
     51 H          -6.2831   -2.2400    4.4242 H       1  UNL1        0.0654
     52 H          -9.3300   -3.5332    3.0318 H       1  UNL1        0.2921
     53 H          -8.4213   -2.9025    0.8743 H       1  UNL1        0.0654
     54 H          -6.4290   -2.3414   -0.4214 H       1  UNL1        0.0621
     55 H          -0.5183   -4.0235   -1.2523 H       1  UNL1        0.2935
     56 H          -2.2936   -0.0308   -0.8482 H       1  UNL1        0.0645
     57 H           2.3937    0.4729   -0.7752 H       1  UNL1        0.0598
     58 H           3.5995    2.1237    0.1764 H       1  UNL1        0.0291
     59 H           2.3489    2.5816    1.4148 H       1  UNL1        0.0291
     60 H           2.2995    2.9709   -1.6327 H       1  UNL1        0.0319
     61 H           2.5156    4.8644    0.7458 H       1  UNL1        0.0269
     62 H           2.8509    5.1272   -1.0404 H       1  UNL1        0.0269
     63 H           0.4945    5.1983   -1.5458 H       1  UNL1        0.0291
     64 H           0.9979    6.5270   -0.4270 H       1  UNL1        0.0291
     65 H           0.0695    5.4832    1.4467 H       1  UNL1        0.0621
     66 H          -1.2050    3.1230    0.7503 H       1  UNL1        0.0309
     67 H           0.4135    3.1770    1.5922 H       1  UNL1        0.0309
     68 H          -0.1181    3.2559   -1.4379 H       1  UNL1        0.0504
     69 H          -0.3156    7.7297    1.4712 H       1  UNL1        0.2469
     70 H           0.8381    0.0847    3.0788 H       1  UNL1        0.2935
     71 H           2.6531   -2.9280    0.4381 H       1  UNL1        0.0509
     72 H           2.7406   -1.5247   -0.6327 H       1  UNL1        0.0509
     73 H           4.7617   -0.7565    0.6388 H       1  UNL1        0.0284
     74 H           4.6418   -2.1746    1.7077 H       1  UNL1        0.0284
     75 H           5.1237   -2.1352   -1.3328 H       1  UNL1        0.0296
     76 H           4.9225   -3.6504   -0.3875 H       1  UNL1        0.0296
     77 H           7.2843   -3.1232   -0.7318 H       1  UNL1        0.0655
     78 H           7.0355   -1.4976    0.0145 H       1  UNL1        0.0655
     79 H           6.2758   -3.5324    2.0023 H       1  UNL1        0.2579
     80 H           8.7551   -3.5524    3.8176 H       1  UNL1        0.2546
     81 H           9.0080   -4.9639    2.8404 H       1  UNL1        0.2546
     82 H           9.0264   -1.8678    0.3422 H       1  UNL1        0.3062
     83 H          -0.7495   -0.3851   -3.5082 H       1  UNL1        0.0323
     84 H          -2.1087    1.9201   -2.1560 H       1  UNL1        0.0233
     85 H          -2.5646    1.6533   -3.8693 H       1  UNL1        0.0233
     86 H          -0.8457    1.8951   -3.4192 H       1  UNL1        0.0233
     87 H          -2.4756   -1.9596   -3.3643 H       1  UNL1        0.0266
     88 H          -3.7205   -0.7849   -2.8680 H       1  UNL1        0.0266
     89 H          -3.8309    0.0600   -5.1549 H       1  UNL1        0.0230
     90 H          -3.1073   -1.5545   -5.4887 H       1  UNL1        0.0230
     91 H          -2.0111   -0.1860   -5.2935 H       1  UNL1        0.0230
@<TRIPOS>BOND
     1     1     2    1
     2     1     3    1
     3     3     4    1
     4     4     5   ar
     5     5     6   ar
     6     6     7   ar
     7     7     8    1
     8     7     9   ar
     9     9    10   ar
    10     1    11    1
    11    11    12    1
    12    11    13    2
    13    13    14    1
    14    14    15    1
    15    15    16    2
    16    15    17   am
    17    17    18    1
    18    18    19    1
    19    19    20    1
    20    20    21    1
    21    21    22    1
    22    22    23    1
    23    23    24    1
    24    24    25    1
    25    23    26    1
    26    26    27    1
    27    27    28    1
    28    27    29    2
    29    27    30    2
    30    18    31    1
    31    31    32    1
    32    31    33    2
    33    33    34    1
    34    34    35    1
    35    35    36    1
    36    36    37    1
    37    37    38    1
    38    38    39    1
    39    39    40    1
    40    39    41    2
    41    14    42    1
    42    42    43    1
    43    42    44    1
    44    44    45    1
    45    10     4   ar
    46    25    17    1
    47    25    20    1
    48     1    46    1
    49     2    47    1
    50     3    48    1
    51     3    49    1
    52     5    50    1
    53     6    51    1
    54     8    52    1
    55     9    53    1
    56    10    54    1
    57    12    55    1
    58    14    56    1
    59    18    57    1
    60    19    58    1
    61    19    59    1
    62    20    60    1
    63    21    61    1
    64    21    62    1
    65    22    63    1
    66    22    64    1
    67    23    65    1
    68    24    66    1
    69    24    67    1
    70    25    68    1
    71    28    69    1
    72    32    70    1
    73    34    71    1
    74    34    72    1
    75    35    73    1
    76    35    74    1
    77    36    75    1
    78    36    76    1
    79    37    77    1
    80    37    78    1
    81    38    79    1
    82    40    80    1
    83    40    81    1
    84    41    82    1
    85    42    83    1
    86    43    84    1
    87    43    85    1
    88    43    86    1
    89    44    87    1
    90    44    88    1
    91    45    89    1
    92    45    90    1
    93    45    91    1
