@<TRIPOS>MOLECULE
*****
 33 35 0 0 0
SMALL
GASTEIGER

@<TRIPOS>ATOM
      1 O          -0.3566   -1.7060    1.0419 O.2     1  UNL1       -0.2873
      2 C          -0.2145   -0.6744    0.3692 C.2     1  UNL1        0.1867
      3 C           1.1907   -0.2262    0.2016 C.2     1  UNL1       -0.0137
      4 C           2.1963   -0.8912    0.7371 C.2     1  UNL1       -0.0495
      5 C           3.5879   -0.4969    0.6041 C.ar    1  UNL1       -0.0068
      6 C           4.0371    0.5988   -0.0828 C.ar    1  UNL1       -0.0517
      7 C           5.4044    0.9043   -0.1591 C.ar    1  UNL1       -0.0430
      8 C           6.3311    0.1110    0.4544 C.ar    1  UNL1        0.0276
      9 N           5.8860   -0.9630    1.1273 N.ar    1  UNL1       -0.2627
     10 C           4.5816   -1.2756    1.2141 C.ar    1  UNL1        0.0347
     11 C          -1.2938    0.0545   -0.2156 C.ar    1  UNL1        0.0294
     12 C          -1.0567    1.2143   -0.9648 C.ar    1  UNL1       -0.0503
     13 C          -2.0614    1.9531   -1.5492 C.ar    1  UNL1       -0.0605
     14 C          -3.3519    1.5561   -1.4050 C.ar    1  UNL1       -0.0540
     15 C          -3.6621    0.4261   -0.6824 C.ar    1  UNL1       -0.0172
     16 C          -4.9753    0.0309   -0.5414 C.ar    1  UNL1       -0.0540
     17 C          -5.3309   -1.0862    0.1684 C.ar    1  UNL1       -0.0612
     18 C          -4.3333   -1.8207    0.7493 C.ar    1  UNL1       -0.0611
     19 C          -2.9904   -1.4283    0.6130 C.ar    1  UNL1       -0.0533
     20 C          -2.6200   -0.3082   -0.0975 C.ar    1  UNL1       -0.0071
     21 H           1.4611    0.6486   -0.3550 H       1  UNL1        0.0656
     22 H           1.9333   -1.7848    1.3069 H       1  UNL1        0.0625
     23 H           3.3288    1.2386   -0.5740 H       1  UNL1        0.0624
     24 H           5.7121    1.7968   -0.7240 H       1  UNL1        0.0633
     25 H           7.3793    0.3657    0.3824 H       1  UNL1        0.0829
     26 H           4.2374   -2.1512    1.7644 H       1  UNL1        0.0835
     27 H          -0.0376    1.5271   -1.0782 H       1  UNL1        0.0625
     28 H          -1.8109    2.8482   -2.1211 H       1  UNL1        0.0618
     29 H          -4.1788    2.1024   -1.8448 H       1  UNL1        0.0624
     30 H          -5.7564    0.6176   -1.0039 H       1  UNL1        0.0624
     31 H          -6.3711   -1.3792    0.2667 H       1  UNL1        0.0618
     32 H          -4.6062   -2.7012    1.3094 H       1  UNL1        0.0618
     33 H          -2.2594   -2.0422    1.0889 H       1  UNL1        0.0624
@<TRIPOS>BOND
     1     1     2    2
     2     2     3    1
     3     3     4    2
     4     4     5    1
     5     5     6   ar
     6     6     7   ar
     7     7     8   ar
     8     8     9   ar
     9     9    10   ar
    10     2    11    1
    11    11    12   ar
    12    12    13   ar
    13    13    14   ar
    14    14    15   ar
    15    15    16   ar
    16    16    17   ar
    17    17    18   ar
    18    18    19   ar
    19    19    20   ar
    20    10     5   ar
    21    20    11   ar
    22    20    15   ar
    23     3    21    1
    24     4    22    1
    25     6    23    1
    26     7    24    1
    27     8    25    1
    28    10    26    1
    29    12    27    1
    30    13    28    1
    31    14    29    1
    32    16    30    1
    33    17    31    1
    34    18    32    1
    35    19    33    1
