@<TRIPOS>MOLECULE
*****
 70 73 0 0 0
SMALL
GASTEIGER

@<TRIPOS>ATOM
      1 C          -7.4649   -3.9874   -0.0254 C.3     1  UNL1       -0.0128
      2 N          -6.6909   -2.8007   -0.3342 N.3     1  UNL1       -0.3052
      3 C          -5.5607   -3.2184   -1.1246 C.3     1  UNL1        0.0003
      4 C          -4.6589   -2.0409   -1.4806 C.3     1  UNL1       -0.0216
      5 C          -4.0524   -1.5560   -0.1915 C.3     1  UNL1        0.0257
      6 N          -3.2123   -0.3975   -0.3623 N.am    1  UNL1       -0.3083
      7 C          -1.8444   -0.3556    0.0415 C.2     1  UNL1        0.2491
      8 O          -1.4418   -1.4278    0.5624 O.2     1  UNL1       -0.2700
      9 C          -0.9916    0.8078   -0.1285 C.ar    1  UNL1        0.0945
     10 C          -1.4804    1.9686   -0.7370 C.ar    1  UNL1        0.0466
     11 N          -0.7054    3.0474   -0.9084 N.ar    1  UNL1       -0.2218
     12 C           0.5656    3.1014   -0.5219 C.ar    1  UNL1        0.2212
     13 N           1.4326    4.2118   -0.6771 N.pl3   1  UNL1       -0.2835
     14 C           1.1091    5.4387   -1.2627 C.ar    1  UNL1        0.0363
     15 C           2.1300    6.3969   -1.3015 C.ar    1  UNL1       -0.0220
     16 C           1.8822    7.6114   -1.8584 C.ar    1  UNL1        0.0441
     17 CL          3.1914    8.7938   -1.8911 Cl      1  UNL1       -0.0834
     18 C           0.6437    7.9347   -2.3928 C.ar    1  UNL1       -0.0249
     19 C          -0.3404    6.9890   -2.3467 C.ar    1  UNL1        0.0441
     20 CL         -1.9169    7.3545   -3.0088 Cl      1  UNL1       -0.0834
     21 C          -0.1218    5.7261   -1.7805 C.ar    1  UNL1       -0.0220
     22 N           1.0281    1.9655    0.0685 N.ar    1  UNL1       -0.1987
     23 C           0.3154    0.8457    0.2761 C.ar    1  UNL1        0.1363
     24 N           0.9672   -0.2548    0.9291 N.pl3   1  UNL1       -0.3255
     25 C           2.3709   -0.1152    1.2965 C.3     1  UNL1        0.0221
     26 C           3.2926    0.0589    0.1441 C.3     1  UNL1       -0.0331
     27 C           3.8341   -1.2273   -0.4309 C.3     1  UNL1       -0.0357
     28 C           4.1100   -2.2781    0.5874 C.3     1  UNL1        0.0100
     29 N           5.2106   -3.1398    0.3003 N.3     1  UNL1       -0.3054
     30 C           5.3250   -4.0972    1.3926 C.3     1  UNL1       -0.0128
     31 C           6.4664   -2.4584    0.1542 C.3     1  UNL1       -0.0128
     32 C           4.1965   -1.5967    1.9390 C.3     1  UNL1       -0.0357
     33 C           2.7848   -1.1761    2.2890 C.3     1  UNL1       -0.0331
     34 C          -5.1909   -1.1697    0.7286 C.3     1  UNL1       -0.0216
     35 C          -6.1802   -2.2828    0.9197 C.3     1  UNL1        0.0003
     36 H          -7.5290   -4.6537   -0.9115 H       1  UNL1        0.0391
     37 H          -6.9850   -4.6017    0.7752 H       1  UNL1        0.0391
     38 H          -8.4798   -3.7504    0.3556 H       1  UNL1        0.0391
     39 H          -4.9955   -3.9522   -0.5424 H       1  UNL1        0.0427
     40 H          -5.9510   -3.6554   -2.0719 H       1  UNL1        0.0427
     41 H          -3.9114   -2.4485   -2.1898 H       1  UNL1        0.0295
     42 H          -5.2290   -1.2351   -1.9462 H       1  UNL1        0.0295
     43 H          -3.4622   -2.3459    0.2809 H       1  UNL1        0.0499
     44 H          -3.6177    0.4385   -0.7953 H       1  UNL1        0.1493
     45 H          -2.5137    1.9770   -1.0722 H       1  UNL1        0.0839
     46 H           2.4260    4.0756   -0.3025 H       1  UNL1        0.1550
     47 H           3.1055    6.1538   -0.8850 H       1  UNL1        0.0651
     48 H           0.5318    8.9236   -2.8167 H       1  UNL1        0.0647
     49 H          -0.9144    5.0111   -1.7625 H       1  UNL1        0.0651
     50 H           0.5064   -1.1329    1.1560 H       1  UNL1        0.1478
     51 H           2.4148    0.8555    1.8787 H       1  UNL1        0.0498
     52 H           2.7456    0.5481   -0.6870 H       1  UNL1        0.0284
     53 H           4.1436    0.7335    0.3967 H       1  UNL1        0.0284
     54 H           4.7934   -0.9740   -0.9370 H       1  UNL1        0.0281
     55 H           3.1579   -1.5907   -1.2557 H       1  UNL1        0.0281
     56 H           3.1942   -2.9316    0.6441 H       1  UNL1        0.0462
     57 H           5.6476   -5.0896    0.9937 H       1  UNL1        0.0391
     58 H           4.3075   -4.2834    1.8340 H       1  UNL1        0.0391
     59 H           5.9957   -3.7496    2.1885 H       1  UNL1        0.0391
     60 H           6.6981   -1.7785    0.9905 H       1  UNL1        0.0391
     61 H           6.5652   -1.9771   -0.8299 H       1  UNL1        0.0391
     62 H           7.2657   -3.2535    0.1915 H       1  UNL1        0.0391
     63 H           4.6612   -2.2317    2.7042 H       1  UNL1        0.0281
     64 H           4.7853   -0.6506    1.7732 H       1  UNL1        0.0281
     65 H           2.7591   -0.8264    3.3377 H       1  UNL1        0.0284
     66 H           2.1429   -2.0950    2.1537 H       1  UNL1        0.0284
     67 H          -5.6926   -0.2433    0.4548 H       1  UNL1        0.0295
     68 H          -4.7131   -1.0018    1.7385 H       1  UNL1        0.0295
     69 H          -7.0598   -1.8386    1.4576 H       1  UNL1        0.0427
     70 H          -5.7957   -3.0975    1.5638 H       1  UNL1        0.0427
@<TRIPOS>BOND
     1     1     2    1
     2     2     3    1
     3     3     4    1
     4     4     5    1
     5     5     6    1
     6     6     7   am
     7     7     8    2
     8     7     9    1
     9     9    10   ar
    10    10    11   ar
    11    11    12   ar
    12    12    13    1
    13    13    14    1
    14    14    15   ar
    15    15    16   ar
    16    16    17    1
    17    16    18   ar
    18    18    19   ar
    19    19    20    1
    20    19    21   ar
    21    12    22   ar
    22    22    23   ar
    23    23    24    1
    24    24    25    1
    25    25    26    1
    26    26    27    1
    27    27    28    1
    28    28    29    1
    29    29    30    1
    30    29    31    1
    31    28    32    1
    32    32    33    1
    33     5    34    1
    34    34    35    1
    35    35     2    1
    36    23     9   ar
    37    33    25    1
    38    21    14   ar
    39     1    36    1
    40     1    37    1
    41     1    38    1
    42     3    39    1
    43     3    40    1
    44     4    41    1
    45     4    42    1
    46     5    43    1
    47     6    44    1
    48    10    45    1
    49    13    46    1
    50    15    47    1
    51    18    48    1
    52    21    49    1
    53    24    50    1
    54    25    51    1
    55    26    52    1
    56    26    53    1
    57    27    54    1
    58    27    55    1
    59    28    56    1
    60    30    57    1
    61    30    58    1
    62    30    59    1
    63    31    60    1
    64    31    61    1
    65    31    62    1
    66    32    63    1
    67    32    64    1
    68    33    65    1
    69    33    66    1
    70    34    67    1
    71    34    68    1
    72    35    69    1
    73    35    70    1
