
     RDKit          3D

 70 73  0  0  0  0  0  0  0  0999 V2000
   -7.4649   -3.9874   -0.0254 C   0  0  0  0  0  0  0  0  0  0  0  0
   -6.6909   -2.8007   -0.3342 N   0  0  0  0  0  0  0  0  0  0  0  0
   -5.5607   -3.2184   -1.1246 C   0  0  0  0  0  0  0  0  0  0  0  0
   -4.6589   -2.0409   -1.4806 C   0  0  0  0  0  0  0  0  0  0  0  0
   -4.0524   -1.5560   -0.1915 C   0  0  0  0  0  0  0  0  0  0  0  0
   -3.2123   -0.3975   -0.3623 N   0  0  0  0  0  0  0  0  0  0  0  0
   -1.8444   -0.3556    0.0415 C   0  0  0  0  0  0  0  0  0  0  0  0
   -1.4418   -1.4278    0.5624 O   0  0  0  0  0  0  0  0  0  0  0  0
   -0.9916    0.8078   -0.1285 C   0  0  0  0  0  0  0  0  0  0  0  0
   -1.4804    1.9686   -0.7370 C   0  0  0  0  0  0  0  0  0  0  0  0
   -0.7054    3.0474   -0.9084 N   0  0  0  0  0  0  0  0  0  0  0  0
    0.5656    3.1014   -0.5219 C   0  0  0  0  0  0  0  0  0  0  0  0
    1.4326    4.2118   -0.6771 N   0  0  0  0  0  0  0  0  0  0  0  0
    1.1091    5.4387   -1.2627 C   0  0  0  0  0  0  0  0  0  0  0  0
    2.1300    6.3969   -1.3015 C   0  0  0  0  0  0  0  0  0  0  0  0
    1.8822    7.6114   -1.8584 C   0  0  0  0  0  0  0  0  0  0  0  0
    3.1914    8.7938   -1.8911 Cl  0  0  0  0  0  0  0  0  0  0  0  0
    0.6437    7.9347   -2.3928 C   0  0  0  0  0  0  0  0  0  0  0  0
   -0.3404    6.9890   -2.3467 C   0  0  0  0  0  0  0  0  0  0  0  0
   -1.9169    7.3545   -3.0088 Cl  0  0  0  0  0  0  0  0  0  0  0  0
   -0.1218    5.7261   -1.7805 C   0  0  0  0  0  0  0  0  0  0  0  0
    1.0281    1.9655    0.0685 N   0  0  0  0  0  0  0  0  0  0  0  0
    0.3154    0.8457    0.2761 C   0  0  0  0  0  0  0  0  0  0  0  0
    0.9672   -0.2548    0.9291 N   0  0  0  0  0  0  0  0  0  0  0  0
    2.3709   -0.1152    1.2965 C   0  0  0  0  0  0  0  0  0  0  0  0
    3.2926    0.0589    0.1441 C   0  0  0  0  0  0  0  0  0  0  0  0
    3.8341   -1.2273   -0.4309 C   0  0  0  0  0  0  0  0  0  0  0  0
    4.1100   -2.2781    0.5874 C   0  0  0  0  0  0  0  0  0  0  0  0
    5.2106   -3.1398    0.3003 N   0  0  0  0  0  0  0  0  0  0  0  0
    5.3250   -4.0972    1.3926 C   0  0  0  0  0  0  0  0  0  0  0  0
    6.4664   -2.4584    0.1542 C   0  0  0  0  0  0  0  0  0  0  0  0
    4.1965   -1.5967    1.9390 C   0  0  0  0  0  0  0  0  0  0  0  0
    2.7848   -1.1761    2.2890 C   0  0  0  0  0  0  0  0  0  0  0  0
   -5.1909   -1.1697    0.7286 C   0  0  0  0  0  0  0  0  0  0  0  0
   -6.1802   -2.2828    0.9197 C   0  0  0  0  0  0  0  0  0  0  0  0
   -7.5290   -4.6537   -0.9115 H   0  0  0  0  0  0  0  0  0  0  0  0
   -6.9850   -4.6017    0.7752 H   0  0  0  0  0  0  0  0  0  0  0  0
   -8.4798   -3.7504    0.3556 H   0  0  0  0  0  0  0  0  0  0  0  0
   -4.9955   -3.9522   -0.5424 H   0  0  0  0  0  0  0  0  0  0  0  0
   -5.9510   -3.6554   -2.0719 H   0  0  0  0  0  0  0  0  0  0  0  0
   -3.9114   -2.4485   -2.1898 H   0  0  0  0  0  0  0  0  0  0  0  0
   -5.2290   -1.2351   -1.9462 H   0  0  0  0  0  0  0  0  0  0  0  0
   -3.4622   -2.3459    0.2809 H   0  0  0  0  0  0  0  0  0  0  0  0
   -3.6177    0.4385   -0.7953 H   0  0  0  0  0  0  0  0  0  0  0  0
   -2.5137    1.9770   -1.0722 H   0  0  0  0  0  0  0  0  0  0  0  0
    2.4260    4.0756   -0.3025 H   0  0  0  0  0  0  0  0  0  0  0  0
    3.1055    6.1538   -0.8850 H   0  0  0  0  0  0  0  0  0  0  0  0
    0.5318    8.9236   -2.8167 H   0  0  0  0  0  0  0  0  0  0  0  0
   -0.9144    5.0111   -1.7625 H   0  0  0  0  0  0  0  0  0  0  0  0
    0.5064   -1.1329    1.1560 H   0  0  0  0  0  0  0  0  0  0  0  0
    2.4148    0.8555    1.8787 H   0  0  0  0  0  0  0  0  0  0  0  0
    2.7456    0.5481   -0.6870 H   0  0  0  0  0  0  0  0  0  0  0  0
    4.1436    0.7335    0.3967 H   0  0  0  0  0  0  0  0  0  0  0  0
    4.7934   -0.9740   -0.9370 H   0  0  0  0  0  0  0  0  0  0  0  0
    3.1579   -1.5907   -1.2557 H   0  0  0  0  0  0  0  0  0  0  0  0
    3.1942   -2.9316    0.6441 H   0  0  0  0  0  0  0  0  0  0  0  0
    5.6476   -5.0896    0.9937 H   0  0  0  0  0  0  0  0  0  0  0  0
    4.3075   -4.2834    1.8340 H   0  0  0  0  0  0  0  0  0  0  0  0
    5.9957   -3.7496    2.1885 H   0  0  0  0  0  0  0  0  0  0  0  0
    6.6981   -1.7785    0.9905 H   0  0  0  0  0  0  0  0  0  0  0  0
    6.5652   -1.9771   -0.8299 H   0  0  0  0  0  0  0  0  0  0  0  0
    7.2657   -3.2535    0.1915 H   0  0  0  0  0  0  0  0  0  0  0  0
    4.6612   -2.2317    2.7042 H   0  0  0  0  0  0  0  0  0  0  0  0
    4.7853   -0.6506    1.7732 H   0  0  0  0  0  0  0  0  0  0  0  0
    2.7591   -0.8264    3.3377 H   0  0  0  0  0  0  0  0  0  0  0  0
    2.1429   -2.0950    2.1537 H   0  0  0  0  0  0  0  0  0  0  0  0
   -5.6926   -0.2433    0.4548 H   0  0  0  0  0  0  0  0  0  0  0  0
   -4.7131   -1.0018    1.7385 H   0  0  0  0  0  0  0  0  0  0  0  0
   -7.0598   -1.8386    1.4576 H   0  0  0  0  0  0  0  0  0  0  0  0
   -5.7957   -3.0975    1.5638 H   0  0  0  0  0  0  0  0  0  0  0  0
  1  2  1  0
  2  3  1  0
  3  4  1  0
  4  5  1  0
  5  6  1  0
  6  7  1  0
  7  8  2  0
  7  9  1  0
  9 10  2  0
 10 11  1  0
 11 12  2  0
 12 13  1  0
 13 14  1  0
 14 15  2  0
 15 16  1  0
 16 17  1  0
 16 18  2  0
 18 19  1  0
 19 20  1  0
 19 21  2  0
 12 22  1  0
 22 23  2  0
 23 24  1  0
 24 25  1  0
 25 26  1  0
 26 27  1  0
 27 28  1  0
 28 29  1  0
 29 30  1  0
 29 31  1  0
 28 32  1  0
 32 33  1  0
  5 34  1  0
 34 35  1  0
 35  2  1  0
 23  9  1  0
 33 25  1  0
 21 14  1  0
  1 36  1  0
  1 37  1  0
  1 38  1  0
  3 39  1  0
  3 40  1  0
  4 41  1  0
  4 42  1  0
  5 43  1  0
  6 44  1  0
 10 45  1  0
 13 46  1  0
 15 47  1  0
 18 48  1  0
 21 49  1  0
 24 50  1  0
 25 51  1  0
 26 52  1  0
 26 53  1  0
 27 54  1  0
 27 55  1  0
 28 56  1  0
 30 57  1  0
 30 58  1  0
 30 59  1  0
 31 60  1  0
 31 61  1  0
 31 62  1  0
 32 63  1  0
 32 64  1  0
 33 65  1  0
 33 66  1  0
 34 67  1  0
 34 68  1  0
 35 69  1  0
 35 70  1  0
M  END
$$$$
