@<TRIPOS>MOLECULE
*****
 57 60 0 0 0
SMALL
GASTEIGER

@<TRIPOS>ATOM
      1 C          -3.6633    0.0023    0.4550 C.3     1  UNL1        0.0357
      2 C          -2.8231   -1.1811    0.0322 C.3     1  UNL1       -0.0085
      3 C          -1.3871   -1.0353    0.3527 C.ar    1  UNL1       -0.0192
      4 C          -0.6344   -1.9952    1.0403 C.ar    1  UNL1       -0.0519
      5 C           0.7057   -1.7969    1.3064 C.ar    1  UNL1       -0.0237
      6 C           1.5100   -2.8111    2.0356 C.3     1  UNL1       -0.0378
      7 C           1.3536   -0.6261    0.8950 C.ar    1  UNL1        0.1102
      8 C           0.6321    0.3291    0.2183 C.ar    1  UNL1       -0.0084
      9 C          -0.6951    0.1106   -0.0341 C.ar    1  UNL1        0.1103
     10 S          -1.7467    1.2477   -0.8890 S.O2    1  UNL1        0.0590
     11 O          -1.1671    2.6323   -0.9032 O.2     1  UNL1       -0.1530
     12 O          -1.8093    0.7776   -2.3139 O.2     1  UNL1       -0.1530
     13 N          -3.3016    1.2194   -0.1956 N.3     1  UNL1       -0.1863
     14 S           3.0426   -0.4213    1.2588 S.O2    1  UNL1        0.0612
     15 O           3.2420   -0.5800    2.7412 O.2     1  UNL1       -0.1528
     16 O           3.8039   -1.5469    0.6178 O.2     1  UNL1       -0.1528
     17 N           3.6935    1.0389    0.6779 N.3     1  UNL1       -0.1741
     18 C           3.6666    1.2272   -0.7245 C.3     1  UNL1        0.0333
     19 C           4.9660    1.2190   -1.4434 C.3     1  UNL1        0.0131
     20 N           6.0653    0.6018   -0.7928 N.3     1  UNL1       -0.3028
     21 C           7.3542    1.0640   -1.2577 C.3     1  UNL1       -0.0127
     22 C           5.9887    0.4569    0.6217 C.3     1  UNL1        0.0131
     23 C           4.9696    1.3810    1.2171 C.3     1  UNL1        0.0333
     24 C          -5.0949   -0.4066    0.2293 C.3     1  UNL1       -0.0237
     25 C          -6.0819    0.6482    0.5853 C.3     1  UNL1       -0.0487
     26 C          -7.3150    0.2082   -0.1975 C.3     1  UNL1       -0.0527
     27 C          -6.7727   -0.4246   -1.4519 C.3     1  UNL1       -0.0527
     28 C          -5.2974   -0.6371   -1.2436 C.3     1  UNL1       -0.0487
     29 H          -3.5259    0.1851    1.5595 H       1  UNL1        0.0483
     30 H          -2.9751   -1.3725   -1.0384 H       1  UNL1        0.0329
     31 H          -3.1909   -2.0453    0.6591 H       1  UNL1        0.0329
     32 H          -1.1475   -2.9105    1.3601 H       1  UNL1        0.0624
     33 H           1.8444   -2.4513    3.0227 H       1  UNL1        0.0278
     34 H           2.3246   -3.1961    1.3935 H       1  UNL1        0.0278
     35 H           0.8510   -3.6784    2.2430 H       1  UNL1        0.0278
     36 H           1.0660    1.2424   -0.1196 H       1  UNL1        0.0657
     37 H          -3.9902    1.6333   -0.8306 H       1  UNL1        0.1483
     38 H           3.0396    0.4008   -1.1682 H       1  UNL1        0.0456
     39 H           3.1121    2.1900   -0.9195 H       1  UNL1        0.0456
     40 H           5.2564    2.2956   -1.6293 H       1  UNL1        0.0439
     41 H           4.8760    0.8138   -2.4944 H       1  UNL1        0.0439
     42 H           7.9001    0.3053   -1.8475 H       1  UNL1        0.0391
     43 H           7.3095    1.9891   -1.8651 H       1  UNL1        0.0391
     44 H           7.9726    1.2725   -0.3535 H       1  UNL1        0.0391
     45 H           6.9848    0.8051    1.0257 H       1  UNL1        0.0439
     46 H           5.8972   -0.5808    0.9910 H       1  UNL1        0.0439
     47 H           5.2123    2.4083    0.8497 H       1  UNL1        0.0456
     48 H           5.0064    1.3573    2.3256 H       1  UNL1        0.0456
     49 H          -5.3124   -1.3163    0.8276 H       1  UNL1        0.0316
     50 H          -6.3418    0.5785    1.6586 H       1  UNL1        0.0268
     51 H          -5.7747    1.6729    0.3064 H       1  UNL1        0.0268
     52 H          -7.8438   -0.5798    0.3772 H       1  UNL1        0.0265
     53 H          -7.9749    1.0782   -0.4130 H       1  UNL1        0.0265
     54 H          -7.2240   -1.3955   -1.6811 H       1  UNL1        0.0265
     55 H          -6.8915    0.2582   -2.3406 H       1  UNL1        0.0265
     56 H          -4.9860   -1.6808   -1.4616 H       1  UNL1        0.0268
     57 H          -4.6785    0.0188   -1.8536 H       1  UNL1        0.0268
@<TRIPOS>BOND
     1     1     2    1
     2     2     3    1
     3     3     4   ar
     4     4     5   ar
     5     5     6    1
     6     5     7   ar
     7     7     8   ar
     8     8     9   ar
     9     9    10    1
    10    10    11    2
    11    10    12    2
    12    10    13    1
    13     7    14    1
    14    14    15    2
    15    14    16    2
    16    14    17    1
    17    17    18    1
    18    18    19    1
    19    19    20    1
    20    20    21    1
    21    20    22    1
    22    22    23    1
    23     1    24    1
    24    24    25    1
    25    25    26    1
    26    26    27    1
    27    27    28    1
    28    13     1    1
    29    23    17    1
    30    28    24    1
    31     9     3   ar
    32     1    29    1
    33     2    30    1
    34     2    31    1
    35     4    32    1
    36     6    33    1
    37     6    34    1
    38     6    35    1
    39     8    36    1
    40    13    37    1
    41    18    38    1
    42    18    39    1
    43    19    40    1
    44    19    41    1
    45    21    42    1
    46    21    43    1
    47    21    44    1
    48    22    45    1
    49    22    46    1
    50    23    47    1
    51    23    48    1
    52    24    49    1
    53    25    50    1
    54    25    51    1
    55    26    52    1
    56    26    53    1
    57    27    54    1
    58    27    55    1
    59    28    56    1
    60    28    57    1
