
     RDKit          3D

 57 60  0  0  0  0  0  0  0  0999 V2000
   -3.6633    0.0023    0.4550 C   0  0  1  0  0  0  0  0  0  0  0  0
   -2.8231   -1.1811    0.0322 C   0  0  0  0  0  0  0  0  0  0  0  0
   -1.3871   -1.0353    0.3527 C   0  0  0  0  0  0  0  0  0  0  0  0
   -0.6344   -1.9952    1.0403 C   0  0  0  0  0  0  0  0  0  0  0  0
    0.7057   -1.7969    1.3064 C   0  0  0  0  0  0  0  0  0  0  0  0
    1.5100   -2.8111    2.0356 C   0  0  0  0  0  0  0  0  0  0  0  0
    1.3536   -0.6261    0.8950 C   0  0  0  0  0  0  0  0  0  0  0  0
    0.6321    0.3291    0.2183 C   0  0  0  0  0  0  0  0  0  0  0  0
   -0.6951    0.1106   -0.0341 C   0  0  0  0  0  0  0  0  0  0  0  0
   -1.7467    1.2477   -0.8890 S   0  0  0  0  0  0  0  0  0  0  0  0
   -1.1671    2.6323   -0.9032 O   0  0  0  0  0  0  0  0  0  0  0  0
   -1.8093    0.7776   -2.3139 O   0  0  0  0  0  0  0  0  0  0  0  0
   -3.3016    1.2194   -0.1956 N   0  0  0  0  0  0  0  0  0  0  0  0
    3.0426   -0.4213    1.2588 S   0  0  0  0  0  0  0  0  0  0  0  0
    3.2420   -0.5800    2.7412 O   0  0  0  0  0  0  0  0  0  0  0  0
    3.8039   -1.5469    0.6178 O   0  0  0  0  0  0  0  0  0  0  0  0
    3.6935    1.0389    0.6779 N   0  0  0  0  0  0  0  0  0  0  0  0
    3.6666    1.2272   -0.7245 C   0  0  0  0  0  0  0  0  0  0  0  0
    4.9660    1.2190   -1.4434 C   0  0  0  0  0  0  0  0  0  0  0  0
    6.0653    0.6018   -0.7928 N   0  0  0  0  0  0  0  0  0  0  0  0
    7.3542    1.0640   -1.2577 C   0  0  0  0  0  0  0  0  0  0  0  0
    5.9887    0.4569    0.6217 C   0  0  0  0  0  0  0  0  0  0  0  0
    4.9696    1.3810    1.2171 C   0  0  0  0  0  0  0  0  0  0  0  0
   -5.0949   -0.4066    0.2293 C   0  0  0  0  0  0  0  0  0  0  0  0
   -6.0819    0.6482    0.5853 C   0  0  0  0  0  0  0  0  0  0  0  0
   -7.3150    0.2082   -0.1975 C   0  0  0  0  0  0  0  0  0  0  0  0
   -6.7727   -0.4246   -1.4519 C   0  0  0  0  0  0  0  0  0  0  0  0
   -5.2974   -0.6371   -1.2436 C   0  0  0  0  0  0  0  0  0  0  0  0
   -3.5259    0.1851    1.5595 H   0  0  0  0  0  0  0  0  0  0  0  0
   -2.9751   -1.3725   -1.0384 H   0  0  0  0  0  0  0  0  0  0  0  0
   -3.1909   -2.0453    0.6591 H   0  0  0  0  0  0  0  0  0  0  0  0
   -1.1475   -2.9105    1.3601 H   0  0  0  0  0  0  0  0  0  0  0  0
    1.8444   -2.4513    3.0227 H   0  0  0  0  0  0  0  0  0  0  0  0
    2.3246   -3.1961    1.3935 H   0  0  0  0  0  0  0  0  0  0  0  0
    0.8510   -3.6784    2.2430 H   0  0  0  0  0  0  0  0  0  0  0  0
    1.0660    1.2424   -0.1196 H   0  0  0  0  0  0  0  0  0  0  0  0
   -3.9902    1.6333   -0.8306 H   0  0  0  0  0  0  0  0  0  0  0  0
    3.0396    0.4008   -1.1682 H   0  0  0  0  0  0  0  0  0  0  0  0
    3.1121    2.1900   -0.9195 H   0  0  0  0  0  0  0  0  0  0  0  0
    5.2564    2.2956   -1.6293 H   0  0  0  0  0  0  0  0  0  0  0  0
    4.8760    0.8138   -2.4944 H   0  0  0  0  0  0  0  0  0  0  0  0
    7.9001    0.3053   -1.8475 H   0  0  0  0  0  0  0  0  0  0  0  0
    7.3095    1.9891   -1.8651 H   0  0  0  0  0  0  0  0  0  0  0  0
    7.9726    1.2725   -0.3535 H   0  0  0  0  0  0  0  0  0  0  0  0
    6.9848    0.8051    1.0257 H   0  0  0  0  0  0  0  0  0  0  0  0
    5.8972   -0.5808    0.9910 H   0  0  0  0  0  0  0  0  0  0  0  0
    5.2123    2.4083    0.8497 H   0  0  0  0  0  0  0  0  0  0  0  0
    5.0064    1.3573    2.3256 H   0  0  0  0  0  0  0  0  0  0  0  0
   -5.3124   -1.3163    0.8276 H   0  0  0  0  0  0  0  0  0  0  0  0
   -6.3418    0.5785    1.6586 H   0  0  0  0  0  0  0  0  0  0  0  0
   -5.7747    1.6729    0.3064 H   0  0  0  0  0  0  0  0  0  0  0  0
   -7.8438   -0.5798    0.3772 H   0  0  0  0  0  0  0  0  0  0  0  0
   -7.9749    1.0782   -0.4130 H   0  0  0  0  0  0  0  0  0  0  0  0
   -7.2240   -1.3955   -1.6811 H   0  0  0  0  0  0  0  0  0  0  0  0
   -6.8915    0.2582   -2.3406 H   0  0  0  0  0  0  0  0  0  0  0  0
   -4.9860   -1.6808   -1.4616 H   0  0  0  0  0  0  0  0  0  0  0  0
   -4.6785    0.0188   -1.8536 H   0  0  0  0  0  0  0  0  0  0  0  0
  1  2  1  0
  2  3  1  0
  3  4  2  0
  4  5  1  0
  5  6  1  0
  5  7  2  0
  7  8  1  0
  8  9  2  0
  9 10  1  0
 10 11  2  0
 10 12  2  0
 10 13  1  0
  7 14  1  0
 14 15  2  0
 14 16  2  0
 14 17  1  0
 17 18  1  0
 18 19  1  0
 19 20  1  0
 20 21  1  0
 20 22  1  0
 22 23  1  0
  1 24  1  0
 24 25  1  0
 25 26  1  0
 26 27  1  0
 27 28  1  0
 13  1  1  0
 23 17  1  0
 28 24  1  0
  9  3  1  0
  1 29  1  1
  2 30  1  0
  2 31  1  0
  4 32  1  0
  6 33  1  0
  6 34  1  0
  6 35  1  0
  8 36  1  0
 13 37  1  0
 18 38  1  0
 18 39  1  0
 19 40  1  0
 19 41  1  0
 21 42  1  0
 21 43  1  0
 21 44  1  0
 22 45  1  0
 22 46  1  0
 23 47  1  0
 23 48  1  0
 24 49  1  0
 25 50  1  0
 25 51  1  0
 26 52  1  0
 26 53  1  0
 27 54  1  0
 27 55  1  0
 28 56  1  0
 28 57  1  0
M  END
$$$$
