@<TRIPOS>MOLECULE
*****
 55 59 0 0 0
SMALL
GASTEIGER

@<TRIPOS>ATOM
      1 C           5.8068   -1.2551   -1.3702 C.3     1  UNL1       -0.0541
      2 C           5.7616   -0.0166   -0.4937 C.3     1  UNL1        0.0127
      3 C           6.3255    1.1367   -1.2879 C.3     1  UNL1       -0.0541
      4 C           6.5996   -0.3120    0.7233 C.3     1  UNL1       -0.0541
      5 C           4.3922    0.3352   -0.0909 C.ar    1  UNL1        0.1079
      6 N           3.7651    1.1973    0.5821 N.ar    1  UNL1       -0.1454
      7 N           2.4915    1.1797    0.7162 N.ar    1  UNL1       -0.1396
      8 C           1.7299    0.3668    0.2369 C.ar    1  UNL1        0.1524
      9 C           0.3067    0.0052    0.1846 C.ar    1  UNL1        0.1254
     10 N          -0.2010   -1.1516   -0.3225 N.ar    1  UNL1       -0.1633
     11 N          -1.5035   -1.1789   -0.1390 N.ar    1  UNL1       -0.2297
     12 C          -2.2901   -2.2744   -0.5713 C.ar    1  UNL1        0.0843
     13 C          -2.0029   -3.4982    0.0460 C.ar    1  UNL1       -0.0348
     14 C          -2.7283   -4.6018   -0.3264 C.ar    1  UNL1       -0.0597
     15 C          -3.7112   -4.4907   -1.2855 C.ar    1  UNL1       -0.0603
     16 C          -3.9810   -3.2770   -1.8835 C.ar    1  UNL1       -0.0413
     17 C          -3.2606   -2.1355   -1.5268 C.ar    1  UNL1        0.0663
     18 CL         -3.5908   -0.5947   -2.2822 Cl      1  UNL1       -0.0813
     19 C          -1.8975   -0.0400    0.4949 C.ar    1  UNL1        0.0803
     20 C          -3.2757    0.2216    0.8633 C.ar    1  UNL1        0.0009
     21 C          -3.9762   -0.7885    1.5516 C.ar    1  UNL1       -0.0515
     22 C          -5.2732   -0.6900    1.9405 C.ar    1  UNL1       -0.0471
     23 C          -5.9677    0.4714    1.6504 C.ar    1  UNL1        0.0179
     24 BR         -7.7982    0.6371    2.1916 Br      1  UNL1       -0.0503
     25 C          -5.3044    1.4693    0.9796 C.ar    1  UNL1       -0.0471
     26 C          -3.9715    1.3496    0.5876 C.ar    1  UNL1       -0.0515
     27 C          -0.7428    0.6918    0.6861 C.ar    1  UNL1        0.0296
     28 C          -0.7263    2.0058    1.3437 C.3     1  UNL1        0.0724
     29 N          -0.5756    3.1526    0.4974 N.ar    1  UNL1       -0.2475
     30 C           0.5537    3.7802    0.1688 C.ar    1  UNL1        0.1146
     31 N           0.3031    4.8276   -0.6669 N.ar    1  UNL1       -0.2228
     32 C          -1.0066    4.8476   -0.8572 C.ar    1  UNL1        0.1380
     33 N          -1.5195    3.8490   -0.1613 N.ar    1  UNL1       -0.1581
     34 S           2.9203   -0.7003   -0.6431 S.2     1  UNL1       -0.0484
     35 H           5.2433   -0.9926   -2.2936 H       1  UNL1        0.0239
     36 H           5.2653   -2.0845   -0.8813 H       1  UNL1        0.0239
     37 H           6.8669   -1.4789   -1.5715 H       1  UNL1        0.0239
     38 H           6.3357    2.0618   -0.6844 H       1  UNL1        0.0239
     39 H           7.3100    0.8666   -1.6800 H       1  UNL1        0.0239
     40 H           5.6527    1.2734   -2.1708 H       1  UNL1        0.0239
     41 H           6.9872    0.5921    1.2223 H       1  UNL1        0.0239
     42 H           7.5048   -0.8646    0.3495 H       1  UNL1        0.0239
     43 H           6.0649   -0.9940    1.3883 H       1  UNL1        0.0239
     44 H          -1.2217   -3.5702    0.8019 H       1  UNL1        0.0639
     45 H          -2.5415   -5.5853    0.1267 H       1  UNL1        0.0618
     46 H          -4.2792   -5.3870   -1.5690 H       1  UNL1        0.0618
     47 H          -4.7500   -3.1750   -2.6374 H       1  UNL1        0.0633
     48 H          -3.4247   -1.6829    1.7729 H       1  UNL1        0.0624
     49 H          -5.8157   -1.4584    2.4674 H       1  UNL1        0.0629
     50 H          -5.8289    2.3909    0.7392 H       1  UNL1        0.0629
     51 H          -3.4824    2.1388    0.0510 H       1  UNL1        0.0624
     52 H          -1.6767    2.1871    1.9228 H       1  UNL1        0.0560
     53 H           0.0743    2.0678    2.1246 H       1  UNL1        0.0560
     54 H           1.5658    3.5870    0.4757 H       1  UNL1        0.1044
     55 H          -1.5014    5.5883   -1.4907 H       1  UNL1        0.1065
@<TRIPOS>BOND
     1     1     2    1
     2     2     3    1
     3     2     4    1
     4     2     5    1
     5     5     6   ar
     6     6     7   ar
     7     7     8   ar
     8     8     9    1
     9     9    10   ar
    10    10    11   ar
    11    11    12    1
    12    12    13   ar
    13    13    14   ar
    14    14    15   ar
    15    15    16   ar
    16    16    17   ar
    17    17    18    1
    18    11    19   ar
    19    19    20    1
    20    20    21   ar
    21    21    22   ar
    22    22    23   ar
    23    23    24    1
    24    23    25   ar
    25    25    26   ar
    26    19    27   ar
    27    27    28    1
    28    28    29    1
    29    29    30   ar
    30    30    31   ar
    31    31    32   ar
    32    32    33   ar
    33     8    34   ar
    34    34     5   ar
    35    27     9   ar
    36    33    29   ar
    37    17    12   ar
    38    26    20   ar
    39     1    35    1
    40     1    36    1
    41     1    37    1
    42     3    38    1
    43     3    39    1
    44     3    40    1
    45     4    41    1
    46     4    42    1
    47     4    43    1
    48    13    44    1
    49    14    45    1
    50    15    46    1
    51    16    47    1
    52    21    48    1
    53    22    49    1
    54    25    50    1
    55    26    51    1
    56    28    52    1
    57    28    53    1
    58    30    54    1
    59    32    55    1
