@<TRIPOS>MOLECULE
*****
 75 78 0 0 0
SMALL
GASTEIGER

@<TRIPOS>ATOM
      1 C          -8.5759    3.9172    2.1833 C.3     1  UNL1        0.0790
      2 O          -8.1659    2.6827    2.6943 O.3     1  UNL1       -0.4915
      3 C          -7.3497    1.8520    1.9076 C.ar    1  UNL1        0.1615
      4 C          -6.9426    2.2207    0.6472 C.ar    1  UNL1       -0.0160
      5 C          -6.1323    1.3563   -0.0900 C.ar    1  UNL1       -0.0548
      6 C          -5.7847    0.1659    0.5026 C.ar    1  UNL1       -0.0422
      7 C          -4.9177   -0.7745   -0.2682 C.3     1  UNL1       -0.0119
      8 C          -3.4964   -0.4068    0.0611 C.3     1  UNL1        0.0158
      9 N          -2.5935   -1.2758   -0.6345 N.pl3   1  UNL1       -0.3131
     10 C          -1.1874   -1.1015   -0.5229 C.ar    1  UNL1        0.2169
     11 N          -0.6930   -0.0851    0.2010 N.ar    1  UNL1       -0.2221
     12 C           0.6575    0.0730    0.3042 C.ar    1  UNL1        0.0466
     13 C           1.5688   -0.7815   -0.3132 C.ar    1  UNL1        0.0945
     14 C           2.9859   -0.5627   -0.1631 C.2     1  UNL1        0.2489
     15 O           3.8521   -1.3096   -0.6980 O.2     1  UNL1       -0.2700
     16 N           3.4663    0.5285    0.6134 N.am    1  UNL1       -0.3112
     17 C           4.8853    0.7993    0.8043 C.3     1  UNL1        0.0133
     18 C           5.6181    1.0669   -0.4719 C.3     1  UNL1       -0.0215
     19 C           7.0716    1.3329   -0.2975 C.3     1  UNL1        0.0161
     20 N           7.4344    2.4450    0.5114 N.am    1  UNL1       -0.3014
     21 C           7.7177    2.4095    1.9304 C.3     1  UNL1        0.0151
     22 C           8.6242    3.6123    2.1774 C.3     1  UNL1       -0.0289
     23 C           8.2006    4.6254    1.1279 C.3     1  UNL1        0.0256
     24 C           7.6130    3.8018    0.0613 C.2     1  UNL1        0.2156
     25 O           7.3065    4.2063   -1.0832 O.2     1  UNL1       -0.2756
     26 C           1.0234   -1.8029   -1.0394 C.ar    1  UNL1        0.1362
     27 N           1.7811   -2.7466   -1.7123 N.pl3   1  UNL1       -0.3255
     28 C           1.1334   -3.8028   -2.4625 C.3     1  UNL1        0.0220
     29 C           0.2648   -4.6217   -1.5241 C.3     1  UNL1       -0.0345
     30 C          -1.0765   -4.7702   -2.1819 C.3     1  UNL1       -0.0513
     31 C          -0.8716   -4.2964   -3.6028 C.3     1  UNL1       -0.0513
     32 C           0.2426   -3.2874   -3.5616 C.3     1  UNL1       -0.0345
     33 N          -0.3284   -1.9133   -1.1090 N.ar    1  UNL1       -0.1990
     34 C          -6.1898   -0.2115    1.7678 C.ar    1  UNL1       -0.0131
     35 C          -6.9946    0.6563    2.4898 C.ar    1  UNL1        0.1617
     36 O          -7.4245    0.3273    3.7539 O.3     1  UNL1       -0.4914
     37 C          -7.0472   -0.9002    4.3271 C.3     1  UNL1        0.0790
     38 H          -7.7681    4.6861    2.2370 H       1  UNL1        0.0660
     39 H          -9.3950    4.3212    2.8390 H       1  UNL1        0.0660
     40 H          -8.9233    3.8358    1.1493 H       1  UNL1        0.0660
     41 H          -7.2379    3.1587    0.2284 H       1  UNL1        0.0655
     42 H          -5.8049    1.6301   -1.0785 H       1  UNL1        0.0621
     43 H          -5.1285   -0.6011   -1.3467 H       1  UNL1        0.0328
     44 H          -5.1293   -1.8354   -0.0353 H       1  UNL1        0.0328
     45 H          -3.2958    0.6413   -0.1622 H       1  UNL1        0.0465
     46 H          -3.3782   -0.5640    1.1612 H       1  UNL1        0.0465
     47 H          -2.9804   -2.0414   -1.2293 H       1  UNL1        0.1489
     48 H           0.9497    0.9220    0.9082 H       1  UNL1        0.0839
     49 H           2.7845    1.1545    1.0608 H       1  UNL1        0.1490
     50 H           5.3651    0.0074    1.4178 H       1  UNL1        0.0462
     51 H           4.9358    1.7353    1.3979 H       1  UNL1        0.0462
     52 H           5.5549    0.1752   -1.1656 H       1  UNL1        0.0295
     53 H           5.1219    1.8781   -1.0751 H       1  UNL1        0.0295
     54 H           7.5114    0.4126    0.1803 H       1  UNL1        0.0465
     55 H           7.5365    1.4282   -1.3076 H       1  UNL1        0.0465
     56 H           8.2986    1.4985    2.2227 H       1  UNL1        0.0465
     57 H           6.8095    2.5364    2.5140 H       1  UNL1        0.0465
     58 H           9.6772    3.3536    2.0342 H       1  UNL1        0.0285
     59 H           8.4242    4.0849    3.1593 H       1  UNL1        0.0285
     60 H           9.0728    5.2057    0.7806 H       1  UNL1        0.0359
     61 H           7.4807    5.3653    1.5316 H       1  UNL1        0.0359
     62 H           2.8005   -2.7550   -1.7194 H       1  UNL1        0.1478
     63 H           1.9099   -4.4507   -2.9191 H       1  UNL1        0.0498
     64 H           0.1597   -4.1481   -0.5347 H       1  UNL1        0.0283
     65 H           0.7656   -5.6235   -1.3799 H       1  UNL1        0.0283
     66 H          -1.8697   -4.1556   -1.7262 H       1  UNL1        0.0266
     67 H          -1.3361   -5.8612   -2.1536 H       1  UNL1        0.0266
     68 H          -1.8074   -3.8582   -4.0132 H       1  UNL1        0.0266
     69 H          -0.6023   -5.1505   -4.2505 H       1  UNL1        0.0266
     70 H           0.7630   -3.3365   -4.5427 H       1  UNL1        0.0283
     71 H          -0.0866   -2.2521   -3.4416 H       1  UNL1        0.0283
     72 H          -5.9138   -1.1479    2.2300 H       1  UNL1        0.0658
     73 H          -5.9862   -0.8574    4.6618 H       1  UNL1        0.0660
     74 H          -7.2545   -1.7350    3.6334 H       1  UNL1        0.0660
     75 H          -7.6988   -1.0860    5.2292 H       1  UNL1        0.0660
@<TRIPOS>BOND
     1     1     2    1
     2     2     3    1
     3     3     4   ar
     4     4     5   ar
     5     5     6   ar
     6     6     7    1
     7     7     8    1
     8     8     9    1
     9     9    10    1
    10    10    11   ar
    11    11    12   ar
    12    12    13   ar
    13    13    14    1
    14    14    15    2
    15    14    16   am
    16    16    17    1
    17    17    18    1
    18    18    19    1
    19    19    20    1
    20    20    21    1
    21    21    22    1
    22    22    23    1
    23    23    24    1
    24    24    25    2
    25    13    26   ar
    26    26    27    1
    27    27    28    1
    28    28    29    1
    29    29    30    1
    30    30    31    1
    31    31    32    1
    32    26    33   ar
    33     6    34   ar
    34    34    35   ar
    35    35    36    1
    36    36    37    1
    37    35     3   ar
    38    33    10   ar
    39    24    20   am
    40    32    28    1
    41     1    38    1
    42     1    39    1
    43     1    40    1
    44     4    41    1
    45     5    42    1
    46     7    43    1
    47     7    44    1
    48     8    45    1
    49     8    46    1
    50     9    47    1
    51    12    48    1
    52    16    49    1
    53    17    50    1
    54    17    51    1
    55    18    52    1
    56    18    53    1
    57    19    54    1
    58    19    55    1
    59    21    56    1
    60    21    57    1
    61    22    58    1
    62    22    59    1
    63    23    60    1
    64    23    61    1
    65    27    62    1
    66    28    63    1
    67    29    64    1
    68    29    65    1
    69    30    66    1
    70    30    67    1
    71    31    68    1
    72    31    69    1
    73    32    70    1
    74    32    71    1
    75    34    72    1
    76    37    73    1
    77    37    74    1
    78    37    75    1
