@<TRIPOS>MOLECULE
*****
 66 70 0 0 0
SMALL
GASTEIGER

@<TRIPOS>ATOM
      1 C          -5.2426    0.9650   -1.9869 C.3     1  UNL1       -0.0275
      2 C          -4.9302    0.7000   -0.4890 C.3     1  UNL1        0.1021
      3 O          -3.7055    0.2524   -0.3285 O.3     1  UNL1       -0.4880
      4 C          -2.8177   -0.6720    0.0233 C.ar    1  UNL1        0.1321
      5 C          -1.4265   -0.3854   -0.1112 C.ar    1  UNL1       -0.0114
      6 C          -0.4626   -1.2734    0.2245 C.ar    1  UNL1       -0.0123
      7 C           0.9622   -1.0010    0.0992 C.ar    1  UNL1       -0.0171
      8 C           1.4627    0.2578    0.2642 C.ar    1  UNL1       -0.0523
      9 C           2.8256    0.5171    0.1516 C.ar    1  UNL1       -0.0395
     10 C           3.7131   -0.5330   -0.1381 C.ar    1  UNL1        0.0415
     11 N           5.0664   -0.1977   -0.2115 N.pl3   1  UNL1       -0.3270
     12 C           5.8172   -0.2251   -1.4195 C.3     1  UNL1        0.0250
     13 C           6.7255    0.9855   -1.5676 C.3     1  UNL1        0.0144
     14 N           6.5830    1.8134   -0.4081 N.3     1  UNL1       -0.3024
     15 C           7.3859    3.0200   -0.4777 C.3     1  UNL1       -0.0126
     16 C           6.9429    1.0134    0.7612 C.3     1  UNL1        0.0144
     17 C           5.6933    0.2010    1.0655 C.3     1  UNL1        0.0250
     18 C           3.2298   -1.7842   -0.3049 C.ar    1  UNL1        0.0763
     19 C           4.1019   -2.9269   -0.6270 C.3     1  UNL1        0.4191
     20 F           3.3042   -4.0786   -0.6523 F       1  UNL1       -0.1658
     21 F           5.1834   -3.0440    0.1899 F       1  UNL1       -0.1658
     22 F           4.4538   -2.7737   -1.9795 F       1  UNL1       -0.1658
     23 C           1.8549   -2.0105   -0.1847 C.ar    1  UNL1       -0.0406
     24 C          -0.8746   -2.5118    0.7196 C.ar    1  UNL1       -0.0260
     25 C          -2.2084   -2.8120    0.8589 C.ar    1  UNL1        0.0968
     26 N          -2.8476   -3.9133    1.3058 N.ar    1  UNL1       -0.1713
     27 N          -4.1482   -3.7311    1.2553 N.ar    1  UNL1       -0.2732
     28 C          -5.1405   -4.7061    1.6598 C.3     1  UNL1        0.0302
     29 C          -4.4281   -2.4910    0.7688 C.ar    1  UNL1        0.0364
     30 C          -3.2002   -1.9138    0.5197 C.ar    1  UNL1        0.0614
     31 C          -5.2968    1.9440    0.3151 C.3     1  UNL1        0.0195
     32 C          -4.5650    3.1732   -0.0724 C.3     1  UNL1        0.0182
     33 N          -5.3987    4.2157    0.5528 N.am    1  UNL1       -0.3149
     34 C          -6.7044    3.7163    0.7708 C.2     1  UNL1        0.2135
     35 O          -7.6771    4.2639    1.3350 O.2     1  UNL1       -0.2758
     36 C          -6.7442    2.3299    0.1783 C.3     1  UNL1        0.0315
     37 H          -6.3173    1.0866   -2.0965 H       1  UNL1        0.0265
     38 H          -4.6415    1.8056   -2.3577 H       1  UNL1        0.0265
     39 H          -4.9071    0.0110   -2.4941 H       1  UNL1        0.0265
     40 H          -5.7442   -0.0292   -0.1971 H       1  UNL1        0.0733
     41 H          -1.1715    0.6011   -0.5042 H       1  UNL1        0.0660
     42 H           0.8334    1.1110    0.4885 H       1  UNL1        0.0624
     43 H           3.2137    1.5155    0.2840 H       1  UNL1        0.0636
     44 H           6.4459   -1.1602   -1.4939 H       1  UNL1        0.0476
     45 H           5.1399   -0.2346   -2.2891 H       1  UNL1        0.0476
     46 H           6.4963    1.5179   -2.5138 H       1  UNL1        0.0442
     47 H           7.7642    0.6069   -1.6501 H       1  UNL1        0.0442
     48 H           6.7298    3.8354   -0.8444 H       1  UNL1        0.0391
     49 H           7.6469    3.2824    0.5880 H       1  UNL1        0.0391
     50 H           8.2999    2.8988   -1.0800 H       1  UNL1        0.0391
     51 H           7.7497    0.2795    0.5211 H       1  UNL1        0.0442
     52 H           7.1800    1.6238    1.6471 H       1  UNL1        0.0442
     53 H           5.8872   -0.6507    1.7139 H       1  UNL1        0.0476
     54 H           4.9707    0.8718    1.5601 H       1  UNL1        0.0476
     55 H           1.4689   -3.0088   -0.3173 H       1  UNL1        0.0630
     56 H          -0.1037   -3.2085    0.9824 H       1  UNL1        0.0646
     57 H          -5.9998   -4.6933    0.9397 H       1  UNL1        0.0473
     58 H          -4.7021   -5.6970    1.7886 H       1  UNL1        0.0473
     59 H          -5.5192   -4.3846    2.6695 H       1  UNL1        0.0473
     60 H          -5.4038   -2.0670    0.6174 H       1  UNL1        0.0833
     61 H          -5.1129    1.7435    1.3887 H       1  UNL1        0.0356
     62 H          -3.5641    3.2585    0.4263 H       1  UNL1        0.0466
     63 H          -4.5195    3.3896   -1.1363 H       1  UNL1        0.0466
     64 H          -5.1156    5.1828    0.8119 H       1  UNL1        0.1487
     65 H          -7.0947    2.4712   -0.8485 H       1  UNL1        0.0363
     66 H          -7.3965    1.6575    0.7659 H       1  UNL1        0.0363
@<TRIPOS>BOND
     1     1     2    1
     2     2     3    1
     3     3     4    1
     4     4     5   ar
     5     5     6   ar
     6     6     7    1
     7     7     8   ar
     8     8     9   ar
     9     9    10   ar
    10    10    11    1
    11    11    12    1
    12    12    13    1
    13    13    14    1
    14    14    15    1
    15    14    16    1
    16    16    17    1
    17    10    18   ar
    18    18    19    1
    19    19    20    1
    20    19    21    1
    21    19    22    1
    22    18    23   ar
    23     6    24   ar
    24    24    25   ar
    25    25    26   ar
    26    26    27   ar
    27    27    28    1
    28    27    29   ar
    29    29    30   ar
    30     2    31    1
    31    31    32    1
    32    32    33    1
    33    33    34   am
    34    34    35    2
    35    34    36    1
    36    30     4   ar
    37    36    31    1
    38    23     7   ar
    39    30    25   ar
    40    17    11    1
    41     1    37    1
    42     1    38    1
    43     1    39    1
    44     2    40    1
    45     5    41    1
    46     8    42    1
    47     9    43    1
    48    12    44    1
    49    12    45    1
    50    13    46    1
    51    13    47    1
    52    15    48    1
    53    15    49    1
    54    15    50    1
    55    16    51    1
    56    16    52    1
    57    17    53    1
    58    17    54    1
    59    23    55    1
    60    24    56    1
    61    28    57    1
    62    28    58    1
    63    28    59    1
    64    29    60    1
    65    31    61    1
    66    32    62    1
    67    32    63    1
    68    33    64    1
    69    36    65    1
    70    36    66    1
