@<TRIPOS>MOLECULE
*****
 48 52 0 0 0
SMALL
GASTEIGER

@<TRIPOS>ATOM
      1 N          -3.8072   -2.2805    1.9950 N.1     1  UNL1       -0.1946
      2 C          -3.8517   -1.5819    1.0540 C.1     1  UNL1        0.0851
      3 C          -3.8910   -0.7265   -0.1306 C.3     1  UNL1        0.1135
      4 C          -3.8858   -1.5100   -1.4062 C.3     1  UNL1       -0.0164
      5 C          -3.4843   -0.4332   -2.4079 C.3     1  UNL1       -0.0180
      6 C          -2.0207   -0.2171   -2.6316 C.3     1  UNL1       -0.0294
      7 C          -2.6400    0.5790   -1.5793 C.3     1  UNL1        0.0306
      8 N          -2.7218    0.1098   -0.2373 N.am    1  UNL1       -0.2810
      9 C          -1.8528    0.4338    0.8313 C.2     1  UNL1        0.2342
     10 O          -2.0653   -0.0644    1.9990 O.2     1  UNL1       -0.2738
     11 C          -0.6999    1.3221    0.7191 C.3     1  UNL1        0.0883
     12 N          -0.6323    2.1087    1.9870 N.3     1  UNL1       -0.3195
     13 C           0.6384    0.6236    0.6252 C.3     1  UNL1       -0.0025
     14 C           0.7263   -0.2769   -0.5544 C.3     1  UNL1       -0.0425
     15 C           2.1266   -0.8576   -0.6977 C.3     1  UNL1       -0.0376
     16 C           3.0806    0.2658   -0.9770 C.3     1  UNL1       -0.0471
     17 C           3.0520    1.1804    0.2431 C.3     1  UNL1       -0.0376
     18 C           3.4282    0.4095    1.5057 C.3     1  UNL1       -0.0211
     19 C           2.3907   -0.6556    1.7290 C.3     1  UNL1        0.0672
     20 O           2.7451   -1.3457    2.8869 O.3     1  UNL1       -0.3885
     21 C           2.4787   -1.6185    0.5579 C.3     1  UNL1       -0.0211
     22 C           0.9997   -0.1117    1.8941 C.3     1  UNL1       -0.0164
     23 C           1.6755    1.7301    0.4581 C.3     1  UNL1       -0.0425
     24 H          -4.7598   -0.0288   -0.1035 H       1  UNL1        0.0659
     25 H          -3.0843   -2.2545   -1.3727 H       1  UNL1        0.0296
     26 H          -4.8774   -1.9395   -1.6537 H       1  UNL1        0.0296
     27 H          -4.2151   -0.0149   -3.0939 H       1  UNL1        0.0320
     28 H          -1.3200   -1.0236   -2.4141 H       1  UNL1        0.0286
     29 H          -1.8036    0.2608   -3.6315 H       1  UNL1        0.0286
     30 H          -2.9330    1.6563   -1.7779 H       1  UNL1        0.0504
     31 H          -0.7847    2.0558   -0.0865 H       1  UNL1        0.0560
     32 H          -0.1793    2.9996    1.7614 H       1  UNL1        0.1189
     33 H          -1.5582    2.1631    2.4305 H       1  UNL1        0.1189
     34 H           0.5357    0.3045   -1.4603 H       1  UNL1        0.0274
     35 H           0.0227   -1.1401   -0.4944 H       1  UNL1        0.0274
     36 H           2.0832   -1.5934   -1.5240 H       1  UNL1        0.0302
     37 H           4.1091   -0.0534   -1.1413 H       1  UNL1        0.0271
     38 H           2.6622    0.8651   -1.8138 H       1  UNL1        0.0271
     39 H           3.7375    2.0030    0.0414 H       1  UNL1        0.0302
     40 H           4.3810   -0.1045    1.2720 H       1  UNL1        0.0296
     41 H           3.5177    1.1316    2.3209 H       1  UNL1        0.0296
     42 H           2.9384   -2.2997    2.6982 H       1  UNL1        0.2102
     43 H           3.5404   -1.9458    0.4926 H       1  UNL1        0.0296
     44 H           1.8246   -2.4838    0.6603 H       1  UNL1        0.0296
     45 H           0.3231   -0.9631    2.0537 H       1  UNL1        0.0299
     46 H           1.0166    0.6039    2.7327 H       1  UNL1        0.0299
     47 H           1.3219    2.3841   -0.3436 H       1  UNL1        0.0274
     48 H           1.7121    2.3341    1.3997 H       1  UNL1        0.0274
@<TRIPOS>BOND
     1     1     2    3
     2     2     3    1
     3     3     4    1
     4     4     5    1
     5     5     6    1
     6     6     7    1
     7     7     8    1
     8     8     9   am
     9     9    10    2
    10     9    11    1
    11    11    12    1
    12    11    13    1
    13    13    14    1
    14    14    15    1
    15    15    16    1
    16    16    17    1
    17    17    18    1
    18    18    19    1
    19    19    20    1
    20    19    21    1
    21    19    22    1
    22    17    23    1
    23     8     3    1
    24    22    13    1
    25     7     5    1
    26    23    13    1
    27    21    15    1
    28     3    24    1
    29     4    25    1
    30     4    26    1
    31     5    27    1
    32     6    28    1
    33     6    29    1
    34     7    30    1
    35    11    31    1
    36    12    32    1
    37    12    33    1
    38    14    34    1
    39    14    35    1
    40    15    36    1
    41    16    37    1
    42    16    38    1
    43    17    39    1
    44    18    40    1
    45    18    41    1
    46    20    42    1
    47    21    43    1
    48    21    44    1
    49    22    45    1
    50    22    46    1
    51    23    47    1
    52    23    48    1
