
     RDKit          3D

 48 52  0  0  0  0  0  0  0  0999 V2000
   -3.8072   -2.2805    1.9950 N   0  0  0  0  0  0  0  0  0  0  0  0
   -3.8517   -1.5819    1.0540 C   0  0  0  0  0  0  0  0  0  0  0  0
   -3.8910   -0.7265   -0.1306 C   0  0  2  0  0  0  0  0  0  0  0  0
   -3.8858   -1.5100   -1.4062 C   0  0  0  0  0  0  0  0  0  0  0  0
   -3.4843   -0.4332   -2.4079 C   0  0  2  0  0  0  0  0  0  0  0  0
   -2.0207   -0.2171   -2.6316 C   0  0  0  0  0  0  0  0  0  0  0  0
   -2.6400    0.5790   -1.5793 C   0  0  2  0  0  0  0  0  0  0  0  0
   -2.7218    0.1098   -0.2373 N   0  0  0  0  0  0  0  0  0  0  0  0
   -1.8528    0.4338    0.8313 C   0  0  0  0  0  0  0  0  0  0  0  0
   -2.0653   -0.0644    1.9990 O   0  0  0  0  0  0  0  0  0  0  0  0
   -0.6999    1.3221    0.7191 C   0  0  1  0  0  0  0  0  0  0  0  0
   -0.6323    2.1087    1.9870 N   0  0  0  0  0  0  0  0  0  0  0  0
    0.6384    0.6236    0.6252 C   0  0  0  0  0  0  0  0  0  0  0  0
    0.7263   -0.2769   -0.5544 C   0  0  0  0  0  0  0  0  0  0  0  0
    2.1266   -0.8576   -0.6977 C   0  0  0  0  0  0  0  0  0  0  0  0
    3.0806    0.2658   -0.9770 C   0  0  0  0  0  0  0  0  0  0  0  0
    3.0520    1.1804    0.2431 C   0  0  0  0  0  0  0  0  0  0  0  0
    3.4282    0.4095    1.5057 C   0  0  0  0  0  0  0  0  0  0  0  0
    2.3907   -0.6556    1.7290 C   0  0  0  0  0  0  0  0  0  0  0  0
    2.7451   -1.3457    2.8869 O   0  0  0  0  0  0  0  0  0  0  0  0
    2.4787   -1.6185    0.5579 C   0  0  0  0  0  0  0  0  0  0  0  0
    0.9997   -0.1117    1.8941 C   0  0  0  0  0  0  0  0  0  0  0  0
    1.6755    1.7301    0.4581 C   0  0  0  0  0  0  0  0  0  0  0  0
   -4.7598   -0.0288   -0.1035 H   0  0  0  0  0  0  0  0  0  0  0  0
   -3.0843   -2.2545   -1.3727 H   0  0  0  0  0  0  0  0  0  0  0  0
   -4.8774   -1.9395   -1.6537 H   0  0  0  0  0  0  0  0  0  0  0  0
   -4.2151   -0.0149   -3.0939 H   0  0  0  0  0  0  0  0  0  0  0  0
   -1.3200   -1.0236   -2.4141 H   0  0  0  0  0  0  0  0  0  0  0  0
   -1.8036    0.2608   -3.6315 H   0  0  0  0  0  0  0  0  0  0  0  0
   -2.9330    1.6563   -1.7779 H   0  0  0  0  0  0  0  0  0  0  0  0
   -0.7847    2.0558   -0.0865 H   0  0  0  0  0  0  0  0  0  0  0  0
   -0.1793    2.9996    1.7614 H   0  0  0  0  0  0  0  0  0  0  0  0
   -1.5582    2.1631    2.4305 H   0  0  0  0  0  0  0  0  0  0  0  0
    0.5357    0.3045   -1.4603 H   0  0  0  0  0  0  0  0  0  0  0  0
    0.0227   -1.1401   -0.4944 H   0  0  0  0  0  0  0  0  0  0  0  0
    2.0832   -1.5934   -1.5240 H   0  0  0  0  0  0  0  0  0  0  0  0
    4.1091   -0.0534   -1.1413 H   0  0  0  0  0  0  0  0  0  0  0  0
    2.6622    0.8651   -1.8138 H   0  0  0  0  0  0  0  0  0  0  0  0
    3.7375    2.0030    0.0414 H   0  0  0  0  0  0  0  0  0  0  0  0
    4.3810   -0.1045    1.2720 H   0  0  0  0  0  0  0  0  0  0  0  0
    3.5177    1.1316    2.3209 H   0  0  0  0  0  0  0  0  0  0  0  0
    2.9384   -2.2997    2.6982 H   0  0  0  0  0  0  0  0  0  0  0  0
    3.5404   -1.9458    0.4926 H   0  0  0  0  0  0  0  0  0  0  0  0
    1.8246   -2.4838    0.6603 H   0  0  0  0  0  0  0  0  0  0  0  0
    0.3231   -0.9631    2.0537 H   0  0  0  0  0  0  0  0  0  0  0  0
    1.0166    0.6039    2.7327 H   0  0  0  0  0  0  0  0  0  0  0  0
    1.3219    2.3841   -0.3436 H   0  0  0  0  0  0  0  0  0  0  0  0
    1.7121    2.3341    1.3997 H   0  0  0  0  0  0  0  0  0  0  0  0
  1  2  3  0
  2  3  1  0
  3  4  1  0
  4  5  1  0
  5  6  1  0
  6  7  1  0
  7  8  1  0
  8  9  1  0
  9 10  2  0
  9 11  1  0
 11 12  1  0
 11 13  1  0
 13 14  1  0
 14 15  1  0
 15 16  1  0
 16 17  1  0
 17 18  1  0
 18 19  1  0
 19 20  1  0
 19 21  1  0
 19 22  1  0
 17 23  1  0
  8  3  1  0
 22 13  1  0
  7  5  1  0
 23 13  1  0
 21 15  1  0
  3 24  1  1
  4 25  1  0
  4 26  1  0
  5 27  1  6
  6 28  1  0
  6 29  1  0
  7 30  1  1
 11 31  1  6
 12 32  1  0
 12 33  1  0
 14 34  1  0
 14 35  1  0
 15 36  1  0
 16 37  1  0
 16 38  1  0
 17 39  1  0
 18 40  1  0
 18 41  1  0
 20 42  1  0
 21 43  1  0
 21 44  1  0
 22 45  1  0
 22 46  1  0
 23 47  1  0
 23 48  1  0
M  END
$$$$
