@<TRIPOS>MOLECULE
*****
 64 67 0 0 0
SMALL
GASTEIGER

@<TRIPOS>ATOM
      1 C           7.3674    1.9120   -0.1687 C.3     1  UNL1        0.0124
      2 C           6.2444    1.8981    0.8043 C.2     1  UNL1        0.2125
      3 O           6.3483    2.5750    1.8623 O.2     1  UNL1       -0.2759
      4 N           5.0651    1.1471    0.5756 N.am    1  UNL1       -0.2993
      5 C           3.9615    1.1146    1.5007 C.3     1  UNL1        0.0275
      6 C           2.6860    1.4887    0.7938 C.3     1  UNL1        0.0148
      7 N           2.6004    0.9509   -0.5020 N.3     1  UNL1       -0.2994
      8 C           1.3042    0.8604   -1.0795 C.3     1  UNL1       -0.0009
      9 C           0.4013   -0.1403   -0.4256 C.3     1  UNL1       -0.0379
     10 C          -0.9345   -0.1539   -1.0978 C.3     1  UNL1       -0.0238
     11 C          -1.9041   -1.1455   -0.4944 C.3     1  UNL1        0.0903
     12 C          -1.4345   -2.5215   -0.5534 C.ar    1  UNL1       -0.0217
     13 C          -0.8828   -2.9676   -1.7355 C.ar    1  UNL1       -0.0565
     14 C          -0.4042   -4.2468   -1.8957 C.ar    1  UNL1       -0.0614
     15 C          -0.4551   -5.1598   -0.8617 C.ar    1  UNL1       -0.0617
     16 C          -1.0043   -4.7223    0.3215 C.ar    1  UNL1       -0.0614
     17 C          -1.4849   -3.4368    0.4814 C.ar    1  UNL1       -0.0565
     18 C          -2.2838   -0.7086    0.9311 C.3     1  UNL1        0.0194
     19 C          -3.1020    0.4910    0.5966 C.2     1  UNL1        0.0719
     20 C          -3.3553    1.6990    1.3648 C.ar    1  UNL1        0.0357
     21 C          -2.8718    2.9441    0.9940 C.ar    1  UNL1       -0.0148
     22 C          -3.1280    4.0770    1.7413 C.ar    1  UNL1        0.1242
     23 F          -2.6506    5.2879    1.3704 F       1  UNL1       -0.2055
     24 C          -3.8804    4.0150    2.8945 C.ar    1  UNL1       -0.0237
     25 C          -4.3662    2.7758    3.2707 C.ar    1  UNL1       -0.0231
     26 C          -4.1081    1.6282    2.5160 C.ar    1  UNL1        0.1324
     27 F          -4.5839    0.4145    2.8827 F       1  UNL1       -0.2048
     28 N          -3.6089    0.3085   -0.5765 N.2     1  UNL1       -0.1805
     29 N          -3.2032   -0.9449   -1.0993 N.am    1  UNL1       -0.1822
     30 C          -3.9401   -1.7452   -1.9886 C.2     1  UNL1        0.2325
     31 C          -5.2725   -1.2968   -2.4744 C.3     1  UNL1        0.0140
     32 O          -3.5176   -2.8462   -2.4027 O.2     1  UNL1       -0.2741
     33 C           3.5076   -0.0880   -0.8411 C.3     1  UNL1        0.0148
     34 C           4.9546    0.3693   -0.6470 C.3     1  UNL1        0.0275
     35 H           6.9867    2.1131   -1.2034 H       1  UNL1        0.0323
     36 H           7.8587    0.9054   -0.1913 H       1  UNL1        0.0323
     37 H           8.0971    2.7109    0.0543 H       1  UNL1        0.0323
     38 H           3.8907    0.1033    1.9747 H       1  UNL1        0.0477
     39 H           4.2124    1.8282    2.3158 H       1  UNL1        0.0477
     40 H           2.6825    2.6118    0.7278 H       1  UNL1        0.0442
     41 H           1.8526    1.2311    1.4776 H       1  UNL1        0.0442
     42 H           0.8422    1.8832   -1.0662 H       1  UNL1        0.0427
     43 H           1.4112    0.5648   -2.1436 H       1  UNL1        0.0427
     44 H           0.2702    0.1892    0.6429 H       1  UNL1        0.0278
     45 H           0.9121   -1.1003   -0.4116 H       1  UNL1        0.0278
     46 H          -1.4191    0.8512   -0.9715 H       1  UNL1        0.0290
     47 H          -0.8878   -0.3447   -2.1760 H       1  UNL1        0.0290
     48 H          -0.8054   -2.3200   -2.5957 H       1  UNL1        0.0621
     49 H           0.0281   -4.5663   -2.8522 H       1  UNL1        0.0618
     50 H          -0.0760   -6.1669   -0.9955 H       1  UNL1        0.0618
     51 H          -1.0439   -5.4420    1.1361 H       1  UNL1        0.0618
     52 H          -1.8998   -3.1427    1.4174 H       1  UNL1        0.0621
     53 H          -1.4286   -0.5135    1.5628 H       1  UNL1        0.0354
     54 H          -3.0012   -1.4684    1.2981 H       1  UNL1        0.0354
     55 H          -2.2845    2.9741    0.0904 H       1  UNL1        0.0653
     56 H          -4.1025    4.8880    3.5093 H       1  UNL1        0.0647
     57 H          -4.9671    2.6911    4.1799 H       1  UNL1        0.0647
     58 H          -5.8766   -2.1111   -2.8649 H       1  UNL1        0.0323
     59 H          -5.7996   -0.8998   -1.5635 H       1  UNL1        0.0323
     60 H          -5.1901   -0.4177   -3.1471 H       1  UNL1        0.0323
     61 H           3.3804   -1.0314   -0.2946 H       1  UNL1        0.0442
     62 H           3.4028   -0.3132   -1.9263 H       1  UNL1        0.0442
     63 H           5.5954   -0.5240   -0.5212 H       1  UNL1        0.0477
     64 H           5.2954    0.9837   -1.5201 H       1  UNL1        0.0477
@<TRIPOS>BOND
     1     1     2    1
     2     2     3    2
     3     2     4   am
     4     4     5    1
     5     5     6    1
     6     6     7    1
     7     7     8    1
     8     8     9    1
     9     9    10    1
    10    11    10    1
    11    11    12    1
    12    12    13   ar
    13    13    14   ar
    14    14    15   ar
    15    15    16   ar
    16    16    17   ar
    17    11    18    1
    18    18    19    1
    19    19    20    1
    20    20    21   ar
    21    21    22   ar
    22    22    23    1
    23    22    24   ar
    24    24    25   ar
    25    25    26   ar
    26    26    27    1
    27    19    28    2
    28    28    29    1
    29    29    30   am
    30    30    31    1
    31    30    32    2
    32     7    33    1
    33    33    34    1
    34    34     4    1
    35    29    11    1
    36    17    12   ar
    37    26    20   ar
    38     1    35    1
    39     1    36    1
    40     1    37    1
    41     5    38    1
    42     5    39    1
    43     6    40    1
    44     6    41    1
    45     8    42    1
    46     8    43    1
    47     9    44    1
    48     9    45    1
    49    10    46    1
    50    10    47    1
    51    13    48    1
    52    14    49    1
    53    15    50    1
    54    16    51    1
    55    17    52    1
    56    18    53    1
    57    18    54    1
    58    21    55    1
    59    24    56    1
    60    25    57    1
    61    31    58    1
    62    31    59    1
    63    31    60    1
    64    33    61    1
    65    33    62    1
    66    34    63    1
    67    34    64    1
