
     RDKit          3D

 64 67  0  0  0  0  0  0  0  0999 V2000
    7.3674    1.9120   -0.1687 C   0  0  0  0  0  0  0  0  0  0  0  0
    6.2444    1.8981    0.8043 C   0  0  0  0  0  0  0  0  0  0  0  0
    6.3483    2.5750    1.8623 O   0  0  0  0  0  0  0  0  0  0  0  0
    5.0651    1.1471    0.5756 N   0  0  0  0  0  0  0  0  0  0  0  0
    3.9615    1.1146    1.5007 C   0  0  0  0  0  0  0  0  0  0  0  0
    2.6860    1.4887    0.7938 C   0  0  0  0  0  0  0  0  0  0  0  0
    2.6004    0.9509   -0.5020 N   0  0  0  0  0  0  0  0  0  0  0  0
    1.3042    0.8604   -1.0795 C   0  0  0  0  0  0  0  0  0  0  0  0
    0.4013   -0.1403   -0.4256 C   0  0  0  0  0  0  0  0  0  0  0  0
   -0.9345   -0.1539   -1.0978 C   0  0  0  0  0  0  0  0  0  0  0  0
   -1.9041   -1.1455   -0.4944 C   0  0  1  0  0  0  0  0  0  0  0  0
   -1.4345   -2.5215   -0.5534 C   0  0  0  0  0  0  0  0  0  0  0  0
   -0.8828   -2.9676   -1.7355 C   0  0  0  0  0  0  0  0  0  0  0  0
   -0.4042   -4.2468   -1.8957 C   0  0  0  0  0  0  0  0  0  0  0  0
   -0.4551   -5.1598   -0.8617 C   0  0  0  0  0  0  0  0  0  0  0  0
   -1.0043   -4.7223    0.3215 C   0  0  0  0  0  0  0  0  0  0  0  0
   -1.4849   -3.4368    0.4814 C   0  0  0  0  0  0  0  0  0  0  0  0
   -2.2838   -0.7086    0.9311 C   0  0  0  0  0  0  0  0  0  0  0  0
   -3.1020    0.4910    0.5966 C   0  0  0  0  0  0  0  0  0  0  0  0
   -3.3553    1.6990    1.3648 C   0  0  0  0  0  0  0  0  0  0  0  0
   -2.8718    2.9441    0.9940 C   0  0  0  0  0  0  0  0  0  0  0  0
   -3.1280    4.0770    1.7413 C   0  0  0  0  0  0  0  0  0  0  0  0
   -2.6506    5.2879    1.3704 F   0  0  0  0  0  0  0  0  0  0  0  0
   -3.8804    4.0150    2.8945 C   0  0  0  0  0  0  0  0  0  0  0  0
   -4.3662    2.7758    3.2707 C   0  0  0  0  0  0  0  0  0  0  0  0
   -4.1081    1.6282    2.5160 C   0  0  0  0  0  0  0  0  0  0  0  0
   -4.5839    0.4145    2.8827 F   0  0  0  0  0  0  0  0  0  0  0  0
   -3.6089    0.3085   -0.5765 N   0  0  0  0  0  0  0  0  0  0  0  0
   -3.2032   -0.9449   -1.0993 N   0  0  0  0  0  0  0  0  0  0  0  0
   -3.9401   -1.7452   -1.9886 C   0  0  0  0  0  0  0  0  0  0  0  0
   -5.2725   -1.2968   -2.4744 C   0  0  0  0  0  0  0  0  0  0  0  0
   -3.5176   -2.8462   -2.4027 O   0  0  0  0  0  0  0  0  0  0  0  0
    3.5076   -0.0880   -0.8411 C   0  0  0  0  0  0  0  0  0  0  0  0
    4.9546    0.3693   -0.6470 C   0  0  0  0  0  0  0  0  0  0  0  0
    6.9867    2.1131   -1.2034 H   0  0  0  0  0  0  0  0  0  0  0  0
    7.8587    0.9054   -0.1913 H   0  0  0  0  0  0  0  0  0  0  0  0
    8.0971    2.7109    0.0543 H   0  0  0  0  0  0  0  0  0  0  0  0
    3.8907    0.1033    1.9747 H   0  0  0  0  0  0  0  0  0  0  0  0
    4.2124    1.8282    2.3158 H   0  0  0  0  0  0  0  0  0  0  0  0
    2.6825    2.6118    0.7278 H   0  0  0  0  0  0  0  0  0  0  0  0
    1.8526    1.2311    1.4776 H   0  0  0  0  0  0  0  0  0  0  0  0
    0.8422    1.8832   -1.0662 H   0  0  0  0  0  0  0  0  0  0  0  0
    1.4112    0.5648   -2.1436 H   0  0  0  0  0  0  0  0  0  0  0  0
    0.2702    0.1892    0.6429 H   0  0  0  0  0  0  0  0  0  0  0  0
    0.9121   -1.1003   -0.4116 H   0  0  0  0  0  0  0  0  0  0  0  0
   -1.4191    0.8512   -0.9715 H   0  0  0  0  0  0  0  0  0  0  0  0
   -0.8878   -0.3447   -2.1760 H   0  0  0  0  0  0  0  0  0  0  0  0
   -0.8054   -2.3200   -2.5957 H   0  0  0  0  0  0  0  0  0  0  0  0
    0.0281   -4.5663   -2.8522 H   0  0  0  0  0  0  0  0  0  0  0  0
   -0.0760   -6.1669   -0.9955 H   0  0  0  0  0  0  0  0  0  0  0  0
   -1.0439   -5.4420    1.1361 H   0  0  0  0  0  0  0  0  0  0  0  0
   -1.8998   -3.1427    1.4174 H   0  0  0  0  0  0  0  0  0  0  0  0
   -1.4286   -0.5135    1.5628 H   0  0  0  0  0  0  0  0  0  0  0  0
   -3.0012   -1.4684    1.2981 H   0  0  0  0  0  0  0  0  0  0  0  0
   -2.2845    2.9741    0.0904 H   0  0  0  0  0  0  0  0  0  0  0  0
   -4.1025    4.8880    3.5093 H   0  0  0  0  0  0  0  0  0  0  0  0
   -4.9671    2.6911    4.1799 H   0  0  0  0  0  0  0  0  0  0  0  0
   -5.8766   -2.1111   -2.8649 H   0  0  0  0  0  0  0  0  0  0  0  0
   -5.7996   -0.8998   -1.5635 H   0  0  0  0  0  0  0  0  0  0  0  0
   -5.1901   -0.4177   -3.1471 H   0  0  0  0  0  0  0  0  0  0  0  0
    3.3804   -1.0314   -0.2946 H   0  0  0  0  0  0  0  0  0  0  0  0
    3.4028   -0.3132   -1.9263 H   0  0  0  0  0  0  0  0  0  0  0  0
    5.5954   -0.5240   -0.5212 H   0  0  0  0  0  0  0  0  0  0  0  0
    5.2954    0.9837   -1.5201 H   0  0  0  0  0  0  0  0  0  0  0  0
  1  2  1  0
  2  3  2  0
  2  4  1  0
  4  5  1  0
  5  6  1  0
  6  7  1  0
  7  8  1  0
  8  9  1  0
  9 10  1  0
 11 10  1  6
 11 12  1  0
 12 13  2  0
 13 14  1  0
 14 15  2  0
 15 16  1  0
 16 17  2  0
 11 18  1  0
 18 19  1  0
 19 20  1  0
 20 21  2  0
 21 22  1  0
 22 23  1  0
 22 24  2  0
 24 25  1  0
 25 26  2  0
 26 27  1  0
 19 28  2  0
 28 29  1  0
 29 30  1  0
 30 31  1  0
 30 32  2  0
  7 33  1  0
 33 34  1  0
 34  4  1  0
 29 11  1  0
 17 12  1  0
 26 20  1  0
  1 35  1  0
  1 36  1  0
  1 37  1  0
  5 38  1  0
  5 39  1  0
  6 40  1  0
  6 41  1  0
  8 42  1  0
  8 43  1  0
  9 44  1  0
  9 45  1  0
 10 46  1  0
 10 47  1  0
 13 48  1  0
 14 49  1  0
 15 50  1  0
 16 51  1  0
 17 52  1  0
 18 53  1  0
 18 54  1  0
 21 55  1  0
 24 56  1  0
 25 57  1  0
 31 58  1  0
 31 59  1  0
 31 60  1  0
 33 61  1  0
 33 62  1  0
 34 63  1  0
 34 64  1  0
M  END
$$$$
