@<TRIPOS>MOLECULE
*****
 57 60 0 0 0
SMALL
GASTEIGER

@<TRIPOS>ATOM
      1 C           0.7372   -0.5609    0.6661 C.3     1  UNL1       -0.0276
      2 C           1.7630   -0.5682    1.7137 C.3     1  UNL1       -0.0437
      3 C           2.9340   -1.1093    0.8682 C.3     1  UNL1       -0.0071
      4 C           2.5936   -2.5400    0.5462 C.3     1  UNL1       -0.0594
      5 C           2.7879   -0.3117   -0.4422 C.3     1  UNL1        0.1340
      6 O           3.0910   -1.1299   -1.5307 O.3     1  UNL1       -0.3802
      7 C           3.7775    0.7908   -0.4269 C.2     1  UNL1        0.1904
      8 O           4.5244    0.6069   -1.3992 O.2     1  UNL1       -0.2919
      9 C           4.7637    1.8902   -0.4110 C.3     1  UNL1        0.1052
     10 O           5.6380    1.7620   -1.4846 O.3     1  UNL1       -0.3874
     11 C           1.3851    0.1799   -0.4797 C.3     1  UNL1        0.0094
     12 C           1.3273    1.6768   -0.3473 C.3     1  UNL1       -0.0562
     13 C           0.6182   -0.2233   -1.7056 C.3     1  UNL1       -0.0178
     14 C          -0.8482   -0.2422   -1.5682 C.3     1  UNL1        0.0600
     15 O          -1.3183    0.9643   -2.1411 O.3     1  UNL1       -0.3914
     16 C          -1.4468   -0.3349   -0.2101 C.3     1  UNL1        0.0020
     17 C          -0.5535    0.1433    0.9164 C.3     1  UNL1       -0.0148
     18 C          -1.1961   -0.2239    2.2220 C.3     1  UNL1        0.0411
     19 CL         -1.2019   -1.9556    2.5565 Cl      1  UNL1       -0.1211
     20 C          -2.5881    0.3678    2.2282 C.3     1  UNL1       -0.0139
     21 C          -3.4450   -0.2148    1.1851 C.2     1  UNL1       -0.0546
     22 C          -4.5256   -0.9286    1.4549 C.2     1  UNL1       -0.0148
     23 C          -5.2197   -1.4088    0.2661 C.2     1  UNL1        0.1787
     24 O          -6.2604   -2.0979    0.4117 O.2     1  UNL1       -0.2879
     25 C          -4.7690   -1.1311   -1.0900 C.2     1  UNL1       -0.0180
     26 C          -3.6703   -0.4000   -1.1884 C.2     1  UNL1       -0.0701
     27 C          -2.8396    0.1746   -0.1028 C.3     1  UNL1        0.0132
     28 C          -2.9510    1.6778   -0.2237 C.3     1  UNL1       -0.0520
     29 H           0.5638   -1.6038    0.3333 H       1  UNL1        0.0310
     30 H           1.9945    0.3885    2.1858 H       1  UNL1        0.0272
     31 H           1.5830   -1.3016    2.5463 H       1  UNL1        0.0272
     32 H           3.9022   -0.9564    1.3406 H       1  UNL1        0.0330
     33 H           3.4591   -3.2313    0.7058 H       1  UNL1        0.0233
     34 H           2.1902   -2.6907   -0.4777 H       1  UNL1        0.0233
     35 H           1.8049   -2.9467    1.2388 H       1  UNL1        0.0233
     36 H           3.3664   -0.6175   -2.3228 H       1  UNL1        0.2108
     37 H           4.2914    2.8907   -0.4391 H       1  UNL1        0.0637
     38 H           5.3712    1.8894    0.5284 H       1  UNL1        0.0637
     39 H           5.9598    2.6950   -1.6952 H       1  UNL1        0.2100
     40 H           1.3516    2.0673    0.6659 H       1  UNL1        0.0236
     41 H           0.3451    2.0052   -0.8034 H       1  UNL1        0.0236
     42 H           2.0879    2.1920   -0.9506 H       1  UNL1        0.0236
     43 H           1.0093   -1.2453   -1.9897 H       1  UNL1        0.0297
     44 H           0.9427    0.4157   -2.5536 H       1  UNL1        0.0297
     45 H          -1.2343   -1.0404   -2.2453 H       1  UNL1        0.0596
     46 H          -1.3539    0.9446   -3.1099 H       1  UNL1        0.2098
     47 H          -1.5419   -1.4440    0.0011 H       1  UNL1        0.0340
     48 H          -0.4957    1.2307    0.8587 H       1  UNL1        0.0322
     49 H          -0.6421    0.3226    3.0405 H       1  UNL1        0.0471
     50 H          -2.4979    1.4567    2.0726 H       1  UNL1        0.0325
     51 H          -3.0271    0.2590    3.2470 H       1  UNL1        0.0325
     52 H          -4.8247   -1.1112    2.4693 H       1  UNL1        0.0655
     53 H          -5.2813   -1.4875   -1.9725 H       1  UNL1        0.0653
     54 H          -3.3407   -0.1995   -2.2198 H       1  UNL1        0.0582
     55 H          -3.4168    1.9759   -1.2099 H       1  UNL1        0.0241
     56 H          -3.6684    2.0775    0.5229 H       1  UNL1        0.0241
     57 H          -2.0057    2.2121   -0.0511 H       1  UNL1        0.0241
@<TRIPOS>BOND
     1     1     2    1
     2     2     3    1
     3     3     4    1
     4     3     5    1
     5     5     6    1
     6     5     7    1
     7     7     8    2
     8     7     9    1
     9     9    10    1
    10     5    11    1
    11    11    12    1
    12    11    13    1
    13    13    14    1
    14    14    15    1
    15    14    16    1
    16    16    17    1
    17    17    18    1
    18    18    19    1
    19    18    20    1
    20    20    21    1
    21    21    22    2
    22    22    23    1
    23    23    24    2
    24    23    25    1
    25    25    26    2
    26    26    27    1
    27    27    28    1
    28    11     1    1
    29    27    16    1
    30    17     1    1
    31    27    21    1
    32     1    29    1
    33     2    30    1
    34     2    31    1
    35     3    32    1
    36     4    33    1
    37     4    34    1
    38     4    35    1
    39     6    36    1
    40     9    37    1
    41     9    38    1
    42    10    39    1
    43    12    40    1
    44    12    41    1
    45    12    42    1
    46    13    43    1
    47    13    44    1
    48    14    45    1
    49    15    46    1
    50    16    47    1
    51    17    48    1
    52    18    49    1
    53    20    50    1
    54    20    51    1
    55    22    52    1
    56    25    53    1
    57    26    54    1
    58    28    55    1
    59    28    56    1
    60    28    57    1
