
     RDKit          3D

 47 50  0  0  0  0  0  0  0  0999 V2000
    4.9936   -0.4232   -0.5990 C   0  0  0  0  0  0  0  0  0  0  0  0
    3.5529   -0.5030   -0.2586 C   0  0  0  0  0  0  0  0  0  0  0  0
    2.5853   -0.4039   -1.2426 C   0  0  0  0  0  0  0  0  0  0  0  0
    1.2238   -0.4774   -0.9358 C   0  0  0  0  0  0  0  0  0  0  0  0
    0.8207   -0.6516    0.3688 C   0  0  0  0  0  0  0  0  0  0  0  0
   -0.6291   -0.7209    0.6891 C   0  0  2  0  0  0  0  0  0  0  0  0
   -1.2882   -1.6122   -0.2908 C   0  0  0  0  0  0  0  0  0  0  0  0
   -2.3623   -2.4369    0.4122 C   0  0  0  0  0  0  0  0  0  0  0  0
   -3.4185   -1.3720    0.6259 C   0  0  0  0  0  0  0  0  0  0  0  0
   -3.1421   -0.3764   -0.4616 C   0  0  0  0  0  0  0  0  0  0  0  0
   -2.5435    0.8545    0.1851 C   0  0  0  0  0  0  0  0  0  0  0  0
   -1.2753    0.6117    0.9142 C   0  0  2  0  0  0  0  0  0  0  0  0
   -0.2551    1.6707    0.7032 C   0  0  0  0  0  0  0  0  0  0  0  0
   -0.0025    2.1401   -0.5644 C   0  0  0  0  0  0  0  0  0  0  0  0
    0.9465    3.1148   -0.7651 C   0  0  0  0  0  0  0  0  0  0  0  0
    1.6540    3.6306    0.3074 C   0  0  0  0  0  0  0  0  0  0  0  0
    1.4211    3.1785    1.5907 C   0  0  0  0  0  0  0  0  0  0  0  0
    0.4672    2.2000    1.7835 C   0  0  0  0  0  0  0  0  0  0  0  0
   -2.0830   -0.9386   -1.2895 N   0  0  0  0  0  0  0  0  0  0  0  0
   -2.6093   -1.9647   -2.1841 C   0  0  0  0  0  0  0  0  0  0  0  0
    1.8102   -0.7466    1.3229 C   0  0  0  0  0  0  0  0  0  0  0  0
    3.1560   -0.6791    1.0593 C   0  0  0  0  0  0  0  0  0  0  0  0
    5.2866    0.6382   -0.6411 H   0  0  0  0  0  0  0  0  0  0  0  0
    5.5729   -0.8794    0.2509 H   0  0  0  0  0  0  0  0  0  0  0  0
    5.2469   -0.9951   -1.5096 H   0  0  0  0  0  0  0  0  0  0  0  0
    2.9382   -0.2672   -2.2564 H   0  0  0  0  0  0  0  0  0  0  0  0
    0.5521   -0.3949   -1.7796 H   0  0  0  0  0  0  0  0  0  0  0  0
   -0.6679   -1.2536    1.6944 H   0  0  0  0  0  0  0  0  0  0  0  0
   -0.5618   -2.3188   -0.7523 H   0  0  0  0  0  0  0  0  0  0  0  0
   -1.9215   -2.7986    1.3578 H   0  0  0  0  0  0  0  0  0  0  0  0
   -2.7501   -3.2413   -0.2290 H   0  0  0  0  0  0  0  0  0  0  0  0
   -4.4433   -1.7925    0.5897 H   0  0  0  0  0  0  0  0  0  0  0  0
   -3.2410   -0.9580    1.6436 H   0  0  0  0  0  0  0  0  0  0  0  0
   -4.0221   -0.0827   -1.0350 H   0  0  0  0  0  0  0  0  0  0  0  0
   -2.4679    1.6186   -0.6311 H   0  0  0  0  0  0  0  0  0  0  0  0
   -3.3648    1.2633    0.8474 H   0  0  0  0  0  0  0  0  0  0  0  0
   -1.5302    0.6971    2.0205 H   0  0  0  0  0  0  0  0  0  0  0  0
   -0.5759    1.7183   -1.3745 H   0  0  0  0  0  0  0  0  0  0  0  0
    1.1144    3.4567   -1.7830 H   0  0  0  0  0  0  0  0  0  0  0  0
    2.4013    4.3949    0.1678 H   0  0  0  0  0  0  0  0  0  0  0  0
    1.9636    3.5670    2.4544 H   0  0  0  0  0  0  0  0  0  0  0  0
    0.2309    1.7950    2.7744 H   0  0  0  0  0  0  0  0  0  0  0  0
   -2.5023   -1.5818   -3.2286 H   0  0  0  0  0  0  0  0  0  0  0  0
   -2.0160   -2.9037   -2.1275 H   0  0  0  0  0  0  0  0  0  0  0  0
   -3.6961   -2.1365   -1.9988 H   0  0  0  0  0  0  0  0  0  0  0  0
    1.5076   -0.8837    2.3511 H   0  0  0  0  0  0  0  0  0  0  0  0
    3.9239   -0.7558    1.8241 H   0  0  0  0  0  0  0  0  0  0  0  0
  1  2  1  0
  2  3  2  0
  3  4  1  0
  4  5  2  0
  5  6  1  0
  6  7  1  0
  7  8  1  0
  8  9  1  0
  9 10  1  0
 10 11  1  0
 11 12  1  0
 12 13  1  0
 13 14  2  0
 14 15  1  0
 15 16  2  0
 16 17  1  0
 17 18  2  0
 10 19  1  0
 19 20  1  0
  5 21  1  0
 21 22  2  0
 22  2  1  0
 12  6  1  0
 18 13  1  0
 19  7  1  0
  1 23  1  0
  1 24  1  0
  1 25  1  0
  3 26  1  0
  4 27  1  0
  6 28  1  1
  7 29  1  0
  8 30  1  0
  8 31  1  0
  9 32  1  0
  9 33  1  0
 10 34  1  0
 11 35  1  0
 11 36  1  0
 12 37  1  1
 14 38  1  0
 15 39  1  0
 16 40  1  0
 17 41  1  0
 18 42  1  0
 20 43  1  0
 20 44  1  0
 20 45  1  0
 21 46  1  0
 22 47  1  0
M  END
$$$$
