@<TRIPOS>MOLECULE
*****
 47 50 0 0 0
SMALL
GASTEIGER

@<TRIPOS>ATOM
      1 C           4.9936   -0.4232   -0.5990 C.3     1  UNL1       -0.0397
      2 C           3.5529   -0.5030   -0.2586 C.ar    1  UNL1       -0.0504
      3 C           2.5853   -0.4039   -1.2426 C.ar    1  UNL1       -0.0586
      4 C           1.2238   -0.4774   -0.9358 C.ar    1  UNL1       -0.0580
      5 C           0.8207   -0.6516    0.3688 C.ar    1  UNL1       -0.0422
      6 C          -0.6291   -0.7209    0.6891 C.3     1  UNL1        0.0066
      7 C          -1.2882   -1.6122   -0.2908 C.3     1  UNL1        0.0178
      8 C          -2.3623   -2.4369    0.4122 C.3     1  UNL1       -0.0353
      9 C          -3.4185   -1.3720    0.6259 C.3     1  UNL1       -0.0359
     10 C          -3.1421   -0.3764   -0.4616 C.3     1  UNL1        0.0110
     11 C          -2.5435    0.8545    0.1851 C.3     1  UNL1       -0.0299
     12 C          -1.2753    0.6117    0.9142 C.3     1  UNL1       -0.0062
     13 C          -0.2551    1.6707    0.7032 C.ar    1  UNL1       -0.0436
     14 C          -0.0025    2.1401   -0.5644 C.ar    1  UNL1       -0.0583
     15 C           0.9465    3.1148   -0.7651 C.ar    1  UNL1       -0.0615
     16 C           1.6540    3.6306    0.3074 C.ar    1  UNL1       -0.0617
     17 C           1.4211    3.1785    1.5907 C.ar    1  UNL1       -0.0615
     18 C           0.4672    2.2000    1.7835 C.ar    1  UNL1       -0.0583
     19 N          -2.0830   -0.9386   -1.2895 N.3     1  UNL1       -0.2989
     20 C          -2.6093   -1.9647   -2.1841 C.3     1  UNL1       -0.0122
     21 C           1.8102   -0.7466    1.3229 C.ar    1  UNL1       -0.0580
     22 C           3.1560   -0.6791    1.0593 C.ar    1  UNL1       -0.0586
     23 H           5.2866    0.6382   -0.6411 H       1  UNL1        0.0278
     24 H           5.5729   -0.8794    0.2509 H       1  UNL1        0.0278
     25 H           5.2469   -0.9951   -1.5096 H       1  UNL1        0.0278
     26 H           2.9382   -0.2672   -2.2564 H       1  UNL1        0.0620
     27 H           0.5521   -0.3949   -1.7796 H       1  UNL1        0.0620
     28 H          -0.6679   -1.2536    1.6944 H       1  UNL1        0.0370
     29 H          -0.5618   -2.3188   -0.7523 H       1  UNL1        0.0469
     30 H          -1.9215   -2.7986    1.3578 H       1  UNL1        0.0281
     31 H          -2.7501   -3.2413   -0.2290 H       1  UNL1        0.0281
     32 H          -4.4433   -1.7925    0.5897 H       1  UNL1        0.0281
     33 H          -3.2410   -0.9580    1.6436 H       1  UNL1        0.0281
     34 H          -4.0221   -0.0827   -1.0350 H       1  UNL1        0.0463
     35 H          -2.4679    1.6186   -0.6311 H       1  UNL1        0.0286
     36 H          -3.3648    1.2633    0.8474 H       1  UNL1        0.0286
     37 H          -1.5302    0.6971    2.0205 H       1  UNL1        0.0356
     38 H          -0.5759    1.7183   -1.3745 H       1  UNL1        0.0620
     39 H           1.1144    3.4567   -1.7830 H       1  UNL1        0.0618
     40 H           2.4013    4.3949    0.1678 H       1  UNL1        0.0618
     41 H           1.9636    3.5670    2.4544 H       1  UNL1        0.0618
     42 H           0.2309    1.7950    2.7744 H       1  UNL1        0.0620
     43 H          -2.5023   -1.5818   -3.2286 H       1  UNL1        0.0391
     44 H          -2.0160   -2.9037   -2.1275 H       1  UNL1        0.0391
     45 H          -3.6961   -2.1365   -1.9988 H       1  UNL1        0.0391
     46 H           1.5076   -0.8837    2.3511 H       1  UNL1        0.0620
     47 H           3.9239   -0.7558    1.8241 H       1  UNL1        0.0620
@<TRIPOS>BOND
     1     1     2    1
     2     2     3   ar
     3     3     4   ar
     4     4     5   ar
     5     5     6    1
     6     6     7    1
     7     7     8    1
     8     8     9    1
     9     9    10    1
    10    10    11    1
    11    11    12    1
    12    12    13    1
    13    13    14   ar
    14    14    15   ar
    15    15    16   ar
    16    16    17   ar
    17    17    18   ar
    18    10    19    1
    19    19    20    1
    20     5    21   ar
    21    21    22   ar
    22    22     2   ar
    23    12     6    1
    24    18    13   ar
    25    19     7    1
    26     1    23    1
    27     1    24    1
    28     1    25    1
    29     3    26    1
    30     4    27    1
    31     6    28    1
    32     7    29    1
    33     8    30    1
    34     8    31    1
    35     9    32    1
    36     9    33    1
    37    10    34    1
    38    11    35    1
    39    11    36    1
    40    12    37    1
    41    14    38    1
    42    15    39    1
    43    16    40    1
    44    17    41    1
    45    18    42    1
    46    20    43    1
    47    20    44    1
    48    20    45    1
    49    21    46    1
    50    22    47    1
