@<TRIPOS>MOLECULE
*****
 68 72 0 0 0
SMALL
GASTEIGER

@<TRIPOS>ATOM
      1 C          -7.2239   -1.2400    3.2708 C.3     1  UNL1        0.0789
      2 O          -6.7236   -0.6760    2.0823 O.3     1  UNL1       -0.4933
      3 C          -5.3638   -0.4773    1.8736 C.ar    1  UNL1        0.1411
      4 C          -4.4121   -0.8168    2.8115 C.ar    1  UNL1       -0.0164
      5 C          -3.0553   -0.5944    2.5486 C.ar    1  UNL1       -0.0369
      6 C          -2.6455   -0.0358    1.3562 C.ar    1  UNL1        0.0357
      7 N          -1.2598    0.1789    1.1160 N.am    1  UNL1       -0.2814
      8 C          -0.4383   -0.8128    0.5000 C.2     1  UNL1        0.2483
      9 O          -1.0376   -1.8863    0.1888 O.2     1  UNL1       -0.2699
     10 C           0.9778   -0.6253    0.2411 C.ar    1  UNL1        0.0371
     11 C           1.6760    0.4997    0.5513 C.ar    1  UNL1       -0.0491
     12 C           3.0312    0.6584    0.2946 C.ar    1  UNL1       -0.0533
     13 C           3.7352   -0.3587   -0.3048 C.ar    1  UNL1       -0.0176
     14 C           5.1478   -0.2401   -0.5858 C.ar    1  UNL1       -0.0149
     15 C           5.6355   -0.5319   -1.8451 C.ar    1  UNL1       -0.0531
     16 C           6.9932   -0.4182   -2.1611 C.ar    1  UNL1       -0.0504
     17 C           7.8615   -0.0084   -1.2017 C.ar    1  UNL1        0.0227
     18 C           9.2791    0.1199   -1.4996 C.ar    1  UNL1        0.2021
     19 N           9.9037    0.7104   -2.5335 N.ar    1  UNL1       -0.0561
     20 O          11.1974    0.5746   -2.3778 O.2     1  UNL1       -0.3380
     21 C          11.4485   -0.0853   -1.2767 C.ar    1  UNL1        0.2246
     22 C          12.7828   -0.4458   -0.7434 C.3     1  UNL1        0.0148
     23 N          10.2511   -0.3772   -0.7148 N.ar    1  UNL1       -0.1916
     24 C           7.4133    0.2892    0.0579 C.ar    1  UNL1       -0.0474
     25 C           6.0508    0.1682    0.3518 C.ar    1  UNL1       -0.0421
     26 C           5.6228    0.4857    1.7200 C.3     1  UNL1       -0.0391
     27 C           3.0210   -1.5197   -0.6266 C.ar    1  UNL1       -0.0533
     28 C           1.6746   -1.6529   -0.3613 C.ar    1  UNL1       -0.0491
     29 C          -3.5972    0.2954    0.4373 C.ar    1  UNL1       -0.0158
     30 C          -4.9604    0.0836    0.6749 C.ar    1  UNL1        0.0738
     31 N          -5.9424    0.4309   -0.2859 N.pl3   1  UNL1       -0.3246
     32 C          -7.0074    1.3816   -0.0455 C.3     1  UNL1        0.0251
     33 C          -7.6197    1.7117   -1.3999 C.3     1  UNL1        0.0144
     34 N          -8.2132    0.5110   -1.9308 N.3     1  UNL1       -0.3024
     35 C          -9.3414    0.1520   -1.1184 C.3     1  UNL1       -0.0126
     36 C          -7.2825   -0.5664   -2.0694 C.3     1  UNL1        0.0144
     37 C          -5.8950   -0.1916   -1.5927 C.3     1  UNL1        0.0251
     38 H          -7.0010   -2.3131    3.2690 H       1  UNL1        0.0660
     39 H          -8.3373   -1.0527    3.2876 H       1  UNL1        0.0660
     40 H          -6.8204   -0.7091    4.1580 H       1  UNL1        0.0660
     41 H          -4.7404   -1.2559    3.7475 H       1  UNL1        0.0655
     42 H          -2.3056   -0.8576    3.2777 H       1  UNL1        0.0637
     43 H          -0.8200    1.0853    1.3945 H       1  UNL1        0.1551
     44 H           1.1664    1.3223    1.0219 H       1  UNL1        0.0625
     45 H           3.5158    1.6024    0.5742 H       1  UNL1        0.0624
     46 H           4.9695   -0.8551   -2.6115 H       1  UNL1        0.0624
     47 H           7.3589   -0.6501   -3.1503 H       1  UNL1        0.0625
     48 H          13.4340   -0.9144   -1.4846 H       1  UNL1        0.0325
     49 H          13.3060    0.4483   -0.3310 H       1  UNL1        0.0325
     50 H          12.6611   -1.1692    0.0956 H       1  UNL1        0.0325
     51 H           8.1196    0.6111    0.7988 H       1  UNL1        0.0627
     52 H           6.3664    0.0944    2.4723 H       1  UNL1        0.0278
     53 H           4.6490    0.0590    2.0130 H       1  UNL1        0.0278
     54 H           5.5439    1.5964    1.8072 H       1  UNL1        0.0278
     55 H           3.5513   -2.3440   -1.1029 H       1  UNL1        0.0624
     56 H           1.1945   -2.5949   -0.6461 H       1  UNL1        0.0625
     57 H          -3.3060    0.7369   -0.5108 H       1  UNL1        0.0656
     58 H          -7.7284    0.8912    0.6327 H       1  UNL1        0.0476
     59 H          -6.6291    2.3422    0.3596 H       1  UNL1        0.0476
     60 H          -6.7996    2.1111   -2.0296 H       1  UNL1        0.0442
     61 H          -8.4203    2.4589   -1.2354 H       1  UNL1        0.0442
     62 H         -10.2784    0.0769   -1.7251 H       1  UNL1        0.0391
     63 H          -9.5437    0.8685   -0.2979 H       1  UNL1        0.0391
     64 H          -9.1381   -0.8326   -0.6290 H       1  UNL1        0.0391
     65 H          -7.1927   -0.7896   -3.1624 H       1  UNL1        0.0442
     66 H          -7.6690   -1.4315   -1.4924 H       1  UNL1        0.0442
     67 H          -5.2908   -1.1215   -1.5993 H       1  UNL1        0.0476
     68 H          -5.4996    0.5630   -2.3032 H       1  UNL1        0.0476
@<TRIPOS>BOND
     1     1     2    1
     2     2     3    1
     3     3     4   ar
     4     4     5   ar
     5     5     6   ar
     6     6     7    1
     7     7     8   am
     8     8     9    2
     9     8    10    1
    10    10    11   ar
    11    11    12   ar
    12    12    13   ar
    13    13    14    1
    14    14    15   ar
    15    15    16   ar
    16    16    17   ar
    17    17    18    1
    18    18    19   ar
    19    19    20   ar
    20    20    21   ar
    21    21    22    1
    22    21    23   ar
    23    17    24   ar
    24    24    25   ar
    25    25    26    1
    26    13    27   ar
    27    27    28   ar
    28     6    29   ar
    29    29    30   ar
    30    30    31    1
    31    31    32    1
    32    32    33    1
    33    33    34    1
    34    34    35    1
    35    34    36    1
    36    36    37    1
    37    30     3   ar
    38    37    31    1
    39    28    10   ar
    40    25    14   ar
    41    23    18   ar
    42     1    38    1
    43     1    39    1
    44     1    40    1
    45     4    41    1
    46     5    42    1
    47     7    43    1
    48    11    44    1
    49    12    45    1
    50    15    46    1
    51    16    47    1
    52    22    48    1
    53    22    49    1
    54    22    50    1
    55    24    51    1
    56    26    52    1
    57    26    53    1
    58    26    54    1
    59    27    55    1
    60    28    56    1
    61    29    57    1
    62    32    58    1
    63    32    59    1
    64    33    60    1
    65    33    61    1
    66    35    62    1
    67    35    63    1
    68    35    64    1
    69    36    65    1
    70    36    66    1
    71    37    67    1
    72    37    68    1
