@<TRIPOS>MOLECULE
*****
 50 53 0 0 0
SMALL
GASTEIGER

@<TRIPOS>ATOM
      1 C           7.1109   -0.1223    1.9399 C.3     1  UNL1       -0.0495
      2 C           6.4447   -0.7131    0.7191 C.3     1  UNL1        0.0102
      3 N           5.3758    0.2004    0.2897 N.am    1  UNL1       -0.2995
      4 C           4.5905   -0.1235   -0.8437 C.2     1  UNL1        0.3022
      5 O           4.8262   -1.1889   -1.4588 O.2     1  UNL1       -0.2526
      6 N           3.5465    0.7082   -1.3131 N.am    1  UNL1       -0.2855
      7 C           2.7638    0.3445   -2.4770 C.3     1  UNL1        0.0178
      8 C           1.3154    0.0849   -2.0690 C.3     1  UNL1       -0.0185
      9 C           1.0412    0.8381   -0.7890 C.3     1  UNL1        0.0262
     10 N          -0.3711    0.9075   -0.4785 N.pl3   1  UNL1       -0.3105
     11 C          -1.0517   -0.3201   -0.2487 C.ar    1  UNL1        0.2159
     12 N          -0.4426   -1.5149   -0.3020 N.ar    1  UNL1       -0.2229
     13 C          -1.0896   -2.6690   -0.0837 C.ar    1  UNL1        0.0333
     14 C          -2.4299   -2.6693    0.2088 C.ar    1  UNL1       -0.0159
     15 C          -3.0786   -1.4377    0.2683 C.ar    1  UNL1        0.0942
     16 C          -4.5181   -1.4309    0.5840 C.ar    1  UNL1        0.0916
     17 C          -5.3121   -2.5350    0.8315 C.ar    1  UNL1        0.0558
     18 N          -6.5519   -2.0894    1.0757 N.ar    1  UNL1       -0.2354
     19 C          -6.5776   -0.7298    0.9921 C.ar    1  UNL1        0.1380
     20 C          -7.6159    0.1624    1.1622 C.ar    1  UNL1       -0.0188
     21 C          -7.3445    1.5014    1.0140 C.ar    1  UNL1       -0.0569
     22 C          -6.0543    1.8608    0.7058 C.ar    1  UNL1       -0.0450
     23 C          -5.0323    0.9636    0.5397 C.ar    1  UNL1        0.0118
     24 N          -5.3137   -0.3578    0.6890 N.ar    1  UNL1       -0.2979
     25 N          -2.3662   -0.3428    0.0397 N.ar    1  UNL1       -0.2130
     26 C           1.6718    2.2124   -0.8426 C.3     1  UNL1       -0.0185
     27 C           3.1809    1.9699   -0.6787 C.3     1  UNL1        0.0178
     28 H           6.4006    0.5791    2.4180 H       1  UNL1        0.0245
     29 H           8.0113    0.4285    1.5987 H       1  UNL1        0.0245
     30 H           7.4416   -0.9098    2.6405 H       1  UNL1        0.0245
     31 H           5.9518   -1.6617    1.0069 H       1  UNL1        0.0460
     32 H           7.1431   -0.8357   -0.1390 H       1  UNL1        0.0460
     33 H           5.1877    1.0766    0.8018 H       1  UNL1        0.1502
     34 H           3.1465   -0.5865   -2.9374 H       1  UNL1        0.0465
     35 H           2.7758    1.1806   -3.2056 H       1  UNL1        0.0465
     36 H           0.6569    0.4620   -2.8888 H       1  UNL1        0.0298
     37 H           1.1722   -0.9900   -1.9389 H       1  UNL1        0.0298
     38 H           1.5362    0.2822    0.0342 H       1  UNL1        0.0499
     39 H          -0.8813    1.8351   -0.4237 H       1  UNL1        0.1492
     40 H          -0.6012   -3.6368   -0.1253 H       1  UNL1        0.0831
     41 H          -2.9775   -3.6081    0.3912 H       1  UNL1        0.0655
     42 H          -4.9630   -3.5705    0.8224 H       1  UNL1        0.0852
     43 H          -8.6134   -0.1742    1.4046 H       1  UNL1        0.0654
     44 H          -8.0893    2.2730    1.1272 H       1  UNL1        0.0619
     45 H          -5.8227    2.9200    0.5847 H       1  UNL1        0.0632
     46 H          -4.0199    1.2652    0.2967 H       1  UNL1        0.0813
     47 H           1.4496    2.6673   -1.8221 H       1  UNL1        0.0298
     48 H           1.3530    2.8013    0.0153 H       1  UNL1        0.0298
     49 H           3.3462    1.8565    0.4131 H       1  UNL1        0.0465
     50 H           3.6782    2.8364   -1.1151 H       1  UNL1        0.0465
@<TRIPOS>BOND
     1     1     2    1
     2     2     3    1
     3     3     4   am
     4     4     5    2
     5     4     6   am
     6     6     7    1
     7     7     8    1
     8     8     9    1
     9     9    10    1
    10    10    11    1
    11    11    12   ar
    12    12    13   ar
    13    13    14   ar
    14    14    15   ar
    15    15    16    1
    16    16    17   ar
    17    17    18   ar
    18    18    19   ar
    19    19    20   ar
    20    20    21   ar
    21    21    22   ar
    22    22    23   ar
    23    23    24   ar
    24    15    25   ar
    25     9    26    1
    26    26    27    1
    27    27     6    1
    28    25    11   ar
    29    24    16   ar
    30    24    19   ar
    31     1    28    1
    32     1    29    1
    33     1    30    1
    34     2    31    1
    35     2    32    1
    36     3    33    1
    37     7    34    1
    38     7    35    1
    39     8    36    1
    40     8    37    1
    41     9    38    1
    42    10    39    1
    43    13    40    1
    44    14    41    1
    45    17    42    1
    46    20    43    1
    47    21    44    1
    48    22    45    1
    49    23    46    1
    50    26    47    1
    51    26    48    1
    52    27    49    1
    53    27    50    1
