
     RDKit          3D

 50 53  0  0  0  0  0  0  0  0999 V2000
    7.1109   -0.1223    1.9399 C   0  0  0  0  0  0  0  0  0  0  0  0
    6.4447   -0.7131    0.7191 C   0  0  0  0  0  0  0  0  0  0  0  0
    5.3758    0.2004    0.2897 N   0  0  0  0  0  0  0  0  0  0  0  0
    4.5905   -0.1235   -0.8437 C   0  0  0  0  0  0  0  0  0  0  0  0
    4.8262   -1.1889   -1.4588 O   0  0  0  0  0  0  0  0  0  0  0  0
    3.5465    0.7082   -1.3131 N   0  0  0  0  0  0  0  0  0  0  0  0
    2.7638    0.3445   -2.4770 C   0  0  0  0  0  0  0  0  0  0  0  0
    1.3154    0.0849   -2.0690 C   0  0  0  0  0  0  0  0  0  0  0  0
    1.0412    0.8381   -0.7890 C   0  0  0  0  0  0  0  0  0  0  0  0
   -0.3711    0.9075   -0.4785 N   0  0  0  0  0  0  0  0  0  0  0  0
   -1.0517   -0.3201   -0.2487 C   0  0  0  0  0  0  0  0  0  0  0  0
   -0.4426   -1.5149   -0.3020 N   0  0  0  0  0  0  0  0  0  0  0  0
   -1.0896   -2.6690   -0.0837 C   0  0  0  0  0  0  0  0  0  0  0  0
   -2.4299   -2.6693    0.2088 C   0  0  0  0  0  0  0  0  0  0  0  0
   -3.0786   -1.4377    0.2683 C   0  0  0  0  0  0  0  0  0  0  0  0
   -4.5181   -1.4309    0.5840 C   0  0  0  0  0  0  0  0  0  0  0  0
   -5.3121   -2.5350    0.8315 C   0  0  0  0  0  0  0  0  0  0  0  0
   -6.5519   -2.0894    1.0757 N   0  0  0  0  0  0  0  0  0  0  0  0
   -6.5776   -0.7298    0.9921 C   0  0  0  0  0  0  0  0  0  0  0  0
   -7.6159    0.1624    1.1622 C   0  0  0  0  0  0  0  0  0  0  0  0
   -7.3445    1.5014    1.0140 C   0  0  0  0  0  0  0  0  0  0  0  0
   -6.0543    1.8608    0.7058 C   0  0  0  0  0  0  0  0  0  0  0  0
   -5.0323    0.9636    0.5397 C   0  0  0  0  0  0  0  0  0  0  0  0
   -5.3137   -0.3578    0.6890 N   0  0  0  0  0  0  0  0  0  0  0  0
   -2.3662   -0.3428    0.0397 N   0  0  0  0  0  0  0  0  0  0  0  0
    1.6718    2.2124   -0.8426 C   0  0  0  0  0  0  0  0  0  0  0  0
    3.1809    1.9699   -0.6787 C   0  0  0  0  0  0  0  0  0  0  0  0
    6.4006    0.5791    2.4180 H   0  0  0  0  0  0  0  0  0  0  0  0
    8.0113    0.4285    1.5987 H   0  0  0  0  0  0  0  0  0  0  0  0
    7.4416   -0.9098    2.6405 H   0  0  0  0  0  0  0  0  0  0  0  0
    5.9518   -1.6617    1.0069 H   0  0  0  0  0  0  0  0  0  0  0  0
    7.1431   -0.8357   -0.1390 H   0  0  0  0  0  0  0  0  0  0  0  0
    5.1877    1.0766    0.8018 H   0  0  0  0  0  0  0  0  0  0  0  0
    3.1465   -0.5865   -2.9374 H   0  0  0  0  0  0  0  0  0  0  0  0
    2.7758    1.1806   -3.2056 H   0  0  0  0  0  0  0  0  0  0  0  0
    0.6569    0.4620   -2.8888 H   0  0  0  0  0  0  0  0  0  0  0  0
    1.1722   -0.9900   -1.9389 H   0  0  0  0  0  0  0  0  0  0  0  0
    1.5362    0.2822    0.0342 H   0  0  0  0  0  0  0  0  0  0  0  0
   -0.8813    1.8351   -0.4237 H   0  0  0  0  0  0  0  0  0  0  0  0
   -0.6012   -3.6368   -0.1253 H   0  0  0  0  0  0  0  0  0  0  0  0
   -2.9775   -3.6081    0.3912 H   0  0  0  0  0  0  0  0  0  0  0  0
   -4.9630   -3.5705    0.8224 H   0  0  0  0  0  0  0  0  0  0  0  0
   -8.6134   -0.1742    1.4046 H   0  0  0  0  0  0  0  0  0  0  0  0
   -8.0893    2.2730    1.1272 H   0  0  0  0  0  0  0  0  0  0  0  0
   -5.8227    2.9200    0.5847 H   0  0  0  0  0  0  0  0  0  0  0  0
   -4.0199    1.2652    0.2967 H   0  0  0  0  0  0  0  0  0  0  0  0
    1.4496    2.6673   -1.8221 H   0  0  0  0  0  0  0  0  0  0  0  0
    1.3530    2.8013    0.0153 H   0  0  0  0  0  0  0  0  0  0  0  0
    3.3462    1.8565    0.4131 H   0  0  0  0  0  0  0  0  0  0  0  0
    3.6782    2.8364   -1.1151 H   0  0  0  0  0  0  0  0  0  0  0  0
  1  2  1  0
  2  3  1  0
  3  4  1  0
  4  5  2  0
  4  6  1  0
  6  7  1  0
  7  8  1  0
  8  9  1  0
  9 10  1  0
 10 11  1  0
 11 12  2  0
 12 13  1  0
 13 14  2  0
 14 15  1  0
 15 16  1  0
 16 17  2  0
 17 18  1  0
 18 19  2  0
 19 20  1  0
 20 21  2  0
 21 22  1  0
 22 23  2  0
 23 24  1  0
 15 25  2  0
  9 26  1  0
 26 27  1  0
 27  6  1  0
 25 11  1  0
 24 16  1  0
 24 19  1  0
  1 28  1  0
  1 29  1  0
  1 30  1  0
  2 31  1  0
  2 32  1  0
  3 33  1  0
  7 34  1  0
  7 35  1  0
  8 36  1  0
  8 37  1  0
  9 38  1  0
 10 39  1  0
 13 40  1  0
 14 41  1  0
 17 42  1  0
 20 43  1  0
 21 44  1  0
 22 45  1  0
 23 46  1  0
 26 47  1  0
 26 48  1  0
 27 49  1  0
 27 50  1  0
M  END
$$$$
