
     RDKit          3D

 57 59  0  0  0  0  0  0  0  0999 V2000
   -1.7089   -1.0989    0.9856 C   0  0  0  0  0  0  0  0  0  0  0  0
   -2.0079   -0.3930   -0.2914 C   0  0  0  0  0  0  0  0  0  0  0  0
   -1.6139   -1.3086   -1.4640 C   0  0  0  0  0  0  0  0  0  0  0  0
   -1.0258    0.7608   -0.4469 C   0  0  0  0  0  0  0  0  0  0  0  0
   -0.8253    1.7563    0.5892 C   0  0  0  0  0  0  0  0  0  0  0  0
   -1.8998    2.4808    1.0894 O   0  0  0  0  0  0  0  0  0  0  0  0
    0.1732    1.4539    1.6859 C   0  0  0  0  0  0  0  0  0  0  0  0
    1.5651    1.2226    1.2547 C   0  0  0  0  0  0  0  0  0  0  0  0
    2.0994    0.0146    0.8662 C   0  0  0  0  0  0  0  0  0  0  0  0
    3.4445    0.1648    0.5173 C   0  0  0  0  0  0  0  0  0  0  0  0
    4.4116   -0.7224    0.0699 C   0  0  0  0  0  0  0  0  0  0  0  0
    5.6831   -0.2631   -0.1976 C   0  0  0  0  0  0  0  0  0  0  0  0
    6.9570   -1.3490   -0.7708 S   0  0  0  0  0  6  0  0  0  0  0  0
    6.3754   -2.9936   -0.9310 C   0  0  0  0  0  0  0  0  0  0  0  0
    7.3879   -0.8589   -2.1212 O   0  0  0  0  0  0  0  0  0  0  0  0
    8.1574   -1.2741    0.1523 O   0  0  0  0  0  0  0  0  0  0  0  0
    5.9247    1.0449   -0.0075 N   0  0  0  0  0  0  0  0  0  0  0  0
    4.9987    1.9191    0.4258 C   0  0  0  0  0  0  0  0  0  0  0  0
    3.7035    1.4982    0.7075 C   0  0  0  0  0  0  0  0  0  0  0  0
    2.5891    2.1037    1.1407 N   0  0  0  0  0  0  0  0  0  0  0  0
   -0.0800    2.9317   -0.2135 C   0  0  0  0  0  0  0  0  0  0  0  0
   -0.8808    3.3790   -1.2162 F   0  0  0  0  0  0  0  0  0  0  0  0
    1.0052    2.3467   -0.7883 F   0  0  0  0  0  0  0  0  0  0  0  0
    0.1570    3.9657    0.6398 F   0  0  0  0  0  0  0  0  0  0  0  0
   -3.4089   -0.0484   -0.4237 C   0  0  0  0  0  0  0  0  0  0  0  0
   -3.8260    1.2506   -0.7003 C   0  0  0  0  0  0  0  0  0  0  0  0
   -5.1312    1.6289   -0.8496 C   0  0  0  0  0  0  0  0  0  0  0  0
   -6.1043    0.6763   -0.7247 C   0  0  0  0  0  0  0  0  0  0  0  0
   -5.7663   -0.6129   -0.4601 C   0  0  0  0  0  0  0  0  0  0  0  0
   -4.4033   -0.9907   -0.3075 C   0  0  0  0  0  0  0  0  0  0  0  0
   -4.2761   -2.4143   -0.1361 C   0  0  0  0  0  0  0  0  0  0  0  0
   -5.2992   -3.1078    0.6533 N   0  0  0  0  0  0  0  0  0  0  0  0
   -3.4105   -3.1465   -0.5658 O   0  0  0  0  0  0  0  0  0  0  0  0
   -2.0990   -0.4966    1.8762 H   0  0  0  0  0  0  0  0  0  0  0  0
   -2.1555   -2.0838    1.1570 H   0  0  0  0  0  0  0  0  0  0  0  0
   -0.6299   -1.2367    1.1818 H   0  0  0  0  0  0  0  0  0  0  0  0
   -0.8140   -0.7797   -2.1111 H   0  0  0  0  0  0  0  0  0  0  0  0
   -1.0886   -2.2100   -1.1524 H   0  0  0  0  0  0  0  0  0  0  0  0
   -2.4380   -1.4095   -2.1847 H   0  0  0  0  0  0  0  0  0  0  0  0
   -1.2083    1.1746   -1.4667 H   0  0  0  0  0  0  0  0  0  0  0  0
   -0.0237    0.2346   -0.5871 H   0  0  0  0  0  0  0  0  0  0  0  0
   -1.6197    2.8442    1.9665 H   0  0  0  0  0  0  0  0  0  0  0  0
    0.2697    2.4264    2.3292 H   0  0  0  0  0  0  0  0  0  0  0  0
   -0.2303    0.6772    2.3521 H   0  0  0  0  0  0  0  0  0  0  0  0
    1.6424   -0.9704    0.8018 H   0  0  0  0  0  0  0  0  0  0  0  0
    4.1675   -1.7757   -0.0693 H   0  0  0  0  0  0  0  0  0  0  0  0
    7.2500   -3.6872   -0.7935 H   0  0  0  0  0  0  0  0  0  0  0  0
    5.6743   -3.2147   -0.1153 H   0  0  0  0  0  0  0  0  0  0  0  0
    5.9662   -3.2258   -1.9317 H   0  0  0  0  0  0  0  0  0  0  0  0
    5.2059    2.9759    0.5761 H   0  0  0  0  0  0  0  0  0  0  0  0
    2.5489    3.1462    1.3646 H   0  0  0  0  0  0  0  0  0  0  0  0
   -3.0268    1.9544   -0.8701 H   0  0  0  0  0  0  0  0  0  0  0  0
   -5.3422    2.6804   -1.0631 H   0  0  0  0  0  0  0  0  0  0  0  0
   -7.1686    0.9625   -0.8406 H   0  0  0  0  0  0  0  0  0  0  0  0
   -6.5625   -1.3508   -0.3674 H   0  0  0  0  0  0  0  0  0  0  0  0
   -6.1615   -3.3188    0.1078 H   0  0  0  0  0  0  0  0  0  0  0  0
   -5.1209   -3.3327    1.6372 H   0  0  0  0  0  0  0  0  0  0  0  0
  1  2  1  0
  2  3  1  0
  2  4  1  0
  4  5  1  0
  5  6  1  0
  5  7  1  0
  7  8  1  0
  8  9  2  0
  9 10  1  0
 10 11  2  0
 11 12  1  0
 12 13  1  0
 13 14  1  0
 13 15  2  0
 13 16  2  0
 12 17  2  0
 17 18  1  0
 18 19  2  0
 19 20  1  0
  5 21  1  0
 21 22  1  0
 21 23  1  0
 21 24  1  0
  2 25  1  0
 25 26  2  0
 26 27  1  0
 27 28  2  0
 28 29  1  0
 29 30  2  0
 30 31  1  0
 31 32  1  0
 31 33  2  0
 20  8  1  0
 30 25  1  0
 19 10  1  0
  1 34  1  0
  1 35  1  0
  1 36  1  0
  3 37  1  0
  3 38  1  0
  3 39  1  0
  4 40  1  0
  4 41  1  0
  6 42  1  0
  7 43  1  0
  7 44  1  0
  9 45  1  0
 11 46  1  0
 14 47  1  0
 14 48  1  0
 14 49  1  0
 18 50  1  0
 20 51  1  0
 26 52  1  0
 27 53  1  0
 28 54  1  0
 29 55  1  0
 32 56  1  0
 32 57  1  0
M  END
$$$$
