@<TRIPOS>MOLECULE
*****
 57 59 0 0 0
SMALL
GASTEIGER

@<TRIPOS>ATOM
      1 C          -1.7089   -1.0989    0.9856 C.3     1  UNL1       -0.0557
      2 C          -2.0079   -0.3930   -0.2914 C.3     1  UNL1       -0.0062
      3 C          -1.6139   -1.3086   -1.4640 C.3     1  UNL1       -0.0557
      4 C          -1.0258    0.7608   -0.4469 C.3     1  UNL1       -0.0059
      5 C          -0.8253    1.7563    0.5892 C.3     1  UNL1        0.1664
      6 O          -1.8998    2.4808    1.0894 O.3     1  UNL1       -0.3793
      7 C           0.1732    1.4539    1.6859 C.3     1  UNL1        0.0250
      8 C           1.5651    1.2226    1.2547 C.ar    1  UNL1        0.0200
      9 C           2.0994    0.0146    0.8662 C.ar    1  UNL1       -0.0332
     10 C           3.4445    0.1648    0.5173 C.ar    1  UNL1        0.0047
     11 C           4.4116   -0.7224    0.0699 C.ar    1  UNL1       -0.0090
     12 C           5.6831   -0.2631   -0.1976 C.ar    1  UNL1        0.1766
     13 S           6.9570   -1.3490   -0.7708 S.O2    1  UNL1        0.0111
     14 C           6.3754   -2.9936   -0.9310 C.3     1  UNL1        0.0612
     15 O           7.3879   -0.8589   -2.1212 O.2     1  UNL1       -0.1682
     16 O           8.1574   -1.2741    0.1523 O.2     1  UNL1       -0.1682
     17 N           5.9247    1.0449   -0.0075 N.ar    1  UNL1       -0.2348
     18 C           4.9987    1.9191    0.4258 C.ar    1  UNL1        0.0536
     19 C           3.7035    1.4982    0.7075 C.ar    1  UNL1        0.0651
     20 N           2.5891    2.1037    1.1407 N.ar    1  UNL1       -0.3566
     21 C          -0.0800    2.9317   -0.2135 C.3     1  UNL1        0.4186
     22 F          -0.8808    3.3790   -1.2162 F       1  UNL1       -0.1676
     23 F           1.0052    2.3467   -0.7883 F       1  UNL1       -0.1676
     24 F           0.1570    3.9657    0.6398 F       1  UNL1       -0.1676
     25 C          -3.4089   -0.0484   -0.4237 C.ar    1  UNL1       -0.0295
     26 C          -3.8260    1.2506   -0.7003 C.ar    1  UNL1       -0.0573
     27 C          -5.1312    1.6289   -0.8496 C.ar    1  UNL1       -0.0614
     28 C          -6.1043    0.6763   -0.7247 C.ar    1  UNL1       -0.0610
     29 C          -5.7663   -0.6129   -0.4601 C.ar    1  UNL1       -0.0494
     30 C          -4.4033   -0.9907   -0.3075 C.ar    1  UNL1        0.0402
     31 C          -4.2761   -2.4143   -0.1361 C.2     1  UNL1        0.2418
     32 N          -5.2992   -3.1078    0.6533 N.am    1  UNL1       -0.3253
     33 O          -3.4105   -3.1465   -0.5658 O.2     1  UNL1       -0.2704
     34 H          -2.0990   -0.4966    1.8762 H       1  UNL1        0.0238
     35 H          -2.1555   -2.0838    1.1570 H       1  UNL1        0.0238
     36 H          -0.6299   -1.2367    1.1818 H       1  UNL1        0.0238
     37 H          -0.8140   -0.7797   -2.1111 H       1  UNL1        0.0238
     38 H          -1.0886   -2.2100   -1.1524 H       1  UNL1        0.0238
     39 H          -2.4380   -1.4095   -2.1847 H       1  UNL1        0.0238
     40 H          -1.2083    1.1746   -1.4667 H       1  UNL1        0.0304
     41 H          -0.0237    0.2346   -0.5871 H       1  UNL1        0.0304
     42 H          -1.6197    2.8442    1.9665 H       1  UNL1        0.2106
     43 H           0.2697    2.4264    2.3292 H       1  UNL1        0.0358
     44 H          -0.2303    0.6772    2.3521 H       1  UNL1        0.0358
     45 H           1.6424   -0.9704    0.8018 H       1  UNL1        0.0641
     46 H           4.1675   -1.7757   -0.0693 H       1  UNL1        0.0659
     47 H           7.2500   -3.6872   -0.7935 H       1  UNL1        0.0468
     48 H           5.6743   -3.2147   -0.1153 H       1  UNL1        0.0468
     49 H           5.9662   -3.2258   -1.9317 H       1  UNL1        0.0468
     50 H           5.2059    2.9759    0.5761 H       1  UNL1        0.0851
     51 H           2.5489    3.1462    1.3646 H       1  UNL1        0.1656
     52 H          -3.0268    1.9544   -0.8701 H       1  UNL1        0.0621
     53 H          -5.3422    2.6804   -1.0631 H       1  UNL1        0.0618
     54 H          -7.1686    0.9625   -0.8406 H       1  UNL1        0.0618
     55 H          -6.5625   -1.3508   -0.3674 H       1  UNL1        0.0625
     56 H          -6.1615   -3.3188    0.1078 H       1  UNL1        0.1453
     57 H          -5.1209   -3.3327    1.6372 H       1  UNL1        0.1453
@<TRIPOS>BOND
     1     1     2    1
     2     2     3    1
     3     2     4    1
     4     4     5    1
     5     5     6    1
     6     5     7    1
     7     7     8    1
     8     8     9   ar
     9     9    10   ar
    10    10    11   ar
    11    11    12   ar
    12    12    13    1
    13    13    14    1
    14    13    15    2
    15    13    16    2
    16    12    17   ar
    17    17    18   ar
    18    18    19   ar
    19    19    20   ar
    20     5    21    1
    21    21    22    1
    22    21    23    1
    23    21    24    1
    24     2    25    1
    25    25    26   ar
    26    26    27   ar
    27    27    28   ar
    28    28    29   ar
    29    29    30   ar
    30    30    31    1
    31    31    32   am
    32    31    33    2
    33    20     8   ar
    34    30    25   ar
    35    19    10   ar
    36     1    34    1
    37     1    35    1
    38     1    36    1
    39     3    37    1
    40     3    38    1
    41     3    39    1
    42     4    40    1
    43     4    41    1
    44     6    42    1
    45     7    43    1
    46     7    44    1
    47     9    45    1
    48    11    46    1
    49    14    47    1
    50    14    48    1
    51    14    49    1
    52    18    50    1
    53    20    51    1
    54    26    52    1
    55    27    53    1
    56    28    54    1
    57    29    55    1
    58    32    56    1
    59    32    57    1
