@<TRIPOS>MOLECULE
*****
 40 41 0 0 0
SMALL
GASTEIGER

@<TRIPOS>ATOM
      1 C          -0.9581    3.9242   -0.1521 C.3     1  UNL1        0.0790
      2 O          -1.8544    2.8917    0.1965 O.3     1  UNL1       -0.4913
      3 C          -1.5933    1.5520   -0.0573 C.ar    1  UNL1        0.1654
      4 C          -0.4233    1.1465   -0.6730 C.ar    1  UNL1       -0.0126
      5 C          -0.1734   -0.2083   -0.9225 C.ar    1  UNL1       -0.0356
      6 C           1.1262   -0.4276   -1.5869 C.3     1  UNL1        0.0067
      7 C           2.2405   -0.5538   -0.6293 C.ar    1  UNL1        0.0599
      8 C           3.0941    0.5448   -0.4661 C.ar    1  UNL1        0.1792
      9 N           4.1353    0.5519    0.3738 N.ar    1  UNL1       -0.1808
     10 C           4.4021   -0.5413    1.1154 C.ar    1  UNL1        0.3714
     11 N           5.5028   -0.5625    2.0168 N.pl3   1  UNL1       -0.2882
     12 N           3.6150   -1.6262    0.9994 N.ar    1  UNL1       -0.1570
     13 C           2.5674   -1.6368    0.1560 C.ar    1  UNL1        0.1332
     14 N           1.7273   -2.7750    0.0199 N.pl3   1  UNL1       -0.3425
     15 C          -1.1294   -1.1217   -0.5358 C.ar    1  UNL1       -0.0126
     16 C          -2.2984   -0.7265    0.0784 C.ar    1  UNL1        0.1654
     17 O          -3.2215   -1.6772    0.4453 O.3     1  UNL1       -0.4913
     18 C          -2.9587   -3.0368    0.1879 C.3     1  UNL1        0.0790
     19 C          -2.5373    0.6201    0.3220 C.ar    1  UNL1        0.2035
     20 O          -3.7029    1.0588    0.9384 O.3     1  UNL1       -0.4885
     21 C          -4.8860    1.4086    0.2709 C.3     1  UNL1        0.0791
     22 H           0.0437    3.8219    0.2909 H       1  UNL1        0.0660
     23 H          -1.4280    4.8877    0.1088 H       1  UNL1        0.0660
     24 H          -0.8097    3.9270   -1.2659 H       1  UNL1        0.0660
     25 H           0.2582    1.9627   -0.9338 H       1  UNL1        0.0658
     26 H           0.9969   -1.3881   -2.1715 H       1  UNL1        0.0364
     27 H           1.3571    0.3646   -2.3128 H       1  UNL1        0.0364
     28 H           2.9135    1.4460   -1.0458 H       1  UNL1        0.1381
     29 H           4.7535    1.3949    0.4690 H       1  UNL1        0.4558
     30 H           5.5177    0.3274    2.5974 H       1  UNL1        0.1493
     31 H           6.2103   -1.2957    2.1362 H       1  UNL1        0.1493
     32 H           1.0110   -2.8457    0.7685 H       1  UNL1        0.1437
     33 H           1.6080   -3.5862   -0.6241 H       1  UNL1        0.1437
     34 H          -0.8711   -2.1388   -0.7606 H       1  UNL1        0.0658
     35 H          -2.6043   -3.2202   -0.8533 H       1  UNL1        0.0660
     36 H          -3.8895   -3.6234    0.3438 H       1  UNL1        0.0660
     37 H          -2.1380   -3.3535    0.8640 H       1  UNL1        0.0660
     38 H          -5.4290    2.1720    0.8730 H       1  UNL1        0.0660
     39 H          -4.6756    1.8486   -0.7403 H       1  UNL1        0.0660
     40 H          -5.4989    0.4938    0.1585 H       1  UNL1        0.0660
@<TRIPOS>UNITY_ATOM_ATTR
9 1
charge 1
@<TRIPOS>BOND
     1     1     2    1
     2     2     3    1
     3     3     4   ar
     4     4     5   ar
     5     5     6    1
     6     6     7    1
     7     7     8   ar
     8     8     9   ar
     9     9    10   ar
    10    10    11    1
    11    10    12   ar
    12    12    13   ar
    13    13    14    1
    14     5    15   ar
    15    15    16   ar
    16    16    17    1
    17    17    18    1
    18    16    19   ar
    19    19    20    1
    20    20    21    1
    21    19     3   ar
    22    13     7   ar
    23     1    22    1
    24     1    23    1
    25     1    24    1
    26     4    25    1
    27     6    26    1
    28     6    27    1
    29     8    28    1
    30     9    29    1
    31    11    30    1
    32    11    31    1
    33    14    32    1
    34    14    33    1
    35    15    34    1
    36    18    35    1
    37    18    36    1
    38    18    37    1
    39    21    38    1
    40    21    39    1
    41    21    40    1
