
     RDKit          3D

 52 55  0  0  0  0  0  0  0  0999 V2000
    0.0545    2.2816   -6.2219 C   0  0  0  0  0  0  0  0  0  0  0  0
    0.2480    2.0330   -4.8247 N   0  0  0  0  0  0  0  0  0  0  0  0
    1.4650    2.4580   -4.1913 C   0  0  0  0  0  0  0  0  0  0  0  0
   -0.7483    1.3822   -4.0758 C   0  0  0  0  0  0  0  0  0  0  0  0
   -1.7997    1.0396   -4.6775 O   0  0  0  0  0  0  0  0  0  0  0  0
   -0.6584    1.0718   -2.6413 C   0  0  2  0  0  0  0  0  0  0  0  0
   -1.9428    0.4832   -2.0602 C   0  0  0  0  0  0  0  0  0  0  0  0
   -1.3689    1.7702   -1.5999 C   0  0  1  0  0  0  0  0  0  0  0  0
   -0.8320    1.8318   -0.2264 C   0  0  1  0  0  0  0  0  0  0  0  0
   -1.2064    3.2056    0.3758 C   0  0  0  0  0  0  0  0  0  0  0  0
   -1.5192    0.8468    0.6900 C   0  0  0  0  0  0  0  0  0  0  0  0
   -0.8283    0.0195    1.5429 C   0  0  0  0  0  0  0  0  0  0  0  0
   -1.4051   -0.8861    2.4093 C   0  0  0  0  0  0  0  0  0  0  0  0
   -0.6024   -1.7474    3.2690 C   0  0  0  0  0  0  0  0  0  0  0  0
    0.4696   -2.3859    2.8489 C   0  0  0  0  0  0  0  0  0  0  0  0
    0.7606   -2.1633    1.5179 F   0  0  0  0  0  0  0  0  0  0  0  0
    1.3246   -3.2414    3.6425 C   0  0  0  0  0  0  0  0  0  0  0  0
    1.2058   -3.5015    4.9824 C   0  0  0  0  0  0  0  0  0  0  0  0
    2.0537   -4.3404    5.6711 C   0  0  0  0  0  0  0  0  0  0  0  0
    3.0787   -4.9589    4.9987 C   0  0  0  0  0  0  0  0  0  0  0  0
    4.2969   -6.1359    5.8945 Br  0  0  0  0  0  0  0  0  0  0  0  0
    3.1970   -4.6955    3.6465 C   0  0  0  0  0  0  0  0  0  0  0  0
    2.3511   -3.8664    2.9907 N   0  0  0  0  0  0  0  0  0  0  0  0
   -2.8019   -0.9376    2.3901 C   0  0  0  0  0  0  0  0  0  0  0  0
   -3.5356   -0.1322    1.5557 C   0  0  0  0  0  0  0  0  0  0  0  0
   -2.9061    0.7493    0.7156 C   0  0  0  0  0  0  0  0  0  0  0  0
   -3.6501    1.5464   -0.1138 F   0  0  0  0  0  0  0  0  0  0  0  0
    0.5694    1.7175   -0.0426 N   0  0  0  0  0  0  0  0  0  0  0  0
    1.4495    1.1284   -0.7205 C   0  0  0  0  0  0  0  0  0  0  0  0
    2.8207    1.1234   -0.3795 N   0  0  0  0  0  0  0  0  0  0  0  0
    0.8970    0.2662   -2.1822 S   0  0  0  0  0  0  0  0  0  0  0  0
    0.7558    3.0525   -6.6065 H   0  0  0  0  0  0  0  0  0  0  0  0
   -0.9737    2.6222   -6.4950 H   0  0  0  0  0  0  0  0  0  0  0  0
    0.2092    1.3369   -6.8042 H   0  0  0  0  0  0  0  0  0  0  0  0
    2.1366    1.5961   -3.9157 H   0  0  0  0  0  0  0  0  0  0  0  0
    1.3180    3.0812   -3.2835 H   0  0  0  0  0  0  0  0  0  0  0  0
    2.1085    3.0669   -4.8745 H   0  0  0  0  0  0  0  0  0  0  0  0
   -1.7872   -0.4785   -1.5777 H   0  0  0  0  0  0  0  0  0  0  0  0
   -2.8534    0.4973   -2.7072 H   0  0  0  0  0  0  0  0  0  0  0  0
   -2.0116    2.6606   -1.9059 H   0  0  0  0  0  0  0  0  0  0  0  0
   -0.3463    3.6908    0.8686 H   0  0  0  0  0  0  0  0  0  0  0  0
   -1.5473    3.8849   -0.4127 H   0  0  0  0  0  0  0  0  0  0  0  0
   -2.0007    3.1224    1.1360 H   0  0  0  0  0  0  0  0  0  0  0  0
    0.2547    0.0891    1.5293 H   0  0  0  0  0  0  0  0  0  0  0  0
   -0.9013   -1.8640    4.2908 H   0  0  0  0  0  0  0  0  0  0  0  0
    0.3804   -2.9979    5.5112 H   0  0  0  0  0  0  0  0  0  0  0  0
    1.9171   -4.5114    6.7376 H   0  0  0  0  0  0  0  0  0  0  0  0
    4.0045   -5.1759    3.0883 H   0  0  0  0  0  0  0  0  0  0  0  0
   -3.2395   -1.6548    3.0788 H   0  0  0  0  0  0  0  0  0  0  0  0
   -4.6024   -0.1991    1.5648 H   0  0  0  0  0  0  0  0  0  0  0  0
    3.3932    2.0039   -0.2316 H   0  0  0  0  0  0  0  0  0  0  0  0
    3.3485    0.2152   -0.2553 H   0  0  0  0  0  0  0  0  0  0  0  0
  1  2  1  0
  2  3  1  0
  2  4  1  0
  4  5  2  0
  6  4  1  6
  6  7  1  0
  7  8  1  0
  8  9  1  0
  9 10  1  1
  9 11  1  0
 11 12  2  0
 12 13  1  0
 13 14  1  0
 14 15  2  0
 15 16  1  0
 15 17  1  0
 17 18  2  0
 18 19  1  0
 19 20  2  0
 20 21  1  0
 20 22  1  0
 22 23  2  0
 13 24  2  0
 24 25  1  0
 25 26  2  0
 26 27  1  0
  9 28  1  0
 28 29  2  0
 29 30  1  0
 29 31  1  0
  8  6  1  0
 26 11  1  0
 31  6  1  0
 23 17  1  0
  1 32  1  0
  1 33  1  0
  1 34  1  0
  3 35  1  0
  3 36  1  0
  3 37  1  0
  7 38  1  0
  7 39  1  0
  8 40  1  6
 10 41  1  0
 10 42  1  0
 10 43  1  0
 12 44  1  0
 14 45  1  0
 18 46  1  0
 19 47  1  0
 22 48  1  0
 24 49  1  0
 25 50  1  0
 30 51  1  0
 30 52  1  0
M  END
$$$$
