@<TRIPOS>MOLECULE
*****
 52 55 0 0 0
SMALL
GASTEIGER

@<TRIPOS>ATOM
      1 C           0.0545    2.2816   -6.2219 C.3     1  UNL1        0.0029
      2 N           0.2480    2.0330   -4.8247 N.am    1  UNL1       -0.3064
      3 C           1.4650    2.4580   -4.1913 C.3     1  UNL1        0.0029
      4 C          -0.7483    1.3822   -4.0758 C.2     1  UNL1        0.2319
      5 O          -1.7997    1.0396   -4.6775 O.2     1  UNL1       -0.2741
      6 C          -0.6584    1.0718   -2.6413 C.3     1  UNL1        0.1054
      7 C          -1.9428    0.4832   -2.0602 C.3     1  UNL1       -0.0220
      8 C          -1.3689    1.7702   -1.5999 C.3     1  UNL1        0.0134
      9 C          -0.8320    1.8318   -0.2264 C.3     1  UNL1        0.0935
     10 C          -1.2064    3.2056    0.3758 C.3     1  UNL1       -0.0351
     11 C          -1.5192    0.8468    0.6900 C.ar    1  UNL1        0.0158
     12 C          -0.8283    0.0195    1.5429 C.ar    1  UNL1       -0.0463
     13 C          -1.4051   -0.8861    2.4093 C.ar    1  UNL1       -0.0217
     14 C          -0.6024   -1.7474    3.2690 C.2     1  UNL1       -0.0172
     15 C           0.4696   -2.3859    2.8489 C.2     1  UNL1        0.1492
     16 F           0.7606   -2.1633    1.5179 F       1  UNL1       -0.2032
     17 C           1.3246   -3.2414    3.6425 C.ar    1  UNL1        0.0990
     18 C           1.2058   -3.5015    4.9824 C.ar    1  UNL1       -0.0324
     19 C           2.0537   -4.3404    5.6711 C.ar    1  UNL1       -0.0442
     20 C           3.0787   -4.9589    4.9987 C.ar    1  UNL1        0.0360
     21 BR          4.2969   -6.1359    5.8945 Br      1  UNL1       -0.0487
     22 C           3.1970   -4.6955    3.6465 C.ar    1  UNL1        0.0423
     23 N           2.3511   -3.8664    2.9907 N.ar    1  UNL1       -0.2516
     24 C          -2.8019   -0.9376    2.3901 C.ar    1  UNL1       -0.0518
     25 C          -3.5356   -0.1322    1.5557 C.ar    1  UNL1       -0.0255
     26 C          -2.9061    0.7493    0.7156 C.ar    1  UNL1        0.1289
     27 F          -3.6501    1.5464   -0.1138 F       1  UNL1       -0.2051
     28 N           0.5694    1.7175   -0.0426 N.2     1  UNL1       -0.2521
     29 C           1.4495    1.1284   -0.7205 C.2     1  UNL1        0.1485
     30 N           2.8207    1.1234   -0.3795 N.pl3   1  UNL1       -0.3380
     31 S           0.8970    0.2662   -2.1822 S.3     1  UNL1       -0.0746
     32 H           0.7558    3.0525   -6.6065 H       1  UNL1        0.0428
     33 H          -0.9737    2.6222   -6.4950 H       1  UNL1        0.0428
     34 H           0.2092    1.3369   -6.8042 H       1  UNL1        0.0428
     35 H           2.1366    1.5961   -3.9157 H       1  UNL1        0.0428
     36 H           1.3180    3.0812   -3.2835 H       1  UNL1        0.0428
     37 H           2.1085    3.0669   -4.8745 H       1  UNL1        0.0428
     38 H          -1.7872   -0.4785   -1.5777 H       1  UNL1        0.0287
     39 H          -2.8534    0.4973   -2.7072 H       1  UNL1        0.0287
     40 H          -2.0116    2.6606   -1.9059 H       1  UNL1        0.0346
     41 H          -0.3463    3.6908    0.8686 H       1  UNL1        0.0256
     42 H          -1.5473    3.8849   -0.4127 H       1  UNL1        0.0256
     43 H          -2.0007    3.1224    1.1360 H       1  UNL1        0.0256
     44 H           0.2547    0.0891    1.5293 H       1  UNL1        0.0628
     45 H          -0.9013   -1.8640    4.2908 H       1  UNL1        0.0653
     46 H           0.3804   -2.9979    5.5112 H       1  UNL1        0.0640
     47 H           1.9171   -4.5114    6.7376 H       1  UNL1        0.0630
     48 H           4.0045   -5.1759    3.0883 H       1  UNL1        0.0841
     49 H          -3.2395   -1.6548    3.0788 H       1  UNL1        0.0624
     50 H          -4.6024   -0.1991    1.5648 H       1  UNL1        0.0646
     51 H           3.3932    2.0039   -0.2316 H       1  UNL1        0.1442
     52 H           3.3485    0.2152   -0.2553 H       1  UNL1        0.1442
@<TRIPOS>BOND
     1     1     2    1
     2     2     3    1
     3     2     4   am
     4     4     5    2
     5     6     4    1
     6     6     7    1
     7     7     8    1
     8     8     9    1
     9     9    10    1
    10     9    11    1
    11    11    12   ar
    12    12    13   ar
    13    13    14    1
    14    14    15    2
    15    15    16    1
    16    15    17    1
    17    17    18   ar
    18    18    19   ar
    19    19    20   ar
    20    20    21    1
    21    20    22   ar
    22    22    23   ar
    23    13    24   ar
    24    24    25   ar
    25    25    26   ar
    26    26    27    1
    27     9    28    1
    28    28    29    2
    29    29    30    1
    30    29    31    1
    31     8     6    1
    32    26    11   ar
    33    31     6    1
    34    23    17   ar
    35     1    32    1
    36     1    33    1
    37     1    34    1
    38     3    35    1
    39     3    36    1
    40     3    37    1
    41     7    38    1
    42     7    39    1
    43     8    40    1
    44    10    41    1
    45    10    42    1
    46    10    43    1
    47    12    44    1
    48    14    45    1
    49    18    46    1
    50    19    47    1
    51    22    48    1
    52    24    49    1
    53    25    50    1
    54    30    51    1
    55    30    52    1
