@<TRIPOS>MOLECULE
*****
 61 65 0 0 0
SMALL
GASTEIGER

@<TRIPOS>ATOM
      1 C           8.2426    1.4415   -0.5492 C.3     1  UNL1       -0.0130
      2 N           7.5606    1.1267   -1.7902 N.3     1  UNL1       -0.3066
      3 C           7.5035    2.3639   -2.5607 C.3     1  UNL1       -0.0130
      4 C           6.1894    0.7248   -1.5563 C.3     1  UNL1        0.0179
      5 C           6.1137   -0.6146   -0.8387 C.3     1  UNL1        0.0542
      6 N           4.7054   -0.9141   -0.6607 N.ar    1  UNL1       -0.2695
      7 C           3.9298   -0.5717    0.3904 C.ar    1  UNL1        0.0379
      8 C           2.6487   -1.0275    0.2014 C.ar    1  UNL1        0.0768
      9 C           1.5095   -0.8567    1.1122 C.ar    1  UNL1        0.2615
     10 N           0.2724   -1.2882    0.9349 N.ar    1  UNL1       -0.1908
     11 C          -0.4552   -0.9238    1.9970 C.ar    1  UNL1        0.1825
     12 C          -1.8764   -1.1416    2.3069 C.3     1  UNL1        0.0586
     13 C          -2.1708   -0.5173    3.6676 C.3     1  UNL1       -0.0482
     14 C          -2.7886   -0.5310    1.3365 C.ar    1  UNL1       -0.0337
     15 C          -2.6869    0.8056    0.9534 C.ar    1  UNL1       -0.0570
     16 C          -3.5537    1.3682    0.0437 C.ar    1  UNL1       -0.0537
     17 C          -4.5736    0.6253   -0.5361 C.ar    1  UNL1       -0.0150
     18 C          -5.4771    1.2455   -1.4979 C.ar    1  UNL1        0.0185
     19 C          -5.8132    2.5842   -1.4059 C.ar    1  UNL1        0.0403
     20 N          -6.6449    3.1729   -2.2875 N.ar    1  UNL1       -0.2225
     21 C          -7.1886    2.4801   -3.3030 C.ar    1  UNL1        0.2125
     22 N          -8.0537    3.0983   -4.2192 N.pl3   1  UNL1       -0.3275
     23 N          -6.8684    1.1780   -3.4015 N.ar    1  UNL1       -0.2225
     24 C          -6.0434    0.5464   -2.5463 C.ar    1  UNL1        0.0403
     25 C          -4.6806   -0.6957   -0.1625 C.ar    1  UNL1       -0.0537
     26 C          -3.7962   -1.2639    0.7639 C.ar    1  UNL1       -0.0570
     27 C          -2.1499   -2.6067    2.4507 C.3     1  UNL1       -0.0246
     28 C          -1.8795   -3.5548    1.2874 C.3     1  UNL1       -0.0487
     29 C          -1.0704   -3.6093    2.5302 C.3     1  UNL1       -0.0487
     30 N           0.4026   -0.2702    2.7895 N.ar    1  UNL1       -0.0600
     31 O           1.5624   -0.2347    2.2595 O.2     1  UNL1       -0.3327
     32 C           2.6688   -1.6696   -1.0189 C.ar    1  UNL1        0.0617
     33 N           3.9426   -1.5725   -1.5022 N.ar    1  UNL1       -0.1788
     34 H           7.6086    2.0981    0.1057 H       1  UNL1        0.0391
     35 H           8.4947    0.5404    0.0326 H       1  UNL1        0.0391
     36 H           9.1704    2.0011   -0.7657 H       1  UNL1        0.0391
     37 H           7.9559    3.2216   -2.0226 H       1  UNL1        0.0391
     38 H           6.4684    2.6572   -2.8181 H       1  UNL1        0.0391
     39 H           8.0678    2.2497   -3.5069 H       1  UNL1        0.0391
     40 H           5.6946    0.6017   -2.5236 H       1  UNL1        0.0444
     41 H           5.6355    1.4533   -0.9540 H       1  UNL1        0.0444
     42 H           6.5577   -0.4419    0.1698 H       1  UNL1        0.0521
     43 H           6.6231   -1.4001   -1.4152 H       1  UNL1        0.0521
     44 H           4.2964   -0.0135    1.2509 H       1  UNL1        0.0834
     45 H          -1.9965    0.5718    3.6289 H       1  UNL1        0.0242
     46 H          -1.4591   -0.9759    4.3894 H       1  UNL1        0.0242
     47 H          -3.2131   -0.6865    3.9894 H       1  UNL1        0.0242
     48 H          -1.9090    1.3761    1.3946 H       1  UNL1        0.0621
     49 H          -3.4824    2.4132   -0.2624 H       1  UNL1        0.0624
     50 H          -5.3738    3.1266   -0.5911 H       1  UNL1        0.0837
     51 H          -8.6145    3.9302   -3.9324 H       1  UNL1        0.1452
     52 H          -8.1839    2.7742   -5.2099 H       1  UNL1        0.1452
     53 H          -5.8145   -0.4949   -2.6615 H       1  UNL1        0.0837
     54 H          -5.4806   -1.2880   -0.6136 H       1  UNL1        0.0624
     55 H          -3.9433   -2.3142    1.0171 H       1  UNL1        0.0621
     56 H          -3.0968   -2.8291    2.9863 H       1  UNL1        0.0313
     57 H          -1.4541   -3.1126    0.3688 H       1  UNL1        0.0268
     58 H          -2.5901   -4.3737    1.1054 H       1  UNL1        0.0268
     59 H          -1.2464   -4.4713    3.2300 H       1  UNL1        0.0268
     60 H          -0.0073   -3.3602    2.4339 H       1  UNL1        0.0268
     61 H           1.8113   -2.1508   -1.4768 H       1  UNL1        0.0855
@<TRIPOS>BOND
     1     1     2    1
     2     2     3    1
     3     2     4    1
     4     4     5    1
     5     5     6    1
     6     6     7   ar
     7     7     8   ar
     8     8     9    1
     9     9    10   ar
    10    10    11   ar
    11    11    12    1
    12    12    13    1
    13    12    14    1
    14    14    15   ar
    15    15    16   ar
    16    16    17   ar
    17    17    18    1
    18    18    19   ar
    19    19    20   ar
    20    20    21   ar
    21    21    22    1
    22    21    23   ar
    23    23    24   ar
    24    17    25   ar
    25    25    26   ar
    26    12    27    1
    27    27    28    1
    28    28    29    1
    29    11    30   ar
    30    30    31   ar
    31     8    32   ar
    32    32    33   ar
    33    33     6   ar
    34    31     9   ar
    35    26    14   ar
    36    29    27    1
    37    24    18   ar
    38     1    34    1
    39     1    35    1
    40     1    36    1
    41     3    37    1
    42     3    38    1
    43     3    39    1
    44     4    40    1
    45     4    41    1
    46     5    42    1
    47     5    43    1
    48     7    44    1
    49    13    45    1
    50    13    46    1
    51    13    47    1
    52    15    48    1
    53    16    49    1
    54    19    50    1
    55    22    51    1
    56    22    52    1
    57    24    53    1
    58    25    54    1
    59    26    55    1
    60    27    56    1
    61    28    57    1
    62    28    58    1
    63    29    59    1
    64    29    60    1
    65    32    61    1
