
     RDKit          3D

 61 65  0  0  0  0  0  0  0  0999 V2000
    8.2426    1.4415   -0.5492 C   0  0  0  0  0  0  0  0  0  0  0  0
    7.5606    1.1267   -1.7902 N   0  0  0  0  0  0  0  0  0  0  0  0
    7.5035    2.3639   -2.5607 C   0  0  0  0  0  0  0  0  0  0  0  0
    6.1894    0.7248   -1.5563 C   0  0  0  0  0  0  0  0  0  0  0  0
    6.1137   -0.6146   -0.8387 C   0  0  0  0  0  0  0  0  0  0  0  0
    4.7054   -0.9141   -0.6607 N   0  0  0  0  0  0  0  0  0  0  0  0
    3.9298   -0.5717    0.3904 C   0  0  0  0  0  0  0  0  0  0  0  0
    2.6487   -1.0275    0.2014 C   0  0  0  0  0  0  0  0  0  0  0  0
    1.5095   -0.8567    1.1122 C   0  0  0  0  0  0  0  0  0  0  0  0
    0.2724   -1.2882    0.9349 N   0  0  0  0  0  0  0  0  0  0  0  0
   -0.4552   -0.9238    1.9970 C   0  0  0  0  0  0  0  0  0  0  0  0
   -1.8764   -1.1416    2.3069 C   0  0  1  0  0  0  0  0  0  0  0  0
   -2.1708   -0.5173    3.6676 C   0  0  0  0  0  0  0  0  0  0  0  0
   -2.7886   -0.5310    1.3365 C   0  0  0  0  0  0  0  0  0  0  0  0
   -2.6869    0.8056    0.9534 C   0  0  0  0  0  0  0  0  0  0  0  0
   -3.5537    1.3682    0.0437 C   0  0  0  0  0  0  0  0  0  0  0  0
   -4.5736    0.6253   -0.5361 C   0  0  0  0  0  0  0  0  0  0  0  0
   -5.4771    1.2455   -1.4979 C   0  0  0  0  0  0  0  0  0  0  0  0
   -5.8132    2.5842   -1.4059 C   0  0  0  0  0  0  0  0  0  0  0  0
   -6.6449    3.1729   -2.2875 N   0  0  0  0  0  0  0  0  0  0  0  0
   -7.1886    2.4801   -3.3030 C   0  0  0  0  0  0  0  0  0  0  0  0
   -8.0537    3.0983   -4.2192 N   0  0  0  0  0  0  0  0  0  0  0  0
   -6.8684    1.1780   -3.4015 N   0  0  0  0  0  0  0  0  0  0  0  0
   -6.0434    0.5464   -2.5463 C   0  0  0  0  0  0  0  0  0  0  0  0
   -4.6806   -0.6957   -0.1625 C   0  0  0  0  0  0  0  0  0  0  0  0
   -3.7962   -1.2639    0.7639 C   0  0  0  0  0  0  0  0  0  0  0  0
   -2.1499   -2.6067    2.4507 C   0  0  0  0  0  0  0  0  0  0  0  0
   -1.8795   -3.5548    1.2874 C   0  0  0  0  0  0  0  0  0  0  0  0
   -1.0704   -3.6093    2.5302 C   0  0  0  0  0  0  0  0  0  0  0  0
    0.4026   -0.2702    2.7895 N   0  0  0  0  0  0  0  0  0  0  0  0
    1.5624   -0.2347    2.2595 O   0  0  0  0  0  0  0  0  0  0  0  0
    2.6688   -1.6696   -1.0189 C   0  0  0  0  0  0  0  0  0  0  0  0
    3.9426   -1.5725   -1.5022 N   0  0  0  0  0  0  0  0  0  0  0  0
    7.6086    2.0981    0.1057 H   0  0  0  0  0  0  0  0  0  0  0  0
    8.4947    0.5404    0.0326 H   0  0  0  0  0  0  0  0  0  0  0  0
    9.1704    2.0011   -0.7657 H   0  0  0  0  0  0  0  0  0  0  0  0
    7.9559    3.2216   -2.0226 H   0  0  0  0  0  0  0  0  0  0  0  0
    6.4684    2.6572   -2.8181 H   0  0  0  0  0  0  0  0  0  0  0  0
    8.0678    2.2497   -3.5069 H   0  0  0  0  0  0  0  0  0  0  0  0
    5.6946    0.6017   -2.5236 H   0  0  0  0  0  0  0  0  0  0  0  0
    5.6355    1.4533   -0.9540 H   0  0  0  0  0  0  0  0  0  0  0  0
    6.5577   -0.4419    0.1698 H   0  0  0  0  0  0  0  0  0  0  0  0
    6.6231   -1.4001   -1.4152 H   0  0  0  0  0  0  0  0  0  0  0  0
    4.2964   -0.0135    1.2509 H   0  0  0  0  0  0  0  0  0  0  0  0
   -1.9965    0.5718    3.6289 H   0  0  0  0  0  0  0  0  0  0  0  0
   -1.4591   -0.9759    4.3894 H   0  0  0  0  0  0  0  0  0  0  0  0
   -3.2131   -0.6865    3.9894 H   0  0  0  0  0  0  0  0  0  0  0  0
   -1.9090    1.3761    1.3946 H   0  0  0  0  0  0  0  0  0  0  0  0
   -3.4824    2.4132   -0.2624 H   0  0  0  0  0  0  0  0  0  0  0  0
   -5.3738    3.1266   -0.5911 H   0  0  0  0  0  0  0  0  0  0  0  0
   -8.6145    3.9302   -3.9324 H   0  0  0  0  0  0  0  0  0  0  0  0
   -8.1839    2.7742   -5.2099 H   0  0  0  0  0  0  0  0  0  0  0  0
   -5.8145   -0.4949   -2.6615 H   0  0  0  0  0  0  0  0  0  0  0  0
   -5.4806   -1.2880   -0.6136 H   0  0  0  0  0  0  0  0  0  0  0  0
   -3.9433   -2.3142    1.0171 H   0  0  0  0  0  0  0  0  0  0  0  0
   -3.0968   -2.8291    2.9863 H   0  0  0  0  0  0  0  0  0  0  0  0
   -1.4541   -3.1126    0.3688 H   0  0  0  0  0  0  0  0  0  0  0  0
   -2.5901   -4.3737    1.1054 H   0  0  0  0  0  0  0  0  0  0  0  0
   -1.2464   -4.4713    3.2300 H   0  0  0  0  0  0  0  0  0  0  0  0
   -0.0073   -3.3602    2.4339 H   0  0  0  0  0  0  0  0  0  0  0  0
    1.8113   -2.1508   -1.4768 H   0  0  0  0  0  0  0  0  0  0  0  0
  1  2  1  0
  2  3  1  0
  2  4  1  0
  4  5  1  0
  5  6  1  0
  6  7  1  0
  7  8  2  0
  8  9  1  0
  9 10  2  0
 10 11  1  0
 11 12  1  0
 12 13  1  1
 12 14  1  0
 14 15  2  0
 15 16  1  0
 16 17  2  0
 17 18  1  0
 18 19  2  0
 19 20  1  0
 20 21  2  0
 21 22  1  0
 21 23  1  0
 23 24  2  0
 17 25  1  0
 25 26  2  0
 12 27  1  0
 27 28  1  0
 28 29  1  0
 11 30  2  0
 30 31  1  0
  8 32  1  0
 32 33  2  0
 33  6  1  0
 31  9  1  0
 26 14  1  0
 29 27  1  0
 24 18  1  0
  1 34  1  0
  1 35  1  0
  1 36  1  0
  3 37  1  0
  3 38  1  0
  3 39  1  0
  4 40  1  0
  4 41  1  0
  5 42  1  0
  5 43  1  0
  7 44  1  0
 13 45  1  0
 13 46  1  0
 13 47  1  0
 15 48  1  0
 16 49  1  0
 19 50  1  0
 22 51  1  0
 22 52  1  0
 24 53  1  0
 25 54  1  0
 26 55  1  0
 27 56  1  0
 28 57  1  0
 28 58  1  0
 29 59  1  0
 29 60  1  0
 32 61  1  0
M  END
$$$$
