@<TRIPOS>MOLECULE
*****
 50 52 0 0 0
SMALL
GASTEIGER

@<TRIPOS>ATOM
      1 O           6.9204    1.5566   -0.3761 O.3     1  UNL1       -0.3917
      2 C           5.7895    0.8712    0.1012 C.3     1  UNL1        0.0783
      3 C           5.0002    1.8214    0.9652 C.3     1  UNL1        0.1126
      4 O           3.8396    1.3103    1.5238 O.3     1  UNL1       -0.4897
      5 C           2.7617    0.8542    0.8738 C.ar    1  UNL1        0.1206
      6 C           2.3315    0.6867   -0.4202 C.ar    1  UNL1       -0.0194
      7 C           1.1532    0.1850   -0.8516 C.ar    1  UNL1       -0.0506
      8 C           0.2419   -0.2204    0.1096 C.ar    1  UNL1       -0.0168
      9 C           0.5624   -0.1006    1.4550 C.ar    1  UNL1       -0.0506
     10 C           1.8067    0.4297    1.8055 C.ar    1  UNL1       -0.0194
     11 C          -1.0071   -0.7872   -0.4193 C.2     1  UNL1       -0.0070
     12 C          -2.1397   -0.3419    0.0778 C.2     1  UNL1       -0.0309
     13 C          -3.4426   -0.8636   -0.3918 C.3     1  UNL1       -0.0131
     14 C          -4.1870    0.3173   -1.0233 C.3     1  UNL1        0.0266
     15 CL         -5.7812   -0.1842   -1.6263 Cl      1  UNL1       -0.1251
     16 C          -2.2895    0.6997    1.0841 C.ar    1  UNL1       -0.0212
     17 C          -3.1782    0.6030    2.1355 C.ar    1  UNL1       -0.0543
     18 C          -3.3773    1.5538    3.1138 C.ar    1  UNL1       -0.0612
     19 C          -2.6173    2.7196    3.0414 C.ar    1  UNL1       -0.0617
     20 C          -1.7077    2.8669    2.0011 C.ar    1  UNL1       -0.0612
     21 C          -1.5482    1.8811    1.0460 C.ar    1  UNL1       -0.0543
     22 C          -0.8583   -1.7746   -1.4780 C.ar    1  UNL1       -0.0170
     23 C          -1.3955   -1.9127   -2.7211 C.ar    1  UNL1       -0.0540
     24 C          -1.1018   -2.9958   -3.5095 C.ar    1  UNL1       -0.0612
     25 C          -0.2414   -4.0307   -3.1111 C.ar    1  UNL1       -0.0617
     26 C           0.3209   -3.9067   -1.8374 C.ar    1  UNL1       -0.0612
     27 C           0.0056   -2.8000   -1.0617 C.ar    1  UNL1       -0.0540
     28 H           6.6408    2.0388   -1.1830 H       1  UNL1        0.2095
     29 H           5.2294    0.3798   -0.7008 H       1  UNL1        0.0591
     30 H           6.1956    0.0944    0.8220 H       1  UNL1        0.0591
     31 H           4.7946    2.7399    0.3373 H       1  UNL1        0.0720
     32 H           5.6470    2.1389    1.8420 H       1  UNL1        0.0720
     33 H           3.0642    1.0257   -1.1230 H       1  UNL1        0.0654
     34 H           0.9992    0.1339   -1.9293 H       1  UNL1        0.0625
     35 H          -0.2035   -0.4417    2.1065 H       1  UNL1        0.0625
     36 H           1.8704    0.4440    2.9034 H       1  UNL1        0.0654
     37 H          -3.3862   -1.6265   -1.1857 H       1  UNL1        0.0325
     38 H          -4.0537   -1.2479    0.4696 H       1  UNL1        0.0325
     39 H          -4.3321    1.1507   -0.3253 H       1  UNL1        0.0433
     40 H          -3.5386    0.6983   -1.8609 H       1  UNL1        0.0433
     41 H          -3.7970   -0.2739    2.2504 H       1  UNL1        0.0624
     42 H          -4.0838    1.4471    3.9317 H       1  UNL1        0.0618
     43 H          -2.7695    3.4637    3.8057 H       1  UNL1        0.0618
     44 H          -1.1065    3.7889    1.9390 H       1  UNL1        0.0618
     45 H          -0.8358    2.0699    0.2701 H       1  UNL1        0.0624
     46 H          -2.0355   -1.0933   -2.9932 H       1  UNL1        0.0624
     47 H          -1.6034   -2.9701   -4.4737 H       1  UNL1        0.0618
     48 H          -0.0588   -4.8466   -3.7807 H       1  UNL1        0.0618
     49 H           0.9771   -4.6985   -1.5354 H       1  UNL1        0.0618
     50 H           0.5254   -2.8534   -0.0928 H       1  UNL1        0.0624
@<TRIPOS>BOND
     1     1     2    1
     2     2     3    1
     3     3     4    1
     4     4     5    1
     5     5     6   ar
     6     6     7   ar
     7     7     8   ar
     8     8     9   ar
     9     9    10   ar
    10     8    11    1
    11    11    12    2
    12    12    13    1
    13    13    14    1
    14    14    15    1
    15    12    16    1
    16    16    17   ar
    17    17    18   ar
    18    18    19   ar
    19    19    20   ar
    20    20    21   ar
    21    11    22    1
    22    22    23   ar
    23    23    24   ar
    24    24    25   ar
    25    25    26   ar
    26    26    27   ar
    27    10     5   ar
    28    21    16   ar
    29    27    22   ar
    30     1    28    1
    31     2    29    1
    32     2    30    1
    33     3    31    1
    34     3    32    1
    35     6    33    1
    36     7    34    1
    37     9    35    1
    38    10    36    1
    39    13    37    1
    40    13    38    1
    41    14    39    1
    42    14    40    1
    43    17    41    1
    44    18    42    1
    45    19    43    1
    46    20    44    1
    47    21    45    1
    48    23    46    1
    49    24    47    1
    50    25    48    1
    51    26    49    1
    52    27    50    1
