
     RDKit          3D

 47 51  0  0  0  0  0  0  0  0999 V2000
    7.5825    2.9186   -0.8975 O   0  0  0  0  0  0  0  0  0  0  0  0
    6.4874    2.6508   -0.0899 C   0  0  0  0  0  0  0  0  0  0  0  0
    6.3309    1.8543   -1.0463 O   0  0  0  0  0  0  0  0  0  0  0  0
    5.3817    2.4954    0.8880 C   0  0  0  0  0  0  0  0  0  0  0  0
    4.4164    1.4509    0.4605 C   0  0  0  0  0  0  0  0  0  0  0  0
    4.6564    0.1436    0.8887 C   0  0  0  0  0  0  0  0  0  0  0  0
    3.8078   -0.8877    0.5359 C   0  0  0  0  0  0  0  0  0  0  0  0
    2.6880   -0.6701   -0.2538 C   0  0  0  0  0  0  0  0  0  0  0  0
    2.4537    0.6226   -0.6752 C   0  0  0  0  0  0  0  0  0  0  0  0
    3.2998    1.6576   -0.3249 C   0  0  0  0  0  0  0  0  0  0  0  0
    1.8563   -1.8223   -0.5709 C   0  0  0  0  0  0  0  0  0  0  0  0
    2.4193   -3.0215   -0.9714 C   0  0  0  0  0  0  0  0  0  0  0  0
    1.4700   -3.9440   -1.2114 N   0  0  0  0  0  0  0  0  0  0  0  0
    0.2779   -3.3677   -0.9734 C   0  0  0  0  0  0  0  0  0  0  0  0
   -1.0034   -3.7804   -1.0385 N   0  0  0  0  0  0  0  0  0  0  0  0
   -2.0007   -2.9273   -0.7242 C   0  0  0  0  0  0  0  0  0  0  0  0
   -1.7929   -1.6051   -0.3235 C   0  0  0  0  0  0  0  0  0  0  0  0
   -0.4907   -1.1534   -0.2473 C   0  0  0  0  0  0  0  0  0  0  0  0
    0.4956   -2.0640   -0.5789 C   0  0  0  0  0  0  0  0  0  0  0  0
   -2.9494   -0.7740   -0.0084 C   0  0  0  0  0  0  0  0  0  0  0  0
   -4.0311   -1.4770    0.5326 C   0  0  0  0  0  0  0  0  0  0  0  0
   -5.1830   -0.7792    0.8671 C   0  0  0  0  0  0  0  0  0  0  0  0
   -5.2998    0.5751    0.6868 C   0  0  0  0  0  0  0  0  0  0  0  0
   -6.4353    1.2899    1.0120 C   0  0  0  0  0  0  0  0  0  0  0  0
   -6.5513    2.6487    0.8308 C   0  0  0  0  0  0  0  0  0  0  0  0
   -5.4510    3.3114    0.2894 C   0  0  0  0  0  0  0  0  0  0  0  0
   -4.3184    2.5976   -0.0348 C   0  0  0  0  0  0  0  0  0  0  0  0
   -4.2163    1.2372    0.1521 C   0  0  0  0  0  0  0  0  0  0  0  0
   -3.0481    0.5886   -0.1971 C   0  0  0  0  0  0  0  0  0  0  0  0
    8.5407    2.8274   -0.5249 H   0  0  0  0  0  0  0  0  0  0  0  0
    4.9026    3.5010    1.0113 H   0  0  0  0  0  0  0  0  0  0  0  0
    5.7997    2.2071    1.8549 H   0  0  0  0  0  0  0  0  0  0  0  0
    5.5064   -0.0921    1.5026 H   0  0  0  0  0  0  0  0  0  0  0  0
    4.0285   -1.8823    0.8871 H   0  0  0  0  0  0  0  0  0  0  0  0
    1.5896    0.7976   -1.2860 H   0  0  0  0  0  0  0  0  0  0  0  0
    3.1167    2.6714   -0.6552 H   0  0  0  0  0  0  0  0  0  0  0  0
    3.4731   -3.2976   -1.1094 H   0  0  0  0  0  0  0  0  0  0  0  0
    1.5675   -4.9420   -1.5261 H   0  0  0  0  0  0  0  0  0  0  0  0
   -2.9954   -3.3461   -0.8055 H   0  0  0  0  0  0  0  0  0  0  0  0
   -0.2903   -0.1558    0.0530 H   0  0  0  0  0  0  0  0  0  0  0  0
   -4.0876   -2.5260    0.7299 H   0  0  0  0  0  0  0  0  0  0  0  0
   -6.0686   -1.2631    1.2944 H   0  0  0  0  0  0  0  0  0  0  0  0
   -7.2750    0.7575    1.4294 H   0  0  0  0  0  0  0  0  0  0  0  0
   -7.4524    3.1804    1.0945 H   0  0  0  0  0  0  0  0  0  0  0  0
   -5.5245    4.3861    0.1387 H   0  0  0  0  0  0  0  0  0  0  0  0
   -3.5006    3.1504   -0.4472 H   0  0  0  0  0  0  0  0  0  0  0  0
   -2.1827    1.0803   -0.6182 H   0  0  0  0  0  0  0  0  0  0  0  0
  1  2  1  0
  2  3  2  0
  2  4  1  0
  4  5  1  0
  5  6  2  0
  6  7  1  0
  7  8  2  0
  8  9  1  0
  9 10  2  0
  8 11  1  0
 11 12  2  0
 12 13  1  0
 13 14  1  0
 14 15  2  0
 15 16  1  0
 16 17  2  0
 17 18  1  0
 18 19  2  0
 17 20  1  0
 20 21  2  0
 21 22  1  0
 22 23  2  0
 23 24  1  0
 24 25  2  0
 25 26  1  0
 26 27  2  0
 27 28  1  0
 28 29  2  0
 10  5  1  0
 19 11  1  0
 29 20  1  0
 19 14  1  0
 28 23  1  0
  1 30  1  0
  4 31  1  0
  4 32  1  0
  6 33  1  0
  7 34  1  0
  9 35  1  0
 10 36  1  0
 12 37  1  0
 13 38  1  0
 16 39  1  0
 18 40  1  0
 21 41  1  0
 22 42  1  0
 24 43  1  0
 25 44  1  0
 26 45  1  0
 27 46  1  0
 29 47  1  0
M  END
$$$$
