@<TRIPOS>MOLECULE
*****
 50 52 0 0 0
SMALL
GASTEIGER

@<TRIPOS>ATOM
      1 C          -2.6181   -2.4981    2.1224 C.3     1  UNL1       -0.0470
      2 C          -1.9120   -2.8982    0.8545 C.3     1  UNL1        0.0225
      3 N          -0.6557   -2.1556    0.7236 N.ar    1  UNL1       -0.3223
      4 C           0.5558   -2.4549    1.1145 C.ar    1  UNL1        0.1672
      5 C           1.1010   -3.6344    1.7563 C.ar    1  UNL1        0.1904
      6 N           2.4695   -3.7491    2.0158 N.ar    1  UNL1       -0.0438
      7 O           2.6901   -4.8683    2.5553 O.2     1  UNL1       -0.2402
      8 N           1.6440   -5.5384    2.7022 N.ar    1  UNL1       -0.0335
      9 C           0.5891   -4.7927    2.2049 C.ar    1  UNL1        0.1909
     10 N          -0.7002   -5.2979    2.2344 N.pl3   1  UNL1       -0.3386
     11 N           1.3386   -1.3648    0.7477 N.ar    1  UNL1       -0.2229
     12 C           0.7772   -0.4489    0.1911 C.ar    1  UNL1        0.1234
     13 C           0.4509    0.8043   -0.4870 C.ar    1  UNL1        0.1411
     14 C           1.9608    1.3901   -0.0240 C.1     1  UNL1       -0.0414
     15 C           3.0306    1.8003    0.2833 C.1     1  UNL1       -0.0614
     16 C           4.4768    2.3796    0.7172 C.3     1  UNL1        0.1212
     17 C           4.3172    3.8557    0.6429 C.3     1  UNL1       -0.0249
     18 C           5.3166    1.8595   -0.3956 C.3     1  UNL1       -0.0249
     19 O           4.7025    1.9119    1.9524 O.3     1  UNL1       -0.3771
     20 N          -0.0568    1.6041   -0.9832 N.ar    1  UNL1       -0.2410
     21 C          -1.5053    1.1178   -1.0423 C.ar    1  UNL1        0.0448
     22 C          -2.4801    1.9594   -1.5959 C.3     1  UNL1       -0.0092
     23 C          -2.7042    1.8153   -3.0948 C.3     1  UNL1       -0.0352
     24 C          -3.7464    2.8603   -3.4840 C.3     1  UNL1       -0.0066
     25 N          -4.9672    2.6222   -2.7204 N.3     1  UNL1       -0.3300
     26 C          -1.5942   -0.1128   -0.4596 C.ar    1  UNL1       -0.0146
     27 C          -0.6833   -0.9456    0.1350 C.ar    1  UNL1        0.0736
     28 H          -2.2717   -3.1178    2.9545 H       1  UNL1        0.0247
     29 H          -2.3893   -1.4268    2.3983 H       1  UNL1        0.0247
     30 H          -3.7145   -2.6535    2.0455 H       1  UNL1        0.0247
     31 H          -1.9143   -3.9220    0.5985 H       1  UNL1        0.0490
     32 H          -2.6106   -2.4442    0.0352 H       1  UNL1        0.0490
     33 H          -1.0468   -5.8730    1.4006 H       1  UNL1        0.1439
     34 H          -1.3670   -5.1971    2.9996 H       1  UNL1        0.1439
     35 H           5.2049    4.2672    0.1062 H       1  UNL1        0.0267
     36 H           3.3996    4.1606    0.1036 H       1  UNL1        0.0267
     37 H           4.2550    4.3362    1.6476 H       1  UNL1        0.0267
     38 H           5.3976    0.7825   -0.2935 H       1  UNL1        0.0267
     39 H           4.7254    2.0667   -1.3449 H       1  UNL1        0.0267
     40 H           6.3095    2.3547   -0.4771 H       1  UNL1        0.0267
     41 H           5.5930    1.5418    2.1153 H       1  UNL1        0.2114
     42 H          -2.2228    3.0531   -1.4318 H       1  UNL1        0.0329
     43 H          -3.4681    1.7621   -1.0877 H       1  UNL1        0.0329
     44 H          -1.7825    2.0380   -3.6508 H       1  UNL1        0.0281
     45 H          -3.1165    0.8128   -3.3163 H       1  UNL1        0.0281
     46 H          -3.9586    2.7502   -4.5634 H       1  UNL1        0.0422
     47 H          -3.3968    3.8714   -3.2324 H       1  UNL1        0.0422
     48 H          -4.9941    3.2610   -1.8913 H       1  UNL1        0.1182
     49 H          -5.7940    2.9081   -3.3239 H       1  UNL1        0.1182
     50 H          -2.6349   -0.5527   -0.4585 H       1  UNL1        0.0657
@<TRIPOS>BOND
     1     1     2    1
     2     2     3    1
     3     3     4   ar
     4     4     5    1
     5     5     6   ar
     6     6     7   ar
     7     7     8   ar
     8     8     9   ar
     9     9    10    1
    10     4    11   ar
    11    11    12   ar
    12    12    13   ar
    13    13    14    1
    14    14    15    3
    15    15    16    1
    16    16    17    1
    17    16    18    1
    18    16    19    1
    19    13    20   ar
    20    20    21   ar
    21    21    22    1
    22    22    23    1
    23    23    24    1
    24    24    25    1
    25    21    26   ar
    26    26    27   ar
    27    27     3   ar
    28     9     5   ar
    29    27    12   ar
    30     1    28    1
    31     1    29    1
    32     1    30    1
    33     2    31    1
    34     2    32    1
    35    10    33    1
    36    10    34    1
    37    17    35    1
    38    17    36    1
    39    17    37    1
    40    18    38    1
    41    18    39    1
    42    18    40    1
    43    19    41    1
    44    22    42    1
    45    22    43    1
    46    23    44    1
    47    23    45    1
    48    24    46    1
    49    24    47    1
    50    25    48    1
    51    25    49    1
    52    26    50    1
