
     RDKit          3D

 50 52  0  0  0  0  0  0  0  0999 V2000
   -2.6181   -2.4981    2.1224 C   0  0  0  0  0  0  0  0  0  0  0  0
   -1.9120   -2.8982    0.8545 C   0  0  0  0  0  0  0  0  0  0  0  0
   -0.6557   -2.1556    0.7236 N   0  0  0  0  0  0  0  0  0  0  0  0
    0.5558   -2.4549    1.1145 C   0  0  0  0  0  0  0  0  0  0  0  0
    1.1010   -3.6344    1.7563 C   0  0  0  0  0  0  0  0  0  0  0  0
    2.4695   -3.7491    2.0158 N   0  0  0  0  0  0  0  0  0  0  0  0
    2.6901   -4.8683    2.5553 O   0  0  0  0  0  0  0  0  0  0  0  0
    1.6440   -5.5384    2.7022 N   0  0  0  0  0  0  0  0  0  0  0  0
    0.5891   -4.7927    2.2049 C   0  0  0  0  0  0  0  0  0  0  0  0
   -0.7002   -5.2979    2.2344 N   0  0  0  0  0  0  0  0  0  0  0  0
    1.3386   -1.3648    0.7477 N   0  0  0  0  0  0  0  0  0  0  0  0
    0.7772   -0.4489    0.1911 C   0  0  0  0  0  0  0  0  0  0  0  0
    0.4509    0.8043   -0.4870 C   0  0  0  0  0  0  0  0  0  0  0  0
    1.9608    1.3901   -0.0240 C   0  0  0  0  0  0  0  0  0  0  0  0
    3.0306    1.8003    0.2833 C   0  0  0  0  0  0  0  0  0  0  0  0
    4.4768    2.3796    0.7172 C   0  0  0  0  0  0  0  0  0  0  0  0
    4.3172    3.8557    0.6429 C   0  0  0  0  0  0  0  0  0  0  0  0
    5.3166    1.8595   -0.3956 C   0  0  0  0  0  0  0  0  0  0  0  0
    4.7025    1.9119    1.9524 O   0  0  0  0  0  0  0  0  0  0  0  0
   -0.0568    1.6041   -0.9832 N   0  0  0  0  0  0  0  0  0  0  0  0
   -1.5053    1.1178   -1.0423 C   0  0  0  0  0  0  0  0  0  0  0  0
   -2.4801    1.9594   -1.5959 C   0  0  0  0  0  0  0  0  0  0  0  0
   -2.7042    1.8153   -3.0948 C   0  0  0  0  0  0  0  0  0  0  0  0
   -3.7464    2.8603   -3.4840 C   0  0  0  0  0  0  0  0  0  0  0  0
   -4.9672    2.6222   -2.7204 N   0  0  0  0  0  0  0  0  0  0  0  0
   -1.5942   -0.1128   -0.4596 C   0  0  0  0  0  0  0  0  0  0  0  0
   -0.6833   -0.9456    0.1350 C   0  0  0  0  0  0  0  0  0  0  0  0
   -2.2717   -3.1178    2.9545 H   0  0  0  0  0  0  0  0  0  0  0  0
   -2.3893   -1.4268    2.3983 H   0  0  0  0  0  0  0  0  0  0  0  0
   -3.7145   -2.6535    2.0455 H   0  0  0  0  0  0  0  0  0  0  0  0
   -1.9143   -3.9220    0.5985 H   0  0  0  0  0  0  0  0  0  0  0  0
   -2.6106   -2.4442    0.0352 H   0  0  0  0  0  0  0  0  0  0  0  0
   -1.0468   -5.8730    1.4006 H   0  0  0  0  0  0  0  0  0  0  0  0
   -1.3670   -5.1971    2.9996 H   0  0  0  0  0  0  0  0  0  0  0  0
    5.2049    4.2672    0.1062 H   0  0  0  0  0  0  0  0  0  0  0  0
    3.3996    4.1606    0.1036 H   0  0  0  0  0  0  0  0  0  0  0  0
    4.2550    4.3362    1.6476 H   0  0  0  0  0  0  0  0  0  0  0  0
    5.3976    0.7825   -0.2935 H   0  0  0  0  0  0  0  0  0  0  0  0
    4.7254    2.0667   -1.3449 H   0  0  0  0  0  0  0  0  0  0  0  0
    6.3095    2.3547   -0.4771 H   0  0  0  0  0  0  0  0  0  0  0  0
    5.5930    1.5418    2.1153 H   0  0  0  0  0  0  0  0  0  0  0  0
   -2.2228    3.0531   -1.4318 H   0  0  0  0  0  0  0  0  0  0  0  0
   -3.4681    1.7621   -1.0877 H   0  0  0  0  0  0  0  0  0  0  0  0
   -1.7825    2.0380   -3.6508 H   0  0  0  0  0  0  0  0  0  0  0  0
   -3.1165    0.8128   -3.3163 H   0  0  0  0  0  0  0  0  0  0  0  0
   -3.9586    2.7502   -4.5634 H   0  0  0  0  0  0  0  0  0  0  0  0
   -3.3968    3.8714   -3.2324 H   0  0  0  0  0  0  0  0  0  0  0  0
   -4.9941    3.2610   -1.8913 H   0  0  0  0  0  0  0  0  0  0  0  0
   -5.7940    2.9081   -3.3239 H   0  0  0  0  0  0  0  0  0  0  0  0
   -2.6349   -0.5527   -0.4585 H   0  0  0  0  0  0  0  0  0  0  0  0
  1  2  1  0
  2  3  1  0
  3  4  1  0
  4  5  1  0
  5  6  2  0
  6  7  1  0
  7  8  1  0
  8  9  2  0
  9 10  1  0
  4 11  2  0
 11 12  1  0
 12 13  2  0
 13 14  1  0
 14 15  3  0
 15 16  1  0
 16 17  1  0
 16 18  1  0
 16 19  1  0
 13 20  1  0
 20 21  2  0
 21 22  1  0
 22 23  1  0
 23 24  1  0
 24 25  1  0
 21 26  1  0
 26 27  2  0
 27  3  1  0
  9  5  1  0
 27 12  1  0
  1 28  1  0
  1 29  1  0
  1 30  1  0
  2 31  1  0
  2 32  1  0
 10 33  1  0
 10 34  1  0
 17 35  1  0
 17 36  1  0
 17 37  1  0
 18 38  1  0
 18 39  1  0
 18 40  1  0
 19 41  1  0
 22 42  1  0
 22 43  1  0
 23 44  1  0
 23 45  1  0
 24 46  1  0
 24 47  1  0
 25 48  1  0
 25 49  1  0
 26 50  1  0
M  END
$$$$
