@<TRIPOS>MOLECULE
*****
 41 44 0 0 0
SMALL
GASTEIGER

@<TRIPOS>ATOM
      1 O           5.6856   -0.2763   -3.2193 O.3     1  UNL1       -0.5067
      2 C           5.2622   -0.1909   -1.9010 C.ar    1  UNL1        0.1174
      3 C           6.1764   -0.1076   -0.8474 C.ar    1  UNL1       -0.0201
      4 C           5.6559   -0.0270    0.4202 C.ar    1  UNL1       -0.0577
      5 C           4.2985   -0.0266    0.6645 C.ar    1  UNL1       -0.0538
      6 C           3.3988   -0.1082   -0.3681 C.ar    1  UNL1       -0.0144
      7 C           1.9865   -0.1039   -0.0778 C.ar    1  UNL1       -0.0172
      8 C           1.0366    0.4235   -0.9288 C.ar    1  UNL1       -0.0534
      9 C          -0.3242    0.4207   -0.6279 C.ar    1  UNL1       -0.0528
     10 C          -0.7242   -0.1270    0.5569 C.ar    1  UNL1       -0.0067
     11 C          -2.0374   -0.1586    0.9083 C.ar    1  UNL1        0.0314
     12 C          -3.0633    0.3917    0.0356 C.ar    1  UNL1       -0.0104
     13 C          -3.4372    1.7138    0.1429 C.ar    1  UNL1       -0.0537
     14 C          -4.4199    2.2595   -0.6828 C.ar    1  UNL1       -0.0577
     15 C          -5.0480    1.4893   -1.6336 C.ar    1  UNL1       -0.0201
     16 C          -4.6798    0.1671   -1.7470 C.ar    1  UNL1        0.1174
     17 O          -5.2965   -0.6282   -2.6953 O.3     1  UNL1       -0.5067
     18 C          -3.6956   -0.3726   -0.9174 C.ar    1  UNL1       -0.0123
     19 C          -2.4775   -0.7126    2.1165 C.ar    1  UNL1        0.1251
     20 O          -3.8281   -0.7307    2.4487 O.3     1  UNL1       -0.5061
     21 C          -1.5608   -1.2460    2.9859 C.ar    1  UNL1       -0.0190
     22 C          -0.2184   -1.2235    2.6468 C.ar    1  UNL1       -0.0505
     23 C           0.1873   -0.6666    1.4402 C.ar    1  UNL1       -0.0165
     24 C           1.5168   -0.6459    1.1103 C.ar    1  UNL1       -0.0463
     25 C           3.8990   -0.1904   -1.6546 C.ar    1  UNL1       -0.0125
     26 H           6.3786   -0.9701   -3.5131 H       1  UNL1        0.2921
     27 H           7.2325   -0.1077   -1.0355 H       1  UNL1        0.0654
     28 H           6.3524    0.0395    1.2639 H       1  UNL1        0.0619
     29 H           3.9924    0.0416    1.7082 H       1  UNL1        0.0624
     30 H           1.3434    0.8632   -1.8769 H       1  UNL1        0.0624
     31 H          -1.0707    0.8275   -1.2816 H       1  UNL1        0.0624
     32 H          -2.9773    2.3734    0.8751 H       1  UNL1        0.0624
     33 H          -4.7151    3.2948   -0.6009 H       1  UNL1        0.0619
     34 H          -5.8252    1.9118   -2.2897 H       1  UNL1        0.0654
     35 H          -5.6626   -1.5205   -2.3839 H       1  UNL1        0.2921
     36 H          -3.4187   -1.4108   -1.0195 H       1  UNL1        0.0660
     37 H          -4.1222   -0.0117    3.1229 H       1  UNL1        0.2922
     38 H          -1.8160   -1.6951    3.9431 H       1  UNL1        0.0654
     39 H           0.5497   -1.6285    3.2908 H       1  UNL1        0.0625
     40 H           2.2339   -1.0743    1.8133 H       1  UNL1        0.0630
     41 H           3.2321   -0.2561   -2.4955 H       1  UNL1        0.0660
@<TRIPOS>BOND
     1     1     2    1
     2     2     3   ar
     3     3     4   ar
     4     4     5   ar
     5     5     6   ar
     6     6     7    1
     7     7     8   ar
     8     8     9   ar
     9     9    10   ar
    10    10    11   ar
    11    11    12    1
    12    12    13   ar
    13    13    14   ar
    14    14    15   ar
    15    15    16   ar
    16    16    17    1
    17    16    18   ar
    18    11    19   ar
    19    19    20    1
    20    19    21   ar
    21    21    22   ar
    22    22    23   ar
    23    23    24   ar
    24     6    25   ar
    25    25     2   ar
    26    24     7   ar
    27    23    10   ar
    28    18    12   ar
    29     1    26    1
    30     3    27    1
    31     4    28    1
    32     5    29    1
    33     8    30    1
    34     9    31    1
    35    13    32    1
    36    14    33    1
    37    15    34    1
    38    17    35    1
    39    18    36    1
    40    20    37    1
    41    21    38    1
    42    22    39    1
    43    24    40    1
    44    25    41    1
