
     RDKit          3D

 41 44  0  0  0  0  0  0  0  0999 V2000
    5.6856   -0.2763   -3.2193 O   0  0  0  0  0  0  0  0  0  0  0  0
    5.2622   -0.1909   -1.9010 C   0  0  0  0  0  0  0  0  0  0  0  0
    6.1764   -0.1076   -0.8474 C   0  0  0  0  0  0  0  0  0  0  0  0
    5.6559   -0.0270    0.4202 C   0  0  0  0  0  0  0  0  0  0  0  0
    4.2985   -0.0266    0.6645 C   0  0  0  0  0  0  0  0  0  0  0  0
    3.3988   -0.1082   -0.3681 C   0  0  0  0  0  0  0  0  0  0  0  0
    1.9865   -0.1039   -0.0778 C   0  0  0  0  0  0  0  0  0  0  0  0
    1.0366    0.4235   -0.9288 C   0  0  0  0  0  0  0  0  0  0  0  0
   -0.3242    0.4207   -0.6279 C   0  0  0  0  0  0  0  0  0  0  0  0
   -0.7242   -0.1270    0.5569 C   0  0  0  0  0  0  0  0  0  0  0  0
   -2.0374   -0.1586    0.9083 C   0  0  0  0  0  0  0  0  0  0  0  0
   -3.0633    0.3917    0.0356 C   0  0  0  0  0  0  0  0  0  0  0  0
   -3.4372    1.7138    0.1429 C   0  0  0  0  0  0  0  0  0  0  0  0
   -4.4199    2.2595   -0.6828 C   0  0  0  0  0  0  0  0  0  0  0  0
   -5.0480    1.4893   -1.6336 C   0  0  0  0  0  0  0  0  0  0  0  0
   -4.6798    0.1671   -1.7470 C   0  0  0  0  0  0  0  0  0  0  0  0
   -5.2965   -0.6282   -2.6953 O   0  0  0  0  0  0  0  0  0  0  0  0
   -3.6956   -0.3726   -0.9174 C   0  0  0  0  0  0  0  0  0  0  0  0
   -2.4775   -0.7126    2.1165 C   0  0  0  0  0  0  0  0  0  0  0  0
   -3.8281   -0.7307    2.4487 O   0  0  0  0  0  0  0  0  0  0  0  0
   -1.5608   -1.2460    2.9859 C   0  0  0  0  0  0  0  0  0  0  0  0
   -0.2184   -1.2235    2.6468 C   0  0  0  0  0  0  0  0  0  0  0  0
    0.1873   -0.6666    1.4402 C   0  0  0  0  0  0  0  0  0  0  0  0
    1.5168   -0.6459    1.1103 C   0  0  0  0  0  0  0  0  0  0  0  0
    3.8990   -0.1904   -1.6546 C   0  0  0  0  0  0  0  0  0  0  0  0
    6.3786   -0.9701   -3.5131 H   0  0  0  0  0  0  0  0  0  0  0  0
    7.2325   -0.1077   -1.0355 H   0  0  0  0  0  0  0  0  0  0  0  0
    6.3524    0.0395    1.2639 H   0  0  0  0  0  0  0  0  0  0  0  0
    3.9924    0.0416    1.7082 H   0  0  0  0  0  0  0  0  0  0  0  0
    1.3434    0.8632   -1.8769 H   0  0  0  0  0  0  0  0  0  0  0  0
   -1.0707    0.8275   -1.2816 H   0  0  0  0  0  0  0  0  0  0  0  0
   -2.9773    2.3734    0.8751 H   0  0  0  0  0  0  0  0  0  0  0  0
   -4.7151    3.2948   -0.6009 H   0  0  0  0  0  0  0  0  0  0  0  0
   -5.8252    1.9118   -2.2897 H   0  0  0  0  0  0  0  0  0  0  0  0
   -5.6626   -1.5205   -2.3839 H   0  0  0  0  0  0  0  0  0  0  0  0
   -3.4187   -1.4108   -1.0195 H   0  0  0  0  0  0  0  0  0  0  0  0
   -4.1222   -0.0117    3.1229 H   0  0  0  0  0  0  0  0  0  0  0  0
   -1.8160   -1.6951    3.9431 H   0  0  0  0  0  0  0  0  0  0  0  0
    0.5497   -1.6285    3.2908 H   0  0  0  0  0  0  0  0  0  0  0  0
    2.2339   -1.0743    1.8133 H   0  0  0  0  0  0  0  0  0  0  0  0
    3.2321   -0.2561   -2.4955 H   0  0  0  0  0  0  0  0  0  0  0  0
  1  2  1  0
  2  3  2  0
  3  4  1  0
  4  5  2  0
  5  6  1  0
  6  7  1  0
  7  8  2  0
  8  9  1  0
  9 10  2  0
 10 11  1  0
 11 12  1  0
 12 13  2  0
 13 14  1  0
 14 15  2  0
 15 16  1  0
 16 17  1  0
 16 18  2  0
 11 19  2  0
 19 20  1  0
 19 21  1  0
 21 22  2  0
 22 23  1  0
 23 24  2  0
  6 25  2  0
 25  2  1  0
 24  7  1  0
 23 10  1  0
 18 12  1  0
  1 26  1  0
  3 27  1  0
  4 28  1  0
  5 29  1  0
  8 30  1  0
  9 31  1  0
 13 32  1  0
 14 33  1  0
 15 34  1  0
 17 35  1  0
 18 36  1  0
 20 37  1  0
 21 38  1  0
 22 39  1  0
 24 40  1  0
 25 41  1  0
M  END
$$$$
