
     RDKit          3D

 99103  0  0  0  0  0  0  0  0999 V2000
   -6.0022   -1.5088   -1.5333 C   0  0  0  0  0  0  0  0  0  0  0  0
   -4.7934   -1.7159   -2.4360 C   0  0  0  0  0  0  0  0  0  0  0  0
   -4.5126   -0.4100   -3.1283 C   0  0  0  0  0  0  0  0  0  0  0  0
   -5.1778   -2.7426   -3.4732 C   0  0  0  0  0  0  0  0  0  0  0  0
   -3.6413   -2.2025   -1.6928 N   0  0  0  0  0  0  0  0  0  0  0  0
   -3.0581   -1.4811   -0.6274 C   0  0  0  0  0  0  0  0  0  0  0  0
   -3.5673   -0.3683   -0.3157 O   0  0  0  0  0  0  0  0  0  0  0  0
   -1.8629   -1.9849    0.1427 C   0  0  2  0  0  0  0  0  0  0  0  0
   -2.0669   -3.3789    0.6346 C   0  0  0  0  0  0  0  0  0  0  0  0
   -2.4106   -3.5084    2.0809 C   0  0  2  0  0  0  0  0  0  0  0  0
   -3.9018   -3.5439    2.3354 C   0  0  0  0  0  0  0  0  0  0  0  0
   -4.5534   -2.2271    2.4938 C   0  0  0  0  0  0  0  0  0  0  0  0
   -3.7276   -1.1683    3.1568 C   0  0  0  0  0  0  0  0  0  0  0  0
   -2.5886   -1.8020    3.9109 C   0  0  0  0  0  0  0  0  0  0  0  0
   -1.6828   -2.6046    3.0131 C   0  0  2  0  0  0  0  0  0  0  0  0
   -0.7788   -1.6715    2.1870 C   0  0  0  0  0  0  0  0  0  0  0  0
   -1.5025   -1.0488    1.1543 N   0  0  0  0  0  0  0  0  0  0  0  0
   -0.9074    0.1462    0.6535 C   0  0  0  0  0  0  0  0  0  0  0  0
   -0.9086    1.3366    1.5156 C   0  0  1  0  0  0  0  0  0  0  0  0
   -0.2256    1.1441    2.6921 O   0  0  0  0  0  0  0  0  0  0  0  0
   -0.2700    2.5619    0.8351 C   0  0  2  0  0  0  0  0  0  0  0  0
   -1.0459    2.9886   -0.3397 C   0  0  0  0  0  0  0  0  0  0  0  0
   -0.4652    4.1875   -0.9732 C   0  0  0  0  0  0  0  0  0  0  0  0
   -0.8235    5.4142   -0.3963 C   0  0  0  0  0  0  0  0  0  0  0  0
   -0.3570    6.5720   -0.9443 C   0  0  0  0  0  0  0  0  0  0  0  0
    0.4647    6.5284   -2.0629 C   0  0  0  0  0  0  0  0  0  0  0  0
    0.8254    5.3268   -2.6416 C   0  0  0  0  0  0  0  0  0  0  0  0
    0.3389    4.1729   -2.0666 C   0  0  0  0  0  0  0  0  0  0  0  0
    1.1292    2.2608    0.6172 N   0  0  0  0  0  0  0  0  0  0  0  0
    2.1824    3.0324    1.1464 C   0  0  0  0  0  0  0  0  0  0  0  0
    1.8033    4.0707    1.8015 O   0  0  0  0  0  0  0  0  0  0  0  0
    3.6164    2.8215    1.0693 C   0  0  2  0  0  0  0  0  0  0  0  0
    4.3684    3.8755    0.3299 C   0  0  0  0  0  0  0  0  0  0  0  0
    3.9694    3.9586   -1.0673 C   0  0  0  0  0  0  0  0  0  0  0  0
    4.4841    5.0480   -1.8619 N   0  0  0  0  0  0  0  0  0  0  0  0
    3.2134    3.1607   -1.6412 O   0  0  0  0  0  0  0  0  0  0  0  0
    3.9707    1.5332    0.4795 N   0  0  0  0  0  0  0  0  0  0  0  0
    4.7429    0.6004    1.2233 C   0  0  0  0  0  0  0  0  0  0  0  0
    5.0863    0.9776    2.3984 O   0  0  0  0  0  0  0  0  0  0  0  0
    5.1291   -0.6971    0.7128 C   0  0  0  0  0  0  0  0  0  0  0  0
    5.8677   -1.6125    1.4148 C   0  0  0  0  0  0  0  0  0  0  0  0
    6.2426   -2.8565    0.9505 C   0  0  0  0  0  0  0  0  0  0  0  0
    5.8242   -3.1786   -0.3327 C   0  0  0  0  0  0  0  0  0  0  0  0
    6.1766   -4.4043   -0.8261 C   0  0  0  0  0  0  0  0  0  0  0  0
    5.7984   -4.7874   -2.0795 C   0  0  0  0  0  0  0  0  0  0  0  0
    5.0449   -3.8781   -2.8213 C   0  0  0  0  0  0  0  0  0  0  0  0
    4.6944   -2.6440   -2.3152 C   0  0  0  0  0  0  0  0  0  0  0  0
    5.0799   -2.2611   -1.0453 C   0  0  0  0  0  0  0  0  0  0  0  0
    4.7477   -1.0542   -0.5236 N   0  0  0  0  0  0  0  0  0  0  0  0
   -6.2180   -2.5128   -1.1013 H   0  0  0  0  0  0  0  0  0  0  0  0
   -6.8535   -1.3014   -2.2340 H   0  0  0  0  0  0  0  0  0  0  0  0
   -5.8382   -0.7333   -0.7882 H   0  0  0  0  0  0  0  0  0  0  0  0
   -4.4512    0.4467   -2.4149 H   0  0  0  0  0  0  0  0  0  0  0  0
   -5.3879   -0.2010   -3.7829 H   0  0  0  0  0  0  0  0  0  0  0  0
   -3.6140   -0.4420   -3.7622 H   0  0  0  0  0  0  0  0  0  0  0  0
   -4.3226   -3.3012   -3.8802 H   0  0  0  0  0  0  0  0  0  0  0  0
   -5.7046   -2.2758   -4.3544 H   0  0  0  0  0  0  0  0  0  0  0  0
   -5.9146   -3.4828   -3.0751 H   0  0  0  0  0  0  0  0  0  0  0  0
   -3.1937   -3.1349   -1.9340 H   0  0  0  0  0  0  0  0  0  0  0  0
   -1.0411   -1.9980   -0.6044 H   0  0  0  0  0  0  0  0  0  0  0  0
   -1.2036   -4.0205    0.3492 H   0  0  0  0  0  0  0  0  0  0  0  0
   -2.9367   -3.8228    0.0636 H   0  0  0  0  0  0  0  0  0  0  0  0
   -2.0705   -4.5601    2.3554 H   0  0  0  0  0  0  0  0  0  0  0  0
   -4.3622   -4.0996    1.4937 H   0  0  0  0  0  0  0  0  0  0  0  0
   -4.0904   -4.1796    3.2416 H   0  0  0  0  0  0  0  0  0  0  0  0
   -4.9746   -1.8839    1.5108 H   0  0  0  0  0  0  0  0  0  0  0  0
   -5.4707   -2.3792    3.1389 H   0  0  0  0  0  0  0  0  0  0  0  0
   -3.3810   -0.3831    2.4409 H   0  0  0  0  0  0  0  0  0  0  0  0
   -4.3276   -0.6010    3.9095 H   0  0  0  0  0  0  0  0  0  0  0  0
   -1.9676   -0.9685    4.3426 H   0  0  0  0  0  0  0  0  0  0  0  0
   -3.0089   -2.4368    4.7021 H   0  0  0  0  0  0  0  0  0  0  0  0
   -0.9659   -3.1365    3.7035 H   0  0  0  0  0  0  0  0  0  0  0  0
   -0.2666   -1.0667    2.9258 H   0  0  0  0  0  0  0  0  0  0  0  0
   -0.0327   -2.3736    1.7128 H   0  0  0  0  0  0  0  0  0  0  0  0
   -1.3382    0.3204   -0.3638 H   0  0  0  0  0  0  0  0  0  0  0  0
    0.1743   -0.1291    0.4085 H   0  0  0  0  0  0  0  0  0  0  0  0
   -1.9920    1.5989    1.7242 H   0  0  0  0  0  0  0  0  0  0  0  0
    0.7575    1.2325    2.4975 H   0  0  0  0  0  0  0  0  0  0  0  0
   -0.3384    3.3848    1.5938 H   0  0  0  0  0  0  0  0  0  0  0  0
   -1.1432    2.1915   -1.1272 H   0  0  0  0  0  0  0  0  0  0  0  0
   -2.0801    3.2821    0.0139 H   0  0  0  0  0  0  0  0  0  0  0  0
   -1.4744    5.4203    0.4878 H   0  0  0  0  0  0  0  0  0  0  0  0
   -0.6428    7.5310   -0.4853 H   0  0  0  0  0  0  0  0  0  0  0  0
    0.8173    7.4748   -2.4719 H   0  0  0  0  0  0  0  0  0  0  0  0
    1.4634    5.3326   -3.5058 H   0  0  0  0  0  0  0  0  0  0  0  0
    0.6071    3.1981   -2.5028 H   0  0  0  0  0  0  0  0  0  0  0  0
    1.4138    1.4367    0.0410 H   0  0  0  0  0  0  0  0  0  0  0  0
    4.0101    2.8547    2.1336 H   0  0  0  0  0  0  0  0  0  0  0  0
    4.2395    4.8598    0.8688 H   0  0  0  0  0  0  0  0  0  0  0  0
    5.4539    3.6175    0.4003 H   0  0  0  0  0  0  0  0  0  0  0  0
    4.4561    6.0312   -1.5272 H   0  0  0  0  0  0  0  0  0  0  0  0
    4.8882    4.8487   -2.7821 H   0  0  0  0  0  0  0  0  0  0  0  0
    3.6651    1.2931   -0.4569 H   0  0  0  0  0  0  0  0  0  0  0  0
    6.1917   -1.3595    2.4153 H   0  0  0  0  0  0  0  0  0  0  0  0
    6.8268   -3.5526    1.5340 H   0  0  0  0  0  0  0  0  0  0  0  0
    6.7665   -5.0972   -0.2271 H   0  0  0  0  0  0  0  0  0  0  0  0
    6.0667   -5.7513   -2.4859 H   0  0  0  0  0  0  0  0  0  0  0  0
    4.7307   -4.1550   -3.8193 H   0  0  0  0  0  0  0  0  0  0  0  0
    4.1098   -1.9933   -2.9476 H   0  0  0  0  0  0  0  0  0  0  0  0
  1  2  1  0
  2  3  1  0
  2  4  1  0
  2  5  1  0
  5  6  1  0
  6  7  2  0
  6  8  1  0
  8  9  1  0
  9 10  1  0
 10 11  1  0
 11 12  1  0
 12 13  1  0
 13 14  1  0
 14 15  1  0
 15 16  1  0
 16 17  1  0
 17 18  1  0
 18 19  1  0
 19 20  1  0
 19 21  1  0
 21 22  1  0
 22 23  1  0
 23 24  2  0
 24 25  1  0
 25 26  2  0
 26 27  1  0
 27 28  2  0
 21 29  1  0
 29 30  1  0
 30 31  2  0
 30 32  1  0
 32 33  1  0
 33 34  1  0
 34 35  1  0
 34 36  2  0
 32 37  1  0
 37 38  1  0
 38 39  2  0
 38 40  1  0
 40 41  2  0
 41 42  1  0
 42 43  2  0
 43 44  1  0
 44 45  2  0
 45 46  1  0
 46 47  2  0
 47 48  1  0
 48 49  2  0
 17  8  1  0
 28 23  1  0
 49 40  1  0
 15 10  1  0
 48 43  1  0
  1 50  1  0
  1 51  1  0
  1 52  1  0
  3 53  1  0
  3 54  1  0
  3 55  1  0
  4 56  1  0
  4 57  1  0
  4 58  1  0
  5 59  1  0
  8 60  1  6
  9 61  1  0
  9 62  1  0
 10 63  1  1
 11 64  1  0
 11 65  1  0
 12 66  1  0
 12 67  1  0
 13 68  1  0
 13 69  1  0
 14 70  1  0
 14 71  1  0
 15 72  1  1
 16 73  1  0
 16 74  1  0
 18 75  1  0
 18 76  1  0
 19 77  1  1
 20 78  1  0
 21 79  1  1
 22 80  1  0
 22 81  1  0
 24 82  1  0
 25 83  1  0
 26 84  1  0
 27 85  1  0
 28 86  1  0
 29 87  1  0
 32 88  1  1
 33 89  1  0
 33 90  1  0
 35 91  1  0
 35 92  1  0
 37 93  1  0
 41 94  1  0
 42 95  1  0
 44 96  1  0
 45 97  1  0
 46 98  1  0
 47 99  1  0
M  END
$$$$
