@<TRIPOS>MOLECULE
*****
 99 103 0 0 0
SMALL
GASTEIGER

@<TRIPOS>ATOM
      1 C          -6.0022   -1.5088   -1.5333 C.3     1  UNL1       -0.0442
      2 C          -4.7934   -1.7159   -2.4360 C.3     1  UNL1        0.0262
      3 C          -4.5126   -0.4100   -3.1283 C.3     1  UNL1       -0.0442
      4 C          -5.1778   -2.7426   -3.4732 C.3     1  UNL1       -0.0442
      5 N          -3.6413   -2.2025   -1.6928 N.am    1  UNL1       -0.3093
      6 C          -3.0581   -1.4811   -0.6274 C.2     1  UNL1        0.2307
      7 O          -3.5673   -0.3683   -0.3157 O.2     1  UNL1       -0.2741
      8 C          -1.8629   -1.9849    0.1427 C.3     1  UNL1        0.0876
      9 C          -2.0669   -3.3789    0.6346 C.3     1  UNL1       -0.0257
     10 C          -2.4106   -3.5084    2.0809 C.3     1  UNL1       -0.0352
     11 C          -3.9018   -3.5439    2.3354 C.3     1  UNL1       -0.0499
     12 C          -4.5534   -2.2271    2.4938 C.3     1  UNL1       -0.0528
     13 C          -3.7276   -1.1683    3.1568 C.3     1  UNL1       -0.0527
     14 C          -2.5886   -1.8020    3.9109 C.3     1  UNL1       -0.0488
     15 C          -1.6828   -2.6046    3.0131 C.3     1  UNL1       -0.0253
     16 C          -0.7788   -1.6715    2.1870 C.3     1  UNL1        0.0028
     17 N          -1.5025   -1.0488    1.1543 N.3     1  UNL1       -0.2887
     18 C          -0.9074    0.1462    0.6535 C.3     1  UNL1        0.0274
     19 C          -0.9086    1.3366    1.5156 C.3     1  UNL1        0.0865
     20 O          -0.2256    1.1441    2.6921 O.3     1  UNL1       -0.3887
     21 C          -0.2700    2.5619    0.8351 C.3     1  UNL1        0.0542
     22 C          -1.0459    2.9886   -0.3397 C.3     1  UNL1       -0.0067
     23 C          -0.4652    4.1875   -0.9732 C.ar    1  UNL1       -0.0455
     24 C          -0.8235    5.4142   -0.3963 C.ar    1  UNL1       -0.0585
     25 C          -0.3570    6.5720   -0.9443 C.ar    1  UNL1       -0.0615
     26 C           0.4647    6.5284   -2.0629 C.ar    1  UNL1       -0.0617
     27 C           0.8254    5.3268   -2.6416 C.ar    1  UNL1       -0.0615
     28 C           0.3389    4.1729   -2.0666 C.ar    1  UNL1       -0.0585
     29 N           1.1292    2.2608    0.6172 N.am    1  UNL1       -0.3081
     30 C           2.1824    3.0324    1.1464 C.2     1  UNL1        0.2341
     31 O           1.8033    4.0707    1.8015 O.2     1  UNL1       -0.2738
     32 C           3.6164    2.8215    1.0693 C.3     1  UNL1        0.1079
     33 C           4.3684    3.8755    0.3299 C.3     1  UNL1        0.0506
     34 C           3.9694    3.9586   -1.0673 C.2     1  UNL1        0.2127
     35 N           4.4841    5.0480   -1.8619 N.am    1  UNL1       -0.3293
     36 O           3.2134    3.1607   -1.6412 O.2     1  UNL1       -0.2760
     37 N           3.9707    1.5332    0.4795 N.am    1  UNL1       -0.2983
     38 C           4.7429    0.6004    1.2233 C.2     1  UNL1        0.2630
     39 O           5.0863    0.9776    2.3984 O.2     1  UNL1       -0.2685
     40 C           5.1291   -0.6971    0.7128 C.ar    1  UNL1        0.1260
     41 C           5.8677   -1.6125    1.4148 C.ar    1  UNL1       -0.0306
     42 C           6.2426   -2.8565    0.9505 C.ar    1  UNL1       -0.0504
     43 C           5.8242   -3.1786   -0.3327 C.ar    1  UNL1        0.0004
     44 C           6.1766   -4.4043   -0.8261 C.ar    1  UNL1       -0.0526
     45 C           5.7984   -4.7874   -2.0795 C.ar    1  UNL1       -0.0611
     46 C           5.0449   -3.8781   -2.8213 C.ar    1  UNL1       -0.0597
     47 C           4.6944   -2.6440   -2.3152 C.ar    1  UNL1       -0.0357
     48 C           5.0799   -2.2611   -1.0453 C.ar    1  UNL1        0.0718
     49 N           4.7477   -1.0542   -0.5236 N.ar    1  UNL1       -0.2421
     50 H          -6.2180   -2.5128   -1.1013 H       1  UNL1        0.0250
     51 H          -6.8535   -1.3014   -2.2340 H       1  UNL1        0.0250
     52 H          -5.8382   -0.7333   -0.7882 H       1  UNL1        0.0250
     53 H          -4.4512    0.4467   -2.4149 H       1  UNL1        0.0250
     54 H          -5.3879   -0.2010   -3.7829 H       1  UNL1        0.0250
     55 H          -3.6140   -0.4420   -3.7622 H       1  UNL1        0.0250
     56 H          -4.3226   -3.3012   -3.8802 H       1  UNL1        0.0250
     57 H          -5.7046   -2.2758   -4.3544 H       1  UNL1        0.0250
     58 H          -5.9146   -3.4828   -3.0751 H       1  UNL1        0.0250
     59 H          -3.1937   -3.1349   -1.9340 H       1  UNL1        0.1492
     60 H          -1.0411   -1.9980   -0.6044 H       1  UNL1        0.0559
     61 H          -1.2036   -4.0205    0.3492 H       1  UNL1        0.0288
     62 H          -2.9367   -3.8228    0.0636 H       1  UNL1        0.0288
     63 H          -2.0705   -4.5601    2.3554 H       1  UNL1        0.0304
     64 H          -4.3622   -4.0996    1.4937 H       1  UNL1        0.0268
     65 H          -4.0904   -4.1796    3.2416 H       1  UNL1        0.0268
     66 H          -4.9746   -1.8839    1.5108 H       1  UNL1        0.0265
     67 H          -5.4707   -2.3792    3.1389 H       1  UNL1        0.0265
     68 H          -3.3810   -0.3831    2.4409 H       1  UNL1        0.0265
     69 H          -4.3276   -0.6010    3.9095 H       1  UNL1        0.0265
     70 H          -1.9676   -0.9685    4.3426 H       1  UNL1        0.0268
     71 H          -3.0089   -2.4368    4.7021 H       1  UNL1        0.0268
     72 H          -0.9659   -3.1365    3.7035 H       1  UNL1        0.0316
     73 H          -0.2666   -1.0667    2.9258 H       1  UNL1        0.0430
     74 H          -0.0327   -2.3736    1.7128 H       1  UNL1        0.0430
     75 H          -1.3382    0.3204   -0.3638 H       1  UNL1        0.0453
     76 H           0.1743   -0.1291    0.4085 H       1  UNL1        0.0453
     77 H          -1.9920    1.5989    1.7242 H       1  UNL1        0.0625
     78 H           0.7575    1.2325    2.4975 H       1  UNL1        0.2099
     79 H          -0.3384    3.3848    1.5938 H       1  UNL1        0.0527
     80 H          -1.1432    2.1915   -1.1272 H       1  UNL1        0.0332
     81 H          -2.0801    3.2821    0.0139 H       1  UNL1        0.0332
     82 H          -1.4744    5.4203    0.4878 H       1  UNL1        0.0620
     83 H          -0.6428    7.5310   -0.4853 H       1  UNL1        0.0618
     84 H           0.8173    7.4748   -2.4719 H       1  UNL1        0.0618
     85 H           1.4634    5.3326   -3.5058 H       1  UNL1        0.0618
     86 H           0.6071    3.1981   -2.5028 H       1  UNL1        0.0620
     87 H           1.4138    1.4367    0.0410 H       1  UNL1        0.1491
     88 H           4.0101    2.8547    2.1336 H       1  UNL1        0.0599
     89 H           4.2395    4.8598    0.8688 H       1  UNL1        0.0381
     90 H           5.4539    3.6175    0.4003 H       1  UNL1        0.0381
     91 H           4.4561    6.0312   -1.5272 H       1  UNL1        0.1449
     92 H           4.8882    4.8487   -2.7821 H       1  UNL1        0.1449
     93 H           3.6651    1.2931   -0.4569 H       1  UNL1        0.1498
     94 H           6.1917   -1.3595    2.4153 H       1  UNL1        0.0641
     95 H           6.8268   -3.5526    1.5340 H       1  UNL1        0.0625
     96 H           6.7665   -5.0972   -0.2271 H       1  UNL1        0.0624
     97 H           6.0667   -5.7513   -2.4859 H       1  UNL1        0.0618
     98 H           4.7307   -4.1550   -3.8193 H       1  UNL1        0.0618
     99 H           4.1098   -1.9933   -2.9476 H       1  UNL1        0.0639
@<TRIPOS>BOND
     1     1     2    1
     2     2     3    1
     3     2     4    1
     4     2     5    1
     5     5     6   am
     6     6     7    2
     7     6     8    1
     8     8     9    1
     9     9    10    1
    10    10    11    1
    11    11    12    1
    12    12    13    1
    13    13    14    1
    14    14    15    1
    15    15    16    1
    16    16    17    1
    17    17    18    1
    18    18    19    1
    19    19    20    1
    20    19    21    1
    21    21    22    1
    22    22    23    1
    23    23    24   ar
    24    24    25   ar
    25    25    26   ar
    26    26    27   ar
    27    27    28   ar
    28    21    29    1
    29    29    30   am
    30    30    31    2
    31    30    32    1
    32    32    33    1
    33    33    34    1
    34    34    35   am
    35    34    36    2
    36    32    37    1
    37    37    38   am
    38    38    39    2
    39    38    40    1
    40    40    41   ar
    41    41    42   ar
    42    42    43   ar
    43    43    44   ar
    44    44    45   ar
    45    45    46   ar
    46    46    47   ar
    47    47    48   ar
    48    48    49   ar
    49    17     8    1
    50    28    23   ar
    51    49    40   ar
    52    15    10    1
    53    48    43   ar
    54     1    50    1
    55     1    51    1
    56     1    52    1
    57     3    53    1
    58     3    54    1
    59     3    55    1
    60     4    56    1
    61     4    57    1
    62     4    58    1
    63     5    59    1
    64     8    60    1
    65     9    61    1
    66     9    62    1
    67    10    63    1
    68    11    64    1
    69    11    65    1
    70    12    66    1
    71    12    67    1
    72    13    68    1
    73    13    69    1
    74    14    70    1
    75    14    71    1
    76    15    72    1
    77    16    73    1
    78    16    74    1
    79    18    75    1
    80    18    76    1
    81    19    77    1
    82    20    78    1
    83    21    79    1
    84    22    80    1
    85    22    81    1
    86    24    82    1
    87    25    83    1
    88    26    84    1
    89    27    85    1
    90    28    86    1
    91    29    87    1
    92    32    88    1
    93    33    89    1
    94    33    90    1
    95    35    91    1
    96    35    92    1
    97    37    93    1
    98    41    94    1
    99    42    95    1
   100    44    96    1
   101    45    97    1
   102    46    98    1
   103    47    99    1
