@<TRIPOS>MOLECULE
*****
 19 18 0 0 0
SMALL
GASTEIGER

@<TRIPOS>ATOM
      1 C           3.6684    0.4355    0.2772 C.3     1  UNL1       -0.0411
      2 C           2.3304    0.0190   -0.2716 C.3     1  UNL1        0.0539
      3 O           1.5126   -0.4268    0.7568 O.3     1  UNL1       -0.3102
      4 P           0.0046   -0.9002    0.1654 P.3     1  UNL1        0.3212
      5 O           0.0024   -0.7700   -1.3356 O.2     1  UNL1       -0.2618
      6 O          -1.2458    0.0457    0.8361 O.3     1  UNL1       -0.3102
      7 C          -2.3503   -0.1113    0.0253 C.3     1  UNL1        0.0539
      8 C          -3.5658    0.6457    0.4476 C.3     1  UNL1       -0.0411
      9 H           4.1553   -0.4895    0.6566 H       1  UNL1        0.0252
     10 H           4.2911    0.8572   -0.5427 H       1  UNL1        0.0252
     11 H           3.5048    1.1901    1.0771 H       1  UNL1        0.0252
     12 H           1.8521    0.9294   -0.6930 H       1  UNL1        0.0562
     13 H           2.4611   -0.7058   -1.0918 H       1  UNL1        0.0562
     14 H          -0.2831   -2.2322    0.5293 H       1  UNL1        0.1595
     15 H          -2.5247   -1.2060   -0.1325 H       1  UNL1        0.0562
     16 H          -2.0363    0.2793   -0.9865 H       1  UNL1        0.0562
     17 H          -4.4479   -0.0116    0.2027 H       1  UNL1        0.0252
     18 H          -3.6988    1.5862   -0.1214 H       1  UNL1        0.0252
     19 H          -3.6301    0.8652    1.5305 H       1  UNL1        0.0252
@<TRIPOS>BOND
     1     1     2    1
     2     2     3    1
     3     3     4    1
     4     4     5    2
     5     4     6    1
     6     6     7    1
     7     7     8    1
     8     1     9    1
     9     1    10    1
    10     1    11    1
    11     2    12    1
    12     2    13    1
    13     4    14    1
    14     7    15    1
    15     7    16    1
    16     8    17    1
    17     8    18    1
    18     8    19    1
