@<TRIPOS>MOLECULE
*****
 44 46 0 0 0
SMALL
GASTEIGER

@<TRIPOS>ATOM
      1 N           8.1503   -2.1067    1.6842 N.pl3   1  UNL1       -0.3420
      2 C           6.9100   -1.4429    1.4711 C.ar    1  UNL1        0.1347
      3 N           5.7304   -1.8913    1.8718 N.ar    1  UNL1       -0.2374
      4 C           4.5757   -1.2152    1.6410 C.ar    1  UNL1        0.0510
      5 C           4.5823   -0.0105    0.9670 C.ar    1  UNL1        0.0534
      6 N           3.4092    0.7450    0.6946 N.am    1  UNL1       -0.2801
      7 C           2.6718    0.5303   -0.5127 C.2     1  UNL1        0.2498
      8 O           3.1297   -0.3602   -1.2997 O.2     1  UNL1       -0.2698
      9 C           1.4657    1.2750   -0.8431 C.ar    1  UNL1        0.0570
     10 C           0.2562    0.5965   -0.9965 C.ar    1  UNL1       -0.0269
     11 C          -0.9067    1.2772   -1.3101 C.ar    1  UNL1        0.0345
     12 N          -2.1366    0.5577   -1.4613 N.am    1  UNL1       -0.2815
     13 C          -2.9387    0.3857   -0.3050 C.2     1  UNL1        0.2483
     14 O          -2.5344    0.8703    0.7915 O.2     1  UNL1       -0.2699
     15 C          -4.2287   -0.3343   -0.3181 C.ar    1  UNL1        0.0376
     16 C          -4.7380   -0.8943   -1.4648 C.ar    1  UNL1       -0.0496
     17 C          -5.9459   -1.5511   -1.4084 C.ar    1  UNL1       -0.0605
     18 C          -6.6652   -1.6672   -0.2373 C.ar    1  UNL1       -0.0501
     19 C          -6.1558   -1.1065    0.9115 C.ar    1  UNL1        0.0555
     20 C          -6.9049   -1.2133    2.1882 C.3     1  UNL1        0.4174
     21 F          -7.4973   -2.4621    2.2925 F       1  UNL1       -0.1659
     22 F          -7.9271   -0.2586    2.1164 F       1  UNL1       -0.1659
     23 F          -6.1151   -0.9200    3.2766 F       1  UNL1       -0.1659
     24 C          -4.9511   -0.4473    0.8726 C.ar    1  UNL1       -0.0380
     25 C          -0.8682    2.6448   -1.4729 C.ar    1  UNL1       -0.0391
     26 C           0.3221    3.3568   -1.3273 C.ar    1  UNL1       -0.0409
     27 C           1.4754    2.6427   -1.0115 C.ar    1  UNL1        0.0532
     28 CL          3.0204    3.4549   -0.8085 Cl      1  UNL1       -0.0828
     29 C           5.8033    0.4689    0.5436 C.ar    1  UNL1       -0.0173
     30 C           6.9659   -0.2309    0.7867 C.ar    1  UNL1        0.0821
     31 CL          8.5037    0.4295    0.2221 Cl      1  UNL1       -0.0799
     32 H           8.4506   -2.9013    1.0649 H       1  UNL1        0.1437
     33 H           8.7689   -1.7900    2.4760 H       1  UNL1        0.1437
     34 H           3.6359   -1.6297    1.9921 H       1  UNL1        0.0849
     35 H           3.0482    1.4752    1.3584 H       1  UNL1        0.1552
     36 H           0.1956   -0.4803   -0.8745 H       1  UNL1        0.0644
     37 H          -2.4425    0.1714   -2.3751 H       1  UNL1        0.1551
     38 H          -4.1881   -0.8132   -2.3920 H       1  UNL1        0.0625
     39 H          -6.3042   -1.9796   -2.3575 H       1  UNL1        0.0618
     40 H          -7.6038   -2.1968   -0.2731 H       1  UNL1        0.0623
     41 H          -4.5264    0.0050    1.7682 H       1  UNL1        0.0631
     42 H          -1.7672    3.1835   -1.7172 H       1  UNL1        0.0636
     43 H           0.3832    4.4286   -1.4488 H       1  UNL1        0.0633
     44 H           5.8915    1.4043    0.0099 H       1  UNL1        0.0652
@<TRIPOS>BOND
     1     1     2    1
     2     2     3   ar
     3     3     4   ar
     4     4     5   ar
     5     5     6    1
     6     6     7   am
     7     7     8    2
     8     7     9    1
     9     9    10   ar
    10    10    11   ar
    11    11    12    1
    12    12    13   am
    13    13    14    2
    14    13    15    1
    15    15    16   ar
    16    16    17   ar
    17    17    18   ar
    18    18    19   ar
    19    19    20    1
    20    20    21    1
    21    20    22    1
    22    20    23    1
    23    19    24   ar
    24    11    25   ar
    25    25    26   ar
    26    26    27   ar
    27    27    28    1
    28     5    29   ar
    29    29    30   ar
    30    30    31    1
    31    30     2   ar
    32    27     9   ar
    33    24    15   ar
    34     1    32    1
    35     1    33    1
    36     4    34    1
    37     6    35    1
    38    10    36    1
    39    12    37    1
    40    16    38    1
    41    17    39    1
    42    18    40    1
    43    24    41    1
    44    25    42    1
    45    26    43    1
    46    29    44    1
