
     RDKit          3D

 44 46  0  0  0  0  0  0  0  0999 V2000
    8.1503   -2.1067    1.6842 N   0  0  0  0  0  0  0  0  0  0  0  0
    6.9100   -1.4429    1.4711 C   0  0  0  0  0  0  0  0  0  0  0  0
    5.7304   -1.8913    1.8718 N   0  0  0  0  0  0  0  0  0  0  0  0
    4.5757   -1.2152    1.6410 C   0  0  0  0  0  0  0  0  0  0  0  0
    4.5823   -0.0105    0.9670 C   0  0  0  0  0  0  0  0  0  0  0  0
    3.4092    0.7450    0.6946 N   0  0  0  0  0  0  0  0  0  0  0  0
    2.6718    0.5303   -0.5127 C   0  0  0  0  0  0  0  0  0  0  0  0
    3.1297   -0.3602   -1.2997 O   0  0  0  0  0  0  0  0  0  0  0  0
    1.4657    1.2750   -0.8431 C   0  0  0  0  0  0  0  0  0  0  0  0
    0.2562    0.5965   -0.9965 C   0  0  0  0  0  0  0  0  0  0  0  0
   -0.9067    1.2772   -1.3101 C   0  0  0  0  0  0  0  0  0  0  0  0
   -2.1366    0.5577   -1.4613 N   0  0  0  0  0  0  0  0  0  0  0  0
   -2.9387    0.3857   -0.3050 C   0  0  0  0  0  0  0  0  0  0  0  0
   -2.5344    0.8703    0.7915 O   0  0  0  0  0  0  0  0  0  0  0  0
   -4.2287   -0.3343   -0.3181 C   0  0  0  0  0  0  0  0  0  0  0  0
   -4.7380   -0.8943   -1.4648 C   0  0  0  0  0  0  0  0  0  0  0  0
   -5.9459   -1.5511   -1.4084 C   0  0  0  0  0  0  0  0  0  0  0  0
   -6.6652   -1.6672   -0.2373 C   0  0  0  0  0  0  0  0  0  0  0  0
   -6.1558   -1.1065    0.9115 C   0  0  0  0  0  0  0  0  0  0  0  0
   -6.9049   -1.2133    2.1882 C   0  0  0  0  0  0  0  0  0  0  0  0
   -7.4973   -2.4621    2.2925 F   0  0  0  0  0  0  0  0  0  0  0  0
   -7.9271   -0.2586    2.1164 F   0  0  0  0  0  0  0  0  0  0  0  0
   -6.1151   -0.9200    3.2766 F   0  0  0  0  0  0  0  0  0  0  0  0
   -4.9511   -0.4473    0.8726 C   0  0  0  0  0  0  0  0  0  0  0  0
   -0.8682    2.6448   -1.4729 C   0  0  0  0  0  0  0  0  0  0  0  0
    0.3221    3.3568   -1.3273 C   0  0  0  0  0  0  0  0  0  0  0  0
    1.4754    2.6427   -1.0115 C   0  0  0  0  0  0  0  0  0  0  0  0
    3.0204    3.4549   -0.8085 Cl  0  0  0  0  0  0  0  0  0  0  0  0
    5.8033    0.4689    0.5436 C   0  0  0  0  0  0  0  0  0  0  0  0
    6.9659   -0.2309    0.7867 C   0  0  0  0  0  0  0  0  0  0  0  0
    8.5037    0.4295    0.2221 Cl  0  0  0  0  0  0  0  0  0  0  0  0
    8.4506   -2.9013    1.0649 H   0  0  0  0  0  0  0  0  0  0  0  0
    8.7689   -1.7900    2.4760 H   0  0  0  0  0  0  0  0  0  0  0  0
    3.6359   -1.6297    1.9921 H   0  0  0  0  0  0  0  0  0  0  0  0
    3.0482    1.4752    1.3584 H   0  0  0  0  0  0  0  0  0  0  0  0
    0.1956   -0.4803   -0.8745 H   0  0  0  0  0  0  0  0  0  0  0  0
   -2.4425    0.1714   -2.3751 H   0  0  0  0  0  0  0  0  0  0  0  0
   -4.1881   -0.8132   -2.3920 H   0  0  0  0  0  0  0  0  0  0  0  0
   -6.3042   -1.9796   -2.3575 H   0  0  0  0  0  0  0  0  0  0  0  0
   -7.6038   -2.1968   -0.2731 H   0  0  0  0  0  0  0  0  0  0  0  0
   -4.5264    0.0050    1.7682 H   0  0  0  0  0  0  0  0  0  0  0  0
   -1.7672    3.1835   -1.7172 H   0  0  0  0  0  0  0  0  0  0  0  0
    0.3832    4.4286   -1.4488 H   0  0  0  0  0  0  0  0  0  0  0  0
    5.8915    1.4043    0.0099 H   0  0  0  0  0  0  0  0  0  0  0  0
  1  2  1  0
  2  3  2  0
  3  4  1  0
  4  5  2  0
  5  6  1  0
  6  7  1  0
  7  8  2  0
  7  9  1  0
  9 10  2  0
 10 11  1  0
 11 12  1  0
 12 13  1  0
 13 14  2  0
 13 15  1  0
 15 16  2  0
 16 17  1  0
 17 18  2  0
 18 19  1  0
 19 20  1  0
 20 21  1  0
 20 22  1  0
 20 23  1  0
 19 24  2  0
 11 25  2  0
 25 26  1  0
 26 27  2  0
 27 28  1  0
  5 29  1  0
 29 30  2  0
 30 31  1  0
 30  2  1  0
 27  9  1  0
 24 15  1  0
  1 32  1  0
  1 33  1  0
  4 34  1  0
  6 35  1  0
 10 36  1  0
 12 37  1  0
 16 38  1  0
 17 39  1  0
 18 40  1  0
 24 41  1  0
 25 42  1  0
 26 43  1  0
 29 44  1  0
M  END
$$$$
