@<TRIPOS>MOLECULE
*****
 55 60 0 0 0
SMALL
GASTEIGER

@<TRIPOS>ATOM
      1 C           3.0789    3.1365   -1.2009 C.3     1  UNL1       -0.0202
      2 C           3.0350    1.7642   -0.6081 C.ar    1  UNL1        0.0664
      3 N           3.9691    1.0559   -0.0072 N.ar    1  UNL1       -0.1692
      4 N           3.5236   -0.1258    0.3775 N.ar    1  UNL1       -0.2093
      5 C           4.2705   -1.1352    1.0538 C.ar    1  UNL1        0.1530
      6 C           5.4442   -1.6924    0.5357 C.ar    1  UNL1        0.0020
      7 C           5.9027   -2.6270    1.4348 C.ar    1  UNL1        0.0515
      8 N           5.0280   -2.6192    2.4467 N.ar    1  UNL1       -0.1780
      9 N           4.0675   -1.7380    2.2173 N.ar    1  UNL1       -0.2500
     10 C           2.9572   -1.4644    3.0970 C.3     1  UNL1        0.0324
     11 C           2.2158   -0.1854    0.0005 C.ar    1  UNL1        0.1367
     12 C           1.8801    0.9845   -0.6196 C.ar    1  UNL1        0.0309
     13 C           0.4545    0.9304   -1.0301 C.3     1  UNL1        0.0854
     14 C          -0.3160    2.0713   -0.5183 C.ar    1  UNL1       -0.0221
     15 C          -0.6950    2.1906    0.7870 C.ar    1  UNL1       -0.0551
     16 C          -1.4232    3.2769    1.2577 C.ar    1  UNL1       -0.0431
     17 C          -1.7649    4.2574    0.3596 C.ar    1  UNL1        0.0410
     18 CL         -2.6875    5.6741    0.8601 Cl      1  UNL1       -0.0835
     19 C          -1.4036    4.1859   -0.9853 C.ar    1  UNL1       -0.0431
     20 C          -0.6829    3.0805   -1.3790 C.ar    1  UNL1       -0.0551
     21 N           0.0018   -0.3462   -0.6208 N.am    1  UNL1       -0.2531
     22 C          -1.3045   -0.9451   -0.7895 C.ar    1  UNL1        0.0545
     23 C          -1.5983   -1.6577   -1.9370 C.ar    1  UNL1       -0.0324
     24 C          -2.8441   -2.2458   -2.1206 C.ar    1  UNL1       -0.0041
     25 C          -3.1206   -3.0072   -3.3750 C.3     1  UNL1       -0.0361
     26 C          -3.7669   -2.0907   -1.1201 C.ar    1  UNL1        0.1641
     27 N          -5.0400   -2.5456   -1.0268 N.ar    1  UNL1       -0.1292
     28 N          -5.5772   -2.1623    0.1194 N.ar    1  UNL1       -0.1340
     29 C          -4.6080   -1.4492    0.7542 C.ar    1  UNL1        0.1347
     30 C          -4.7318   -0.7990    2.0993 C.3     1  UNL1       -0.0041
     31 N          -3.5007   -1.4082   -0.0094 N.ar    1  UNL1       -0.2846
     32 C          -2.2845   -0.8344    0.1694 C.ar    1  UNL1        0.0344
     33 C           1.0560   -1.0392    0.0145 C.2     1  UNL1        0.2705
     34 O           1.0646   -2.1927    0.5261 O.2     1  UNL1       -0.2679
     35 H           2.3042    3.7988   -0.7591 H       1  UNL1        0.0293
     36 H           4.0687    3.5604   -0.9483 H       1  UNL1        0.0293
     37 H           2.9336    3.0625   -2.3146 H       1  UNL1        0.0293
     38 H           5.8957   -1.4181   -0.4142 H       1  UNL1        0.0670
     39 H           6.7997   -3.2193    1.2946 H       1  UNL1        0.0848
     40 H           2.5312   -0.4649    2.8891 H       1  UNL1        0.0473
     41 H           3.3603   -1.4500    4.1357 H       1  UNL1        0.0473
     42 H           2.1925   -2.2676    3.0672 H       1  UNL1        0.0473
     43 H           0.3798    0.9388   -2.1654 H       1  UNL1        0.0606
     44 H          -0.4441    1.4372    1.5261 H       1  UNL1        0.0621
     45 H          -1.7228    3.3747    2.2812 H       1  UNL1        0.0632
     46 H          -1.6946    4.9830   -1.6604 H       1  UNL1        0.0632
     47 H          -0.4023    3.0278   -2.4302 H       1  UNL1        0.0621
     48 H          -0.8457   -1.7562   -2.6989 H       1  UNL1        0.0640
     49 H          -4.1716   -2.9560   -3.6809 H       1  UNL1        0.0279
     50 H          -2.8619   -4.0675   -3.1466 H       1  UNL1        0.0279
     51 H          -2.4513   -2.6604   -4.1933 H       1  UNL1        0.0279
     52 H          -4.3459   -1.4658    2.8967 H       1  UNL1        0.0308
     53 H          -4.1910    0.1637    2.1291 H       1  UNL1        0.0308
     54 H          -5.8179   -0.6246    2.3417 H       1  UNL1        0.0308
     55 H          -2.1163   -0.2938    1.0879 H       1  UNL1        0.0833
@<TRIPOS>BOND
     1     1     2    1
     2     2     3   ar
     3     3     4   ar
     4     4     5    1
     5     5     6   ar
     6     6     7   ar
     7     7     8   ar
     8     8     9   ar
     9     9    10    1
    10     4    11   ar
    11    11    12   ar
    12    12    13    1
    13    13    14    1
    14    14    15   ar
    15    15    16   ar
    16    16    17   ar
    17    17    18    1
    18    17    19   ar
    19    19    20   ar
    20    13    21    1
    21    21    22    1
    22    22    23   ar
    23    23    24   ar
    24    24    25    1
    25    24    26   ar
    26    26    27   ar
    27    27    28   ar
    28    28    29   ar
    29    29    30    1
    30    29    31   ar
    31    31    32   ar
    32    21    33   am
    33    33    34    2
    34    12     2   ar
    35    20    14   ar
    36    32    22   ar
    37     9     5   ar
    38    33    11    1
    39    31    26   ar
    40     1    35    1
    41     1    36    1
    42     1    37    1
    43     6    38    1
    44     7    39    1
    45    10    40    1
    46    10    41    1
    47    10    42    1
    48    13    43    1
    49    15    44    1
    50    16    45    1
    51    19    46    1
    52    20    47    1
    53    23    48    1
    54    25    49    1
    55    25    50    1
    56    25    51    1
    57    30    52    1
    58    30    53    1
    59    30    54    1
    60    32    55    1
