
     RDKit          3D

 61 65  0  0  0  0  0  0  0  0999 V2000
   -7.4767   -0.7282   -0.0378 C   0  0  0  0  0  0  0  0  0  0  0  0
   -7.4313    0.2694   -1.1000 N   0  0  0  0  0  0  0  0  0  0  0  0
   -8.5837    0.1808   -2.0159 C   0  0  0  0  0  0  0  0  0  0  0  0
   -6.4309    1.1916   -1.2514 C   0  0  0  0  0  0  0  0  0  0  0  0
   -6.5027    1.9662   -2.2963 O   0  0  0  0  0  0  0  0  0  0  0  0
   -5.2291    1.4636   -0.3899 C   0  0  2  0  0  0  0  0  0  0  0  0
   -4.1227    2.2701   -0.9184 C   0  0  0  0  0  0  0  0  0  0  0  0
   -3.9795    0.7810   -0.6889 C   0  0  1  0  0  0  0  0  0  0  0  0
   -3.1628    0.1994    0.3194 C   0  0  1  0  0  0  0  0  0  0  0  0
   -2.9735   -1.3358   -0.0726 C   0  0  0  0  0  0  0  0  0  0  0  0
   -1.7334    0.7285    0.4100 C   0  0  0  0  0  0  0  0  0  0  0  0
   -0.6358    0.1898   -0.2588 C   0  0  0  0  0  0  0  0  0  0  0  0
    0.6423    0.6523   -0.2059 C   0  0  0  0  0  0  0  0  0  0  0  0
    1.8535    0.1902   -0.7712 C   0  0  0  0  0  0  0  0  0  0  0  0
    2.2715   -1.0334   -0.9613 C   0  0  0  0  0  0  0  0  0  0  0  0
    1.5179   -2.0922   -0.6574 F   0  0  0  0  0  0  0  0  0  0  0  0
    3.7562   -1.2130   -1.2490 C   0  0  0  0  0  0  0  0  0  0  0  0
    4.5939   -0.1483   -1.4278 C   0  0  0  0  0  0  0  0  0  0  0  0
    5.9826   -0.2693   -1.2901 C   0  0  0  0  0  0  0  0  0  0  0  0
    6.4447   -1.5217   -0.9680 C   0  0  0  0  0  0  0  0  0  0  0  0
    7.7920   -1.5910   -0.3217 C   0  0  0  0  0  0  0  0  0  0  0  0
    8.9282   -1.6384    0.2019 C   0  0  0  0  0  0  0  0  0  0  0  0
   10.2666   -1.6783    0.8125 C   0  0  0  0  0  0  0  0  0  0  0  0
   11.1086   -0.4495    0.9031 C   0  0  0  0  0  0  0  0  0  0  0  0
   10.2634   -0.7407    2.1328 C   0  0  0  0  0  0  0  0  0  0  0  0
    5.6151   -2.5860   -0.8072 C   0  0  0  0  0  0  0  0  0  0  0  0
    4.2599   -2.4493   -0.9491 N   0  0  0  0  0  0  0  0  0  0  0  0
    0.8293    1.8115    0.6410 C   0  0  0  0  0  0  0  0  0  0  0  0
   -0.2236    2.3488    1.2901 C   0  0  0  0  0  0  0  0  0  0  0  0
   -1.5005    1.8458    1.2005 C   0  0  0  0  0  0  0  0  0  0  0  0
   -2.5161    2.3828    1.8951 F   0  0  0  0  0  0  0  0  0  0  0  0
   -3.5162    0.0724    1.6993 N   0  0  0  0  0  0  0  0  0  0  0  0
   -4.4938    0.5889    2.2980 C   0  0  0  0  0  0  0  0  0  0  0  0
   -4.7715    0.4255    3.6724 N   0  0  0  0  0  0  0  0  0  0  0  0
   -5.6641    1.5965    1.3366 S   0  0  0  0  0  0  0  0  0  0  0  0
   -8.5344   -0.8638    0.2957 H   0  0  0  0  0  0  0  0  0  0  0  0
   -6.7727   -0.4566    0.7328 H   0  0  0  0  0  0  0  0  0  0  0  0
   -7.1784   -1.7761   -0.4146 H   0  0  0  0  0  0  0  0  0  0  0  0
   -8.9503   -0.8797   -2.1133 H   0  0  0  0  0  0  0  0  0  0  0  0
   -8.3501    0.6350   -2.9896 H   0  0  0  0  0  0  0  0  0  0  0  0
   -9.4231    0.7607   -1.5244 H   0  0  0  0  0  0  0  0  0  0  0  0
   -4.1689    2.5537   -2.0366 H   0  0  0  0  0  0  0  0  0  0  0  0
   -3.4811    2.9403   -0.3420 H   0  0  0  0  0  0  0  0  0  0  0  0
   -3.9978    0.1662   -1.6848 H   0  0  0  0  0  0  0  0  0  0  0  0
   -2.2190   -1.7132    0.6032 H   0  0  0  0  0  0  0  0  0  0  0  0
   -3.9844   -1.7985    0.0341 H   0  0  0  0  0  0  0  0  0  0  0  0
   -2.6786   -1.3170   -1.1081 H   0  0  0  0  0  0  0  0  0  0  0  0
   -0.8196   -0.6921   -0.8943 H   0  0  0  0  0  0  0  0  0  0  0  0
    2.5291    1.0146   -1.1231 H   0  0  0  0  0  0  0  0  0  0  0  0
    4.2345    0.8106   -1.6799 H   0  0  0  0  0  0  0  0  0  0  0  0
    6.6424    0.5528   -1.3918 H   0  0  0  0  0  0  0  0  0  0  0  0
   10.7046   -2.6643    1.0262 H   0  0  0  0  0  0  0  0  0  0  0  0
   12.1973   -0.6101    1.0789 H   0  0  0  0  0  0  0  0  0  0  0  0
   10.8855    0.4846    0.3371 H   0  0  0  0  0  0  0  0  0  0  0  0
   10.7033   -1.2072    3.0210 H   0  0  0  0  0  0  0  0  0  0  0  0
    9.3759   -0.1151    2.2168 H   0  0  0  0  0  0  0  0  0  0  0  0
    6.0394   -3.5826   -0.5378 H   0  0  0  0  0  0  0  0  0  0  0  0
    1.8622    2.1870    0.7202 H   0  0  0  0  0  0  0  0  0  0  0  0
   -0.0328    3.2516    1.9066 H   0  0  0  0  0  0  0  0  0  0  0  0
   -5.1890   -0.5016    3.9872 H   0  0  0  0  0  0  0  0  0  0  0  0
   -4.5715    1.1409    4.3668 H   0  0  0  0  0  0  0  0  0  0  0  0
  1  2  1  0
  2  3  1  0
  2  4  1  0
  4  5  2  0
  6  4  1  6
  6  7  1  0
  7  8  1  0
  8  9  1  0
  9 10  1  6
  9 11  1  0
 11 12  2  0
 12 13  1  0
 13 14  1  0
 14 15  2  0
 15 16  1  0
 15 17  1  0
 17 18  2  0
 18 19  1  0
 19 20  2  0
 20 21  1  0
 21 22  3  0
 22 23  1  0
 23 24  1  0
 24 25  1  0
 20 26  1  0
 26 27  2  0
 13 28  2  0
 28 29  1  0
 29 30  2  0
 30 31  1  0
  9 32  1  0
 32 33  2  0
 33 34  1  0
 33 35  1  0
  8  6  1  0
 30 11  1  0
 35  6  1  0
 27 17  1  0
 25 23  1  0
  1 36  1  0
  1 37  1  0
  1 38  1  0
  3 39  1  0
  3 40  1  0
  3 41  1  0
  7 42  1  0
  7 43  1  0
  8 44  1  6
 10 45  1  0
 10 46  1  0
 10 47  1  0
 12 48  1  0
 14 49  1  0
 18 50  1  0
 19 51  1  0
 23 52  1  0
 24 53  1  0
 24 54  1  0
 25 55  1  0
 25 56  1  0
 26 57  1  0
 28 58  1  0
 29 59  1  0
 34 60  1  0
 34 61  1  0
M  END
$$$$
