@<TRIPOS>MOLECULE
*****
 61 65 0 0 0
SMALL
GASTEIGER

@<TRIPOS>ATOM
      1 C          -7.4767   -0.7282   -0.0378 C.3     1  UNL1        0.0029
      2 N          -7.4313    0.2694   -1.1000 N.am    1  UNL1       -0.3064
      3 C          -8.5837    0.1808   -2.0159 C.3     1  UNL1        0.0029
      4 C          -6.4309    1.1916   -1.2514 C.2     1  UNL1        0.2319
      5 O          -6.5027    1.9662   -2.2963 O.2     1  UNL1       -0.2741
      6 C          -5.2291    1.4636   -0.3899 C.3     1  UNL1        0.1054
      7 C          -4.1227    2.2701   -0.9184 C.3     1  UNL1       -0.0220
      8 C          -3.9795    0.7810   -0.6889 C.3     1  UNL1        0.0134
      9 C          -3.1628    0.1994    0.3194 C.3     1  UNL1        0.0935
     10 C          -2.9735   -1.3358   -0.0726 C.3     1  UNL1       -0.0351
     11 C          -1.7334    0.7285    0.4100 C.ar    1  UNL1        0.0158
     12 C          -0.6358    0.1898   -0.2588 C.ar    1  UNL1       -0.0463
     13 C           0.6423    0.6523   -0.2059 C.ar    1  UNL1       -0.0217
     14 C           1.8535    0.1902   -0.7712 C.2     1  UNL1       -0.0172
     15 C           2.2715   -1.0334   -0.9613 C.2     1  UNL1        0.1492
     16 F           1.5179   -2.0922   -0.6574 F       1  UNL1       -0.2032
     17 C           3.7562   -1.2130   -1.2490 C.ar    1  UNL1        0.0990
     18 C           4.5939   -0.1483   -1.4278 C.ar    1  UNL1       -0.0323
     19 C           5.9826   -0.2693   -1.2901 C.ar    1  UNL1       -0.0428
     20 C           6.4447   -1.5217   -0.9680 C.ar    1  UNL1        0.0430
     21 C           7.7920   -1.5910   -0.3217 C.1     1  UNL1       -0.0645
     22 C           8.9282   -1.6384    0.2019 C.1     1  UNL1       -0.0936
     23 C          10.2666   -1.6783    0.8125 C.3     1  UNL1        0.0211
     24 C          11.1086   -0.4495    0.9031 C.3     1  UNL1       -0.0382
     25 C          10.2634   -0.7407    2.1328 C.3     1  UNL1       -0.0382
     26 C           5.6151   -2.5860   -0.8072 C.ar    1  UNL1        0.0437
     27 N           4.2599   -2.4493   -0.9491 N.ar    1  UNL1       -0.2515
     28 C           0.8293    1.8115    0.6410 C.ar    1  UNL1       -0.0518
     29 C          -0.2236    2.3488    1.2901 C.ar    1  UNL1       -0.0255
     30 C          -1.5005    1.8458    1.2005 C.ar    1  UNL1        0.1289
     31 F          -2.5161    2.3828    1.8951 F       1  UNL1       -0.2051
     32 N          -3.5162    0.0724    1.6993 N.2     1  UNL1       -0.2521
     33 C          -4.4938    0.5889    2.2980 C.2     1  UNL1        0.1485
     34 N          -4.7715    0.4255    3.6724 N.pl3   1  UNL1       -0.3380
     35 S          -5.6641    1.5965    1.3366 S.3     1  UNL1       -0.0746
     36 H          -8.5344   -0.8638    0.2957 H       1  UNL1        0.0428
     37 H          -6.7727   -0.4566    0.7328 H       1  UNL1        0.0428
     38 H          -7.1784   -1.7761   -0.4146 H       1  UNL1        0.0428
     39 H          -8.9503   -0.8797   -2.1133 H       1  UNL1        0.0428
     40 H          -8.3501    0.6350   -2.9896 H       1  UNL1        0.0428
     41 H          -9.4231    0.7607   -1.5244 H       1  UNL1        0.0428
     42 H          -4.1689    2.5537   -2.0366 H       1  UNL1        0.0287
     43 H          -3.4811    2.9403   -0.3420 H       1  UNL1        0.0287
     44 H          -3.9978    0.1662   -1.6848 H       1  UNL1        0.0346
     45 H          -2.2190   -1.7132    0.6032 H       1  UNL1        0.0256
     46 H          -3.9844   -1.7985    0.0341 H       1  UNL1        0.0256
     47 H          -2.6786   -1.3170   -1.1081 H       1  UNL1        0.0256
     48 H          -0.8196   -0.6921   -0.8943 H       1  UNL1        0.0628
     49 H           2.5291    1.0146   -1.1231 H       1  UNL1        0.0653
     50 H           4.2345    0.8106   -1.6799 H       1  UNL1        0.0640
     51 H           6.6424    0.5528   -1.3918 H       1  UNL1        0.0631
     52 H          10.7046   -2.6643    1.0262 H       1  UNL1        0.0433
     53 H          12.1973   -0.6101    1.0789 H       1  UNL1        0.0277
     54 H          10.8855    0.4846    0.3371 H       1  UNL1        0.0277
     55 H          10.7033   -1.2072    3.0210 H       1  UNL1        0.0277
     56 H           9.3759   -0.1151    2.2168 H       1  UNL1        0.0277
     57 H           6.0394   -3.5826   -0.5378 H       1  UNL1        0.0842
     58 H           1.8622    2.1870    0.7202 H       1  UNL1        0.0624
     59 H          -0.0328    3.2516    1.9066 H       1  UNL1        0.0646
     60 H          -5.1890   -0.5016    3.9872 H       1  UNL1        0.1442
     61 H          -4.5715    1.1409    4.3668 H       1  UNL1        0.1442
@<TRIPOS>BOND
     1     1     2    1
     2     2     3    1
     3     2     4   am
     4     4     5    2
     5     6     4    1
     6     6     7    1
     7     7     8    1
     8     8     9    1
     9     9    10    1
    10     9    11    1
    11    11    12   ar
    12    12    13   ar
    13    13    14    1
    14    14    15    2
    15    15    16    1
    16    15    17    1
    17    17    18   ar
    18    18    19   ar
    19    19    20   ar
    20    20    21    1
    21    21    22    3
    22    22    23    1
    23    23    24    1
    24    24    25    1
    25    20    26   ar
    26    26    27   ar
    27    13    28   ar
    28    28    29   ar
    29    29    30   ar
    30    30    31    1
    31     9    32    1
    32    32    33    2
    33    33    34    1
    34    33    35    1
    35     8     6    1
    36    30    11   ar
    37    35     6    1
    38    27    17   ar
    39    25    23    1
    40     1    36    1
    41     1    37    1
    42     1    38    1
    43     3    39    1
    44     3    40    1
    45     3    41    1
    46     7    42    1
    47     7    43    1
    48     8    44    1
    49    10    45    1
    50    10    46    1
    51    10    47    1
    52    12    48    1
    53    14    49    1
    54    18    50    1
    55    19    51    1
    56    23    52    1
    57    24    53    1
    58    24    54    1
    59    25    55    1
    60    25    56    1
    61    26    57    1
    62    28    58    1
    63    29    59    1
    64    34    60    1
    65    34    61    1
