
     RDKit          3D

 59 63  0  0  0  0  0  0  0  0999 V2000
    1.0298    2.1706   -0.4386 O   0  0  0  0  0  0  0  0  0  0  0  0
    0.6757    0.9586   -0.3231 C   0  0  0  0  0  0  0  0  0  0  0  0
    1.2570    0.1181    0.7256 C   0  0  0  0  0  0  0  0  0  0  0  0
    2.2672    0.9372    1.5286 C   0  0  0  0  0  0  0  0  0  0  0  0
    2.9502   -0.1547    2.8028 S   0  0  0  0  0  0  0  0  0  0  0  0
    3.9275   -1.4814    2.0393 C   0  0  0  0  0  0  0  0  0  0  0  0
    5.1288   -0.8830    1.3869 C   0  0  0  0  0  0  0  0  0  0  0  0
    6.2890   -0.7388    2.0872 N   0  0  0  0  0  0  0  0  0  0  0  0
    7.3817   -0.2019    1.5171 C   0  0  0  0  0  0  0  0  0  0  0  0
    8.5636   -0.0510    2.2174 C   0  0  0  0  0  0  0  0  0  0  0  0
    9.6755    0.5037    1.6109 C   0  0  0  0  0  0  0  0  0  0  0  0
    9.6495    0.9225    0.3014 C   0  0  0  0  0  0  0  0  0  0  0  0
    8.4698    0.7686   -0.3877 C   0  0  0  0  0  0  0  0  0  0  0  0
    7.3360    0.2131    0.1997 C   0  0  0  0  0  0  0  0  0  0  0  0
    6.1500    0.0585   -0.4938 C   0  0  0  0  0  0  0  0  0  0  0  0
    6.1298    0.4424   -1.6909 O   0  0  0  0  0  0  0  0  0  0  0  0
    5.0725   -0.4826    0.1041 N   0  0  0  0  0  0  0  0  0  0  0  0
   -0.2908    0.4458   -1.2316 N   0  0  0  0  0  0  0  0  0  0  0  0
   -0.6850   -0.9413   -1.0801 C   0  0  0  0  0  0  0  0  0  0  0  0
   -2.0951   -1.1596   -1.5577 C   0  0  0  0  0  0  0  0  0  0  0  0
   -2.8179    0.1747   -1.3591 C   0  0  0  0  0  0  0  0  0  0  0  0
   -4.2941    0.0146   -1.4418 C   0  0  0  0  0  0  0  0  0  0  0  0
   -5.0309   -0.4528   -2.4748 N   0  0  0  0  0  0  0  0  0  0  0  0
   -6.3119   -0.4353   -2.1459 N   0  0  0  0  0  0  0  0  0  0  0  0
   -6.3934    0.0498   -0.8863 C   0  0  0  0  0  0  0  0  0  0  0  0
   -7.6347    0.2467   -0.1068 C   0  0  0  0  0  0  0  0  0  0  0  0
   -8.8520   -0.0584   -0.6189 C   0  0  0  0  0  0  0  0  0  0  0  0
   -9.9727    0.1567    0.1808 C   0  0  0  0  0  0  0  0  0  0  0  0
   -9.8847    0.6628    1.4583 C   0  0  0  0  0  0  0  0  0  0  0  0
  -10.9745    0.8760    2.2453 F   0  0  0  0  0  0  0  0  0  0  0  0
   -8.6352    0.9647    1.9551 C   0  0  0  0  0  0  0  0  0  0  0  0
   -7.5145    0.7547    1.1683 C   0  0  0  0  0  0  0  0  0  0  0  0
   -5.1702    0.3028   -0.5099 O   0  0  0  0  0  0  0  0  0  0  0  0
   -2.3399    1.0691   -2.4690 C   0  0  0  0  0  0  0  0  0  0  0  0
   -0.8585    1.3021   -2.2827 C   0  0  0  0  0  0  0  0  0  0  0  0
    1.8152   -0.7567    0.3292 H   0  0  0  0  0  0  0  0  0  0  0  0
    0.5022   -0.2616    1.4597 H   0  0  0  0  0  0  0  0  0  0  0  0
    1.7343    1.7917    1.9433 H   0  0  0  0  0  0  0  0  0  0  0  0
    3.0919    1.2914    0.8724 H   0  0  0  0  0  0  0  0  0  0  0  0
    4.2499   -2.2241    2.7774 H   0  0  0  0  0  0  0  0  0  0  0  0
    3.2637   -1.9379    1.2537 H   0  0  0  0  0  0  0  0  0  0  0  0
    8.5763   -0.3818    3.2441 H   0  0  0  0  0  0  0  0  0  0  0  0
   10.5815    0.6103    2.1754 H   0  0  0  0  0  0  0  0  0  0  0  0
   10.5242    1.3548   -0.1625 H   0  0  0  0  0  0  0  0  0  0  0  0
    8.4129    1.0821   -1.4043 H   0  0  0  0  0  0  0  0  0  0  0  0
    4.1758   -0.5953   -0.4341 H   0  0  0  0  0  0  0  0  0  0  0  0
    0.0559   -1.5532   -1.6292 H   0  0  0  0  0  0  0  0  0  0  0  0
   -0.6833   -1.2137    0.0107 H   0  0  0  0  0  0  0  0  0  0  0  0
   -2.6213   -1.9796   -1.0470 H   0  0  0  0  0  0  0  0  0  0  0  0
   -2.0237   -1.3619   -2.6628 H   0  0  0  0  0  0  0  0  0  0  0  0
   -2.5664    0.5806   -0.3758 H   0  0  0  0  0  0  0  0  0  0  0  0
   -8.9134   -0.4527   -1.6158 H   0  0  0  0  0  0  0  0  0  0  0  0
  -10.9414   -0.0793   -0.2085 H   0  0  0  0  0  0  0  0  0  0  0  0
   -8.5660    1.3640    2.9630 H   0  0  0  0  0  0  0  0  0  0  0  0
   -6.5633    1.0090    1.6097 H   0  0  0  0  0  0  0  0  0  0  0  0
   -2.9114    2.0045   -2.5543 H   0  0  0  0  0  0  0  0  0  0  0  0
   -2.4594    0.5319   -3.4314 H   0  0  0  0  0  0  0  0  0  0  0  0
   -0.6591    2.3567   -1.9418 H   0  0  0  0  0  0  0  0  0  0  0  0
   -0.2730    1.1146   -3.2009 H   0  0  0  0  0  0  0  0  0  0  0  0
  1  2  2  0
  2  3  1  0
  3  4  1  0
  4  5  1  0
  5  6  1  0
  6  7  1  0
  7  8  2  0
  8  9  1  0
  9 10  2  0
 10 11  1  0
 11 12  2  0
 12 13  1  0
 13 14  2  0
 14 15  1  0
 15 16  2  0
 15 17  1  0
  2 18  1  0
 18 19  1  0
 19 20  1  0
 20 21  1  0
 21 22  1  0
 22 23  2  0
 23 24  1  0
 24 25  2  0
 25 26  1  0
 26 27  2  0
 27 28  1  0
 28 29  2  0
 29 30  1  0
 29 31  1  0
 31 32  2  0
 25 33  1  0
 21 34  1  0
 34 35  1  0
 17  7  1  0
 35 18  1  0
 14  9  1  0
 33 22  1  0
 32 26  1  0
  3 36  1  0
  3 37  1  0
  4 38  1  0
  4 39  1  0
  6 40  1  0
  6 41  1  0
 10 42  1  0
 11 43  1  0
 12 44  1  0
 13 45  1  0
 17 46  1  0
 19 47  1  0
 19 48  1  0
 20 49  1  0
 20 50  1  0
 21 51  1  0
 27 52  1  0
 28 53  1  0
 31 54  1  0
 32 55  1  0
 34 56  1  0
 34 57  1  0
 35 58  1  0
 35 59  1  0
M  END
$$$$
