@<TRIPOS>MOLECULE
*****
 59 63 0 0 0
SMALL
GASTEIGER

@<TRIPOS>ATOM
      1 O           1.0298    2.1706   -0.4386 O.2     1  UNL1       -0.2756
      2 C           0.6757    0.9586   -0.3231 C.2     1  UNL1        0.2163
      3 C           1.2570    0.1181    0.7256 C.3     1  UNL1        0.0332
      4 C           2.2672    0.9372    1.5286 C.3     1  UNL1        0.0023
      5 S           2.9502   -0.1547    2.8028 S.3     1  UNL1       -0.1525
      6 C           3.9275   -1.4814    2.0393 C.3     1  UNL1        0.0518
      7 C           5.1288   -0.8830    1.3869 C.ar    1  UNL1        0.1202
      8 N           6.2890   -0.7388    2.0872 N.ar    1  UNL1       -0.2329
      9 C           7.3817   -0.2019    1.5171 C.ar    1  UNL1        0.0782
     10 C           8.5636   -0.0510    2.2174 C.ar    1  UNL1       -0.0355
     11 C           9.6755    0.5037    1.6109 C.ar    1  UNL1       -0.0597
     12 C           9.6495    0.9225    0.3014 C.ar    1  UNL1       -0.0609
     13 C           8.4698    0.7686   -0.3877 C.ar    1  UNL1       -0.0474
     14 C           7.3360    0.2131    0.1997 C.ar    1  UNL1        0.0647
     15 C           6.1500    0.0585   -0.4938 C.ar    1  UNL1        0.2592
     16 O           6.1298    0.4424   -1.6909 O.2     1  UNL1       -0.2672
     17 N           5.0725   -0.4826    0.1041 N.ar    1  UNL1       -0.3097
     18 N          -0.2908    0.4458   -1.2316 N.am    1  UNL1       -0.3014
     19 C          -0.6850   -0.9413   -1.0801 C.3     1  UNL1        0.0154
     20 C          -2.0951   -1.1596   -1.5577 C.3     1  UNL1       -0.0258
     21 C          -2.8179    0.1747   -1.3591 C.3     1  UNL1        0.0400
     22 C          -4.2941    0.0146   -1.4418 C.ar    1  UNL1        0.2209
     23 N          -5.0309   -0.4528   -2.4748 N.ar    1  UNL1       -0.1118
     24 N          -6.3119   -0.4353   -2.1459 N.ar    1  UNL1       -0.1073
     25 C          -6.3934    0.0498   -0.8863 C.ar    1  UNL1        0.2483
     26 C          -7.6347    0.2467   -0.1068 C.ar    1  UNL1        0.0386
     27 C          -8.8520   -0.0584   -0.6189 C.ar    1  UNL1       -0.0467
     28 C          -9.9727    0.1567    0.1808 C.ar    1  UNL1       -0.0257
     29 C          -9.8847    0.6628    1.4583 C.ar    1  UNL1        0.1234
     30 F         -10.9745    0.8760    2.2453 F       1  UNL1       -0.2055
     31 C          -8.6352    0.9647    1.9551 C.ar    1  UNL1       -0.0257
     32 C          -7.5145    0.7547    1.1683 C.ar    1  UNL1       -0.0467
     33 O          -5.1702    0.3028   -0.5099 O.2     1  UNL1       -0.4199
     34 C          -2.3399    1.0691   -2.4690 C.3     1  UNL1       -0.0258
     35 C          -0.8585    1.3021   -2.2827 C.3     1  UNL1        0.0154
     36 H           1.8152   -0.7567    0.3292 H       1  UNL1        0.0366
     37 H           0.5022   -0.2616    1.4597 H       1  UNL1        0.0366
     38 H           1.7343    1.7917    1.9433 H       1  UNL1        0.0381
     39 H           3.0919    1.2914    0.8724 H       1  UNL1        0.0381
     40 H           4.2499   -2.2241    2.7774 H       1  UNL1        0.0455
     41 H           3.2637   -1.9379    1.2537 H       1  UNL1        0.0455
     42 H           8.5763   -0.3818    3.2441 H       1  UNL1        0.0639
     43 H          10.5815    0.6103    2.1754 H       1  UNL1        0.0618
     44 H          10.5242    1.3548   -0.1625 H       1  UNL1        0.0618
     45 H           8.4129    1.0821   -1.4043 H       1  UNL1        0.0626
     46 H           4.1758   -0.5953   -0.4341 H       1  UNL1        0.1701
     47 H           0.0559   -1.5532   -1.6292 H       1  UNL1        0.0465
     48 H          -0.6833   -1.2137    0.0107 H       1  UNL1        0.0465
     49 H          -2.6213   -1.9796   -1.0470 H       1  UNL1        0.0288
     50 H          -2.0237   -1.3619   -2.6628 H       1  UNL1        0.0288
     51 H          -2.5664    0.5806   -0.3758 H       1  UNL1        0.0397
     52 H          -8.9134   -0.4527   -1.6158 H       1  UNL1        0.0626
     53 H         -10.9414   -0.0793   -0.2085 H       1  UNL1        0.0646
     54 H          -8.5660    1.3640    2.9630 H       1  UNL1        0.0646
     55 H          -6.5633    1.0090    1.6097 H       1  UNL1        0.0626
     56 H          -2.9114    2.0045   -2.5543 H       1  UNL1        0.0288
     57 H          -2.4594    0.5319   -3.4314 H       1  UNL1        0.0288
     58 H          -0.6591    2.3567   -1.9418 H       1  UNL1        0.0465
     59 H          -0.2730    1.1146   -3.2009 H       1  UNL1        0.0465
@<TRIPOS>BOND
     1     1     2    2
     2     2     3    1
     3     3     4    1
     4     4     5    1
     5     5     6    1
     6     6     7    1
     7     7     8   ar
     8     8     9   ar
     9     9    10   ar
    10    10    11   ar
    11    11    12   ar
    12    12    13   ar
    13    13    14   ar
    14    14    15   ar
    15    15    16    2
    16    15    17   ar
    17     2    18   am
    18    18    19    1
    19    19    20    1
    20    20    21    1
    21    21    22    1
    22    22    23   ar
    23    23    24   ar
    24    24    25   ar
    25    25    26    1
    26    26    27   ar
    27    27    28   ar
    28    28    29   ar
    29    29    30    1
    30    29    31   ar
    31    31    32   ar
    32    25    33   ar
    33    21    34    1
    34    34    35    1
    35    17     7   ar
    36    35    18    1
    37    14     9   ar
    38    33    22   ar
    39    32    26   ar
    40     3    36    1
    41     3    37    1
    42     4    38    1
    43     4    39    1
    44     6    40    1
    45     6    41    1
    46    10    42    1
    47    11    43    1
    48    12    44    1
    49    13    45    1
    50    17    46    1
    51    19    47    1
    52    19    48    1
    53    20    49    1
    54    20    50    1
    55    21    51    1
    56    27    52    1
    57    28    53    1
    58    31    54    1
    59    32    55    1
    60    34    56    1
    61    34    57    1
    62    35    58    1
    63    35    59    1
