@<TRIPOS>MOLECULE
*****
 110 114 0 0 0
SMALL
GASTEIGER

@<TRIPOS>ATOM
      1 C          -7.3002    0.8858   -1.0780 C.3     1  UNL1       -0.0643
      2 C          -8.1924    1.7155   -0.2436 C.3     1  UNL1       -0.0400
      3 C          -7.7209    3.0305    0.2308 C.3     1  UNL1        0.0702
      4 C          -7.3145    3.9688   -0.8858 C.3     1  UNL1       -0.0400
      5 C          -8.4255    4.2599   -1.8397 C.3     1  UNL1       -0.0643
      6 C          -6.7480    3.0996    1.3461 C.3     1  UNL1       -0.0029
      7 C          -5.4359    2.4385    1.1972 C.3     1  UNL1        0.0906
      8 O          -5.5791    1.0618    1.0724 O.3     1  UNL1       -0.4919
      9 C          -4.5623    0.1642    0.8850 C.ar    1  UNL1        0.1211
     10 C          -4.8431   -1.1950    0.7863 C.ar    1  UNL1       -0.0167
     11 C          -3.8522   -2.1231    0.5934 C.ar    1  UNL1       -0.0435
     12 C          -4.1429   -3.5744    0.5027 C.3     1  UNL1       -0.0255
     13 C          -4.4648   -3.9689   -0.9147 C.3     1  UNL1       -0.0255
     14 C          -5.6753   -3.2637   -1.4485 C.3     1  UNL1        0.0476
     15 O          -6.8222   -3.4945   -0.7338 O.3     1  UNL1       -0.3830
     16 C          -7.1329   -4.8377   -0.7273 C.3     1  UNL1        0.0364
     17 C          -2.5344   -1.6496    0.4983 C.ar    1  UNL1       -0.0537
     18 C          -2.2315   -0.3214    0.5920 C.ar    1  UNL1       -0.0264
     19 C          -0.8747    0.2049    0.4064 C.3     1  UNL1        0.0401
     20 N           0.1279   -0.1416    1.3549 N.am    1  UNL1       -0.2938
     21 C           1.2028   -1.0064    1.0474 C.2     1  UNL1        0.2210
     22 O           1.9436   -1.2678    2.1030 O.2     1  UNL1       -0.2752
     23 C           1.6172   -1.6264   -0.2023 C.3     1  UNL1        0.0550
     24 C           0.6539   -2.5571   -0.8660 C.3     1  UNL1        0.0076
     25 N           1.3943   -3.2650   -1.9259 N.3     1  UNL1       -0.3152
     26 C           1.7953   -2.3751   -2.9654 C.3     1  UNL1       -0.0035
     27 C           1.5634   -0.9519   -2.6074 C.3     1  UNL1       -0.0329
     28 C           2.1083   -0.6420   -1.2408 C.3     1  UNL1       -0.0024
     29 C           3.5672   -0.4628   -1.2669 C.ar    1  UNL1       -0.0432
     30 C           4.4905   -1.4795   -1.3080 C.ar    1  UNL1       -0.0548
     31 C           5.8716   -1.2417   -1.3356 C.ar    1  UNL1       -0.0197
     32 C           6.3792    0.0352   -1.3213 C.ar    1  UNL1        0.1207
     33 O           7.7018    0.3422   -1.3414 O.3     1  UNL1       -0.4886
     34 C           8.8381   -0.4220   -1.3579 C.3     1  UNL1        0.1235
     35 C           9.0672   -1.2897   -0.1747 C.3     1  UNL1        0.1236
     36 O           9.2027   -0.6598    1.0630 O.3     1  UNL1       -0.4857
     37 C          10.2125    0.2193    1.3463 C.ar    1  UNL1        0.1571
     38 C          10.0985    1.5701    1.2936 C.ar    1  UNL1        0.0842
     39 CL          8.5679    2.3224    0.9235 Cl      1  UNL1       -0.0797
     40 C          11.2110    2.3833    1.5979 C.ar    1  UNL1       -0.0368
     41 C          12.4087    1.8051    1.9496 C.ar    1  UNL1       -0.0475
     42 C          13.5926    2.6596    2.2765 C.3     1  UNL1       -0.0396
     43 C          12.5111    0.4376    2.0010 C.ar    1  UNL1       -0.0368
     44 C          11.4438   -0.3692    1.7084 C.ar    1  UNL1        0.0842
     45 CL         11.5791   -2.1160    1.7789 Cl      1  UNL1       -0.0797
     46 C           5.4210    1.0716   -1.2794 C.ar    1  UNL1       -0.0197
     47 C           4.0773    0.8207   -1.2539 C.ar    1  UNL1       -0.0548
     48 C           0.0895    0.4582    2.6850 C.3     1  UNL1        0.0265
     49 C          -0.6488    1.6768    2.9918 C.3     1  UNL1       -0.0326
     50 C          -1.1986    0.4204    3.4985 C.3     1  UNL1       -0.0326
     51 C          -3.2752    0.5769    0.7881 C.ar    1  UNL1       -0.0152
     52 C          -8.9854    3.6711    0.8258 C.2     1  UNL1        0.3110
     53 O          -9.3540    4.7589    0.3749 O.2     1  UNL1       -0.2504
     54 O          -9.6749    3.0337    1.8341 O.3     1  UNL1       -0.4802
     55 H          -6.3707    1.3601   -1.4407 H       1  UNL1        0.0230
     56 H          -7.8623    0.6919   -2.0597 H       1  UNL1        0.0230
     57 H          -7.1568   -0.1611   -0.7055 H       1  UNL1        0.0230
     58 H          -8.4474    1.1099    0.6774 H       1  UNL1        0.0273
     59 H          -9.1967    1.8297   -0.7461 H       1  UNL1        0.0273
     60 H          -6.3844    3.6369   -1.3896 H       1  UNL1        0.0273
     61 H          -7.0396    4.9364   -0.3800 H       1  UNL1        0.0273
     62 H          -9.3021    3.6305   -1.6436 H       1  UNL1        0.0230
     63 H          -8.0851    4.1718   -2.9084 H       1  UNL1        0.0230
     64 H          -8.7906    5.3300   -1.7914 H       1  UNL1        0.0230
     65 H          -7.2989    2.7595    2.2740 H       1  UNL1        0.0309
     66 H          -6.6075    4.2094    1.5571 H       1  UNL1        0.0309
     67 H          -4.7818    2.8911    0.4236 H       1  UNL1        0.0697
     68 H          -4.8624    2.6073    2.1579 H       1  UNL1        0.0697
     69 H          -5.8519   -1.5092    0.8661 H       1  UNL1        0.0657
     70 H          -5.0125   -3.8560    1.1439 H       1  UNL1        0.0314
     71 H          -3.2192   -4.1234    0.8335 H       1  UNL1        0.0314
     72 H          -4.5147   -5.0572   -1.0460 H       1  UNL1        0.0290
     73 H          -3.6116   -3.6384   -1.5774 H       1  UNL1        0.0290
     74 H          -5.5132   -2.1647   -1.5334 H       1  UNL1        0.0560
     75 H          -5.8319   -3.5985   -2.5116 H       1  UNL1        0.0560
     76 H          -8.0746   -4.9637   -0.1381 H       1  UNL1        0.0523
     77 H          -6.3236   -5.4436   -0.2695 H       1  UNL1        0.0523
     78 H          -7.3141   -5.2088   -1.7701 H       1  UNL1        0.0523
     79 H          -1.8029   -2.4112    0.3613 H       1  UNL1        0.0624
     80 H          -0.5599   -0.0196   -0.6380 H       1  UNL1        0.0514
     81 H          -0.9387    1.3495    0.4440 H       1  UNL1        0.0514
     82 H           2.4924   -2.3238    0.0652 H       1  UNL1        0.0413
     83 H          -0.1996   -2.1183   -1.3700 H       1  UNL1        0.0432
     84 H           0.3838   -3.3480   -0.1319 H       1  UNL1        0.0432
     85 H           2.1767   -3.8143   -1.5781 H       1  UNL1        0.1220
     86 H           1.2034   -2.5719   -3.8996 H       1  UNL1        0.0424
     87 H           2.8631   -2.5119   -3.2874 H       1  UNL1        0.0424
     88 H           2.0911   -0.2834   -3.3506 H       1  UNL1        0.0283
     89 H           0.4907   -0.6646   -2.6948 H       1  UNL1        0.0283
     90 H           1.6731    0.3576   -0.9629 H       1  UNL1        0.0357
     91 H           4.1226   -2.4851   -1.3096 H       1  UNL1        0.0622
     92 H           6.5263   -2.1103   -1.3892 H       1  UNL1        0.0654
     93 H           9.7675    0.2064   -1.5094 H       1  UNL1        0.0731
     94 H           8.7712   -1.1375   -2.2512 H       1  UNL1        0.0731
     95 H          10.0629   -1.8554   -0.3938 H       1  UNL1        0.0731
     96 H           8.3645   -2.1651   -0.1103 H       1  UNL1        0.0731
     97 H          11.0661    3.4516    1.5392 H       1  UNL1        0.0636
     98 H          14.0314    2.2708    3.2247 H       1  UNL1        0.0278
     99 H          13.2487    3.7108    2.3807 H       1  UNL1        0.0278
    100 H          14.3055    2.6302    1.4496 H       1  UNL1        0.0278
    101 H          13.4629   -0.0082    2.2817 H       1  UNL1        0.0636
    102 H           5.8374    2.0788   -1.2695 H       1  UNL1        0.0654
    103 H           3.3881    1.6781   -1.2210 H       1  UNL1        0.0622
    104 H           0.9897    0.1913    3.3285 H       1  UNL1        0.0500
    105 H          -0.2089    2.3804    3.7452 H       1  UNL1        0.0284
    106 H          -1.2540    2.2188    2.2516 H       1  UNL1        0.0284
    107 H          -1.9685   -0.2009    3.0622 H       1  UNL1        0.0284
    108 H          -1.0862    0.2449    4.6189 H       1  UNL1        0.0284
    109 H          -3.0686    1.6241    0.8609 H       1  UNL1        0.0657
    110 H         -10.5267    3.4057    2.2504 H       1  UNL1        0.2951
@<TRIPOS>BOND
     1     1     2    1
     2     2     3    1
     3     3     4    1
     4     4     5    1
     5     3     6    1
     6     6     7    1
     7     7     8    1
     8     8     9    1
     9     9    10   ar
    10    10    11   ar
    11    11    12    1
    12    12    13    1
    13    13    14    1
    14    14    15    1
    15    15    16    1
    16    11    17   ar
    17    17    18   ar
    18    18    19    1
    19    19    20    1
    20    20    21   am
    21    21    22    2
    22    21    23    1
    23    23    24    1
    24    24    25    1
    25    25    26    1
    26    26    27    1
    27    27    28    1
    28    28    29    1
    29    29    30   ar
    30    30    31   ar
    31    31    32   ar
    32    32    33    1
    33    33    34    1
    34    34    35    1
    35    35    36    1
    36    36    37    1
    37    37    38   ar
    38    38    39    1
    39    38    40   ar
    40    40    41   ar
    41    41    42    1
    42    41    43   ar
    43    43    44   ar
    44    44    45    1
    45    32    46   ar
    46    46    47   ar
    47    20    48    1
    48    48    49    1
    49    49    50    1
    50    18    51   ar
    51     3    52    1
    52    52    53    2
    53    52    54    1
    54    51     9   ar
    55    28    23    1
    56    47    29   ar
    57    50    48    1
    58    44    37   ar
    59     1    55    1
    60     1    56    1
    61     1    57    1
    62     2    58    1
    63     2    59    1
    64     4    60    1
    65     4    61    1
    66     5    62    1
    67     5    63    1
    68     5    64    1
    69     6    65    1
    70     6    66    1
    71     7    67    1
    72     7    68    1
    73    10    69    1
    74    12    70    1
    75    12    71    1
    76    13    72    1
    77    13    73    1
    78    14    74    1
    79    14    75    1
    80    16    76    1
    81    16    77    1
    82    16    78    1
    83    17    79    1
    84    19    80    1
    85    19    81    1
    86    23    82    1
    87    24    83    1
    88    24    84    1
    89    25    85    1
    90    26    86    1
    91    26    87    1
    92    27    88    1
    93    27    89    1
    94    28    90    1
    95    30    91    1
    96    31    92    1
    97    34    93    1
    98    34    94    1
    99    35    95    1
   100    35    96    1
   101    40    97    1
   102    42    98    1
   103    42    99    1
   104    42   100    1
   105    43   101    1
   106    46   102    1
   107    47   103    1
   108    48   104    1
   109    49   105    1
   110    49   106    1
   111    50   107    1
   112    50   108    1
   113    51   109    1
   114    54   110    1
