
     RDKit          3D

 35 38  0  0  0  0  0  0  0  0999 V2000
   -6.4221    2.0429   -1.8409 N   0  0  0  0  0  0  0  0  0  0  0  0
   -5.4345    1.5188   -1.4951 C   0  0  0  0  0  0  0  0  0  0  0  0
   -4.2134    0.8779   -1.0437 C   0  0  0  0  0  0  0  0  0  0  0  0
   -3.9338   -0.4447   -1.2697 C   0  0  0  0  0  0  0  0  0  0  0  0
   -2.7456   -0.9716   -0.8080 C   0  0  0  0  0  0  0  0  0  0  0  0
   -1.8138   -0.2234   -0.1217 C   0  0  0  0  0  0  0  0  0  0  0  0
   -0.5563   -0.7883    0.3926 C   0  0  0  0  0  0  0  0  0  0  0  0
    0.7023   -0.2960    0.2097 C   0  0  0  0  0  0  0  0  0  0  0  0
    1.1205    0.8390   -0.5869 C   0  0  0  0  0  0  0  0  0  0  0  0
    0.3508    1.4740   -1.3140 O   0  0  0  0  0  0  0  0  0  0  0  0
    2.4918    1.2973   -0.5714 N   0  0  0  0  0  0  0  0  0  0  0  0
    2.9081    2.4274   -1.3667 C   0  0  0  0  0  0  0  0  0  0  0  0
    4.3407    2.5972   -1.7677 C   0  0  0  0  0  0  0  0  0  0  0  0
    3.8010    3.4511   -0.6328 C   0  0  0  0  0  0  0  0  0  0  0  0
    1.5254   -1.1289    0.9069 N   0  0  0  0  0  0  0  0  0  0  0  0
    0.7764   -2.0876    1.4845 C   0  0  0  0  0  0  0  0  0  0  0  0
    1.0830   -3.1691    2.2858 C   0  0  0  0  0  0  0  0  0  0  0  0
    0.1146   -4.0274    2.7612 C   0  0  0  0  0  0  0  0  0  0  0  0
   -1.1881   -3.7749    2.4114 C   0  0  0  0  0  0  0  0  0  0  0  0
   -1.4692   -2.7229    1.6344 N   0  0  0  0  0  0  0  0  0  0  0  0
   -0.5099   -1.9042    1.1856 N   0  0  0  0  0  0  0  0  0  0  0  0
   -2.1473    1.0988    0.0778 C   0  0  0  0  0  0  0  0  0  0  0  0
   -3.3064    1.6236   -0.3701 N   0  0  0  0  0  0  0  0  0  0  0  0
   -4.6729   -1.0338   -1.8122 H   0  0  0  0  0  0  0  0  0  0  0  0
   -2.5473   -2.0117   -0.9967 H   0  0  0  0  0  0  0  0  0  0  0  0
    3.1305    0.7582    0.0441 H   0  0  0  0  0  0  0  0  0  0  0  0
    2.1652    2.9284   -2.0204 H   0  0  0  0  0  0  0  0  0  0  0  0
    5.0067    1.7547   -1.5221 H   0  0  0  0  0  0  0  0  0  0  0  0
    4.5457    3.1427   -2.7163 H   0  0  0  0  0  0  0  0  0  0  0  0
    4.1870    3.1544    0.3632 H   0  0  0  0  0  0  0  0  0  0  0  0
    3.6312    4.5289   -0.8430 H   0  0  0  0  0  0  0  0  0  0  0  0
    2.1108   -3.3517    2.5502 H   0  0  0  0  0  0  0  0  0  0  0  0
    0.3859   -4.8873    3.4008 H   0  0  0  0  0  0  0  0  0  0  0  0
   -1.9642   -4.4187    2.7619 H   0  0  0  0  0  0  0  0  0  0  0  0
   -1.4527    1.7269    0.6295 H   0  0  0  0  0  0  0  0  0  0  0  0
  1  2  3  0
  2  3  1  0
  3  4  2  0
  4  5  1  0
  5  6  2  0
  6  7  1  0
  7  8  2  0
  8  9  1  0
  9 10  2  0
  9 11  1  0
 11 12  1  0
 12 13  1  0
 13 14  1  0
  8 15  1  0
 15 16  2  0
 16 17  1  0
 17 18  2  0
 18 19  1  0
 19 20  2  0
 20 21  1  0
  6 22  1  0
 22 23  2  0
 23  3  1  0
 21  7  1  0
 14 12  1  0
 21 16  1  0
  4 24  1  0
  5 25  1  0
 11 26  1  0
 12 27  1  0
 13 28  1  0
 13 29  1  0
 14 30  1  0
 14 31  1  0
 17 32  1  0
 18 33  1  0
 19 34  1  0
 22 35  1  0
M  END
$$$$
