@<TRIPOS>MOLECULE
*****
 35 38 0 0 0
SMALL
GASTEIGER

@<TRIPOS>ATOM
      1 N          -6.4221    2.0429   -1.8409 N.1     1  UNL1       -0.1893
      2 C          -5.4345    1.5188   -1.4951 C.1     1  UNL1        0.1191
      3 C          -4.2134    0.8779   -1.0437 C.ar    1  UNL1        0.1401
      4 C          -3.9338   -0.4447   -1.2697 C.ar    1  UNL1       -0.0252
      5 C          -2.7456   -0.9716   -0.8080 C.ar    1  UNL1       -0.0484
      6 C          -1.8138   -0.2234   -0.1217 C.ar    1  UNL1        0.0209
      7 C          -0.5563   -0.7883    0.3926 C.ar    1  UNL1        0.1067
      8 C           0.7023   -0.2960    0.2097 C.ar    1  UNL1        0.1537
      9 C           1.1205    0.8390   -0.5869 C.2     1  UNL1        0.2648
     10 O           0.3508    1.4740   -1.3140 O.2     1  UNL1       -0.2684
     11 N           2.4918    1.2973   -0.5714 N.am    1  UNL1       -0.3072
     12 C           2.9081    2.4274   -1.3667 C.3     1  UNL1        0.0236
     13 C           4.3407    2.5972   -1.7677 C.3     1  UNL1       -0.0328
     14 C           3.8010    3.4511   -0.6328 C.3     1  UNL1       -0.0328
     15 N           1.5254   -1.1289    0.9069 N.ar    1  UNL1       -0.2211
     16 C           0.7764   -2.0876    1.4845 C.ar    1  UNL1        0.1556
     17 C           1.0830   -3.1691    2.2858 C.ar    1  UNL1       -0.0159
     18 C           0.1146   -4.0274    2.7612 C.ar    1  UNL1       -0.0384
     19 C          -1.1881   -3.7749    2.4114 C.ar    1  UNL1        0.0485
     20 N          -1.4692   -2.7229    1.6344 N.ar    1  UNL1       -0.1729
     21 N          -0.5099   -1.9042    1.1856 N.ar    1  UNL1       -0.2118
     22 C          -2.1473    1.0988    0.0778 C.ar    1  UNL1        0.0383
     23 N          -3.3064    1.6236   -0.3701 N.ar    1  UNL1       -0.2440
     24 H          -4.6729   -1.0338   -1.8122 H       1  UNL1        0.0646
     25 H          -2.5473   -2.0117   -0.9967 H       1  UNL1        0.0625
     26 H           3.1305    0.7582    0.0441 H       1  UNL1        0.1493
     27 H           2.1652    2.9284   -2.0204 H       1  UNL1        0.0498
     28 H           5.0067    1.7547   -1.5221 H       1  UNL1        0.0284
     29 H           4.5457    3.1427   -2.7163 H       1  UNL1        0.0284
     30 H           4.1870    3.1544    0.3632 H       1  UNL1        0.0284
     31 H           3.6312    4.5289   -0.8430 H       1  UNL1        0.0284
     32 H           2.1108   -3.3517    2.5502 H       1  UNL1        0.0655
     33 H           0.3859   -4.8873    3.4008 H       1  UNL1        0.0634
     34 H          -1.9642   -4.4187    2.7619 H       1  UNL1        0.0847
     35 H          -1.4527    1.7269    0.6295 H       1  UNL1        0.0837
@<TRIPOS>BOND
     1     1     2    3
     2     2     3    1
     3     3     4   ar
     4     4     5   ar
     5     5     6   ar
     6     6     7    1
     7     7     8   ar
     8     8     9    1
     9     9    10    2
    10     9    11   am
    11    11    12    1
    12    12    13    1
    13    13    14    1
    14     8    15   ar
    15    15    16   ar
    16    16    17   ar
    17    17    18   ar
    18    18    19   ar
    19    19    20   ar
    20    20    21   ar
    21     6    22   ar
    22    22    23   ar
    23    23     3   ar
    24    21     7   ar
    25    14    12    1
    26    21    16   ar
    27     4    24    1
    28     5    25    1
    29    11    26    1
    30    12    27    1
    31    13    28    1
    32    13    29    1
    33    14    30    1
    34    14    31    1
    35    17    32    1
    36    18    33    1
    37    19    34    1
    38    22    35    1
