
     RDKit          3D

 70 72  0  0  0  0  0  0  0  0999 V2000
    3.0669   -6.1027   -1.8861 C   0  0  0  0  0  0  0  0  0  0  0  0
    2.6702   -4.6132   -1.9574 C   0  0  0  0  0  0  0  0  0  0  0  0
    1.1947   -4.5808   -1.9871 C   0  0  0  0  0  0  0  0  0  0  0  0
    0.5839   -3.2689   -2.0548 C   0  0  0  0  0  0  0  0  0  0  0  0
    0.5796   -2.2761   -0.9488 C   0  0  2  0  0  0  0  0  0  0  0  0
   -0.1122   -1.0663   -1.4988 N   0  0  0  0  0  0  0  0  0  0  0  0
   -1.2926   -0.5845   -0.9126 C   0  0  0  0  0  0  0  0  0  0  0  0
   -1.7489   -1.1997    0.0867 O   0  0  0  0  0  0  0  0  0  0  0  0
   -1.9883    0.5138   -1.3525 O   0  0  0  0  0  0  0  0  0  0  0  0
   -3.2053    0.9966   -0.7204 C   0  0  0  0  0  0  0  0  0  0  0  0
   -2.9111    1.3981    0.6883 C   0  0  0  0  0  0  0  0  0  0  0  0
   -4.0531    1.9093    1.4706 C   0  0  0  0  0  0  0  0  0  0  0  0
   -4.7928    1.0396    2.2283 C   0  0  0  0  0  0  0  0  0  0  0  0
   -5.8494    1.5116    2.9610 C   0  0  0  0  0  0  0  0  0  0  0  0
   -6.2261    2.8383    2.9862 C   0  0  0  0  0  0  0  0  0  0  0  0
   -5.4493    3.6836    2.2047 C   0  0  0  0  0  0  0  0  0  0  0  0
   -4.3901    3.2370    1.4647 C   0  0  0  0  0  0  0  0  0  0  0  0
   -3.6492    2.1223   -1.5928 C   0  0  0  0  0  0  0  0  0  0  0  0
   -5.1303    2.0666   -1.6481 C   0  0  0  0  0  0  0  0  0  0  0  0
   -5.5471    0.7240   -1.1555 C   0  0  0  0  0  0  0  0  0  0  0  0
   -4.2861   -0.0350   -0.8657 C   0  0  0  0  0  0  0  0  0  0  0  0
    1.8279   -1.9368   -0.3272 C   0  0  0  0  0  0  0  0  0  0  0  0
    2.2972   -2.7623    0.5464 O   0  0  0  0  0  0  0  0  0  0  0  0
    2.5730   -0.7303   -0.6309 C   0  0  0  0  0  0  0  0  0  0  0  0
    2.2165    0.1373   -1.4544 O   0  0  0  0  0  0  0  0  0  0  0  0
    3.8275   -0.4484    0.0305 N   0  0  0  0  0  0  0  0  0  0  0  0
    4.5914    0.7501   -0.2570 C   0  0  2  0  0  0  0  0  0  0  0  0
    5.9765    0.4008   -0.7872 C   0  0  0  0  0  0  0  0  0  0  0  0
    4.7812    1.5453    0.9842 C   0  0  0  0  0  0  0  0  0  0  0  0
    4.5886    2.9269    0.9662 C   0  0  0  0  0  0  0  0  0  0  0  0
    4.7548    3.6981    2.0906 C   0  0  0  0  0  0  0  0  0  0  0  0
    5.1248    3.1091    3.2918 C   0  0  0  0  0  0  0  0  0  0  0  0
    5.3151    1.7486    3.3124 C   0  0  0  0  0  0  0  0  0  0  0  0
    5.1509    0.9647    2.1894 C   0  0  0  0  0  0  0  0  0  0  0  0
    2.4780   -6.6190   -2.6697 H   0  0  0  0  0  0  0  0  0  0  0  0
    2.7244   -6.4543   -0.9043 H   0  0  0  0  0  0  0  0  0  0  0  0
    4.1450   -6.2343   -1.9957 H   0  0  0  0  0  0  0  0  0  0  0  0
    3.2163   -4.0883   -1.2103 H   0  0  0  0  0  0  0  0  0  0  0  0
    3.0518   -4.2330   -2.9683 H   0  0  0  0  0  0  0  0  0  0  0  0
    0.7514   -5.1173   -1.0787 H   0  0  0  0  0  0  0  0  0  0  0  0
    0.8846   -5.2042   -2.8809 H   0  0  0  0  0  0  0  0  0  0  0  0
    0.9319   -2.7167   -3.0028 H   0  0  0  0  0  0  0  0  0  0  0  0
   -0.5384   -3.4464   -2.3016 H   0  0  0  0  0  0  0  0  0  0  0  0
   -0.1691   -2.6670   -0.1883 H   0  0  0  0  0  0  0  0  0  0  0  0
    0.2719   -0.5828   -2.3297 H   0  0  0  0  0  0  0  0  0  0  0  0
   -2.3702    0.6246    1.2598 H   0  0  0  0  0  0  0  0  0  0  0  0
   -2.1821    2.2625    0.6291 H   0  0  0  0  0  0  0  0  0  0  0  0
   -4.5888   -0.0264    2.2916 H   0  0  0  0  0  0  0  0  0  0  0  0
   -6.4649    0.8410    3.5804 H   0  0  0  0  0  0  0  0  0  0  0  0
   -7.0650    3.2034    3.5699 H   0  0  0  0  0  0  0  0  0  0  0  0
   -5.7369    4.7426    2.2147 H   0  0  0  0  0  0  0  0  0  0  0  0
   -3.7998    3.9383    0.8621 H   0  0  0  0  0  0  0  0  0  0  0  0
   -3.2371    3.1057   -1.2979 H   0  0  0  0  0  0  0  0  0  0  0  0
   -3.2368    1.9399   -2.6299 H   0  0  0  0  0  0  0  0  0  0  0  0
   -5.5868    2.9228   -1.1235 H   0  0  0  0  0  0  0  0  0  0  0  0
   -5.4552    2.1963   -2.7217 H   0  0  0  0  0  0  0  0  0  0  0  0
   -6.1720    0.7471   -0.2510 H   0  0  0  0  0  0  0  0  0  0  0  0
   -6.1604    0.1686   -1.9376 H   0  0  0  0  0  0  0  0  0  0  0  0
   -4.3962   -0.6886    0.0268 H   0  0  0  0  0  0  0  0  0  0  0  0
   -4.0019   -0.6472   -1.7668 H   0  0  0  0  0  0  0  0  0  0  0  0
    4.1699   -1.1337    0.7232 H   0  0  0  0  0  0  0  0  0  0  0  0
    4.1066    1.3829   -1.0146 H   0  0  0  0  0  0  0  0  0  0  0  0
    5.8445   -0.2044   -1.7260 H   0  0  0  0  0  0  0  0  0  0  0  0
    6.4625    1.3501   -1.0668 H   0  0  0  0  0  0  0  0  0  0  0  0
    6.5686   -0.1647   -0.0400 H   0  0  0  0  0  0  0  0  0  0  0  0
    4.2964    3.3926    0.0207 H   0  0  0  0  0  0  0  0  0  0  0  0
    4.6016    4.7609    2.0549 H   0  0  0  0  0  0  0  0  0  0  0  0
    5.2519    3.7354    4.1726 H   0  0  0  0  0  0  0  0  0  0  0  0
    5.6038    1.3002    4.2570 H   0  0  0  0  0  0  0  0  0  0  0  0
    5.3118   -0.1030    2.2535 H   0  0  0  0  0  0  0  0  0  0  0  0
  1  2  1  0
  2  3  1  0
  3  4  1  0
  4  5  1  0
  5  6  1  0
  6  7  1  0
  7  8  2  0
  7  9  1  0
  9 10  1  0
 10 11  1  0
 11 12  1  0
 12 13  2  0
 13 14  1  0
 14 15  2  0
 15 16  1  0
 16 17  2  0
 10 18  1  0
 18 19  1  0
 19 20  1  0
 20 21  1  0
  5 22  1  0
 22 23  2  0
 22 24  1  0
 24 25  2  0
 24 26  1  0
 26 27  1  0
 27 28  1  0
 27 29  1  0
 29 30  2  0
 30 31  1  0
 31 32  2  0
 32 33  1  0
 33 34  2  0
 21 10  1  0
 34 29  1  0
 17 12  1  0
  1 35  1  0
  1 36  1  0
  1 37  1  0
  2 38  1  0
  2 39  1  0
  3 40  1  0
  3 41  1  0
  4 42  1  0
  4 43  1  0
  5 44  1  1
  6 45  1  0
 11 46  1  0
 11 47  1  0
 13 48  1  0
 14 49  1  0
 15 50  1  0
 16 51  1  0
 17 52  1  0
 18 53  1  0
 18 54  1  0
 19 55  1  0
 19 56  1  0
 20 57  1  0
 20 58  1  0
 21 59  1  0
 21 60  1  0
 26 61  1  0
 27 62  1  6
 28 63  1  0
 28 64  1  0
 28 65  1  0
 30 66  1  0
 31 67  1  0
 32 68  1  0
 33 69  1  0
 34 70  1  0
M  END
$$$$
