@<TRIPOS>MOLECULE
*****
 70 72 0 0 0
SMALL
GASTEIGER

@<TRIPOS>ATOM
      1 C           3.0669   -6.1027   -1.8861 C.3     1  UNL1       -0.0653
      2 C           2.6702   -4.6132   -1.9574 C.3     1  UNL1       -0.0558
      3 C           1.1947   -4.5808   -1.9871 C.3     1  UNL1       -0.0512
      4 C           0.5839   -3.2689   -2.0548 C.3     1  UNL1       -0.0270
      5 C           0.5796   -2.2761   -0.9488 C.3     1  UNL1        0.0937
      6 N          -0.1122   -1.0663   -1.4988 N.am    1  UNL1       -0.2710
      7 C          -1.2926   -0.5845   -0.9126 C.2     1  UNL1        0.4014
      8 O          -1.7489   -1.1997    0.0867 O.2     1  UNL1       -0.2264
      9 O          -1.9883    0.5138   -1.3525 O.3     1  UNL1       -0.4435
     10 C          -3.2053    0.9966   -0.7204 C.3     1  UNL1        0.1191
     11 C          -2.9111    1.3981    0.6883 C.3     1  UNL1        0.0125
     12 C          -4.0531    1.9093    1.4706 C.ar    1  UNL1       -0.0436
     13 C          -4.7928    1.0396    2.2283 C.ar    1  UNL1       -0.0584
     14 C          -5.8494    1.5116    2.9610 C.ar    1  UNL1       -0.0615
     15 C          -6.2261    2.8383    2.9862 C.ar    1  UNL1       -0.0617
     16 C          -5.4493    3.6836    2.2047 C.ar    1  UNL1       -0.0615
     17 C          -4.3901    3.2370    1.4647 C.ar    1  UNL1       -0.0584
     18 C          -3.6492    2.1223   -1.5928 C.3     1  UNL1       -0.0124
     19 C          -5.1303    2.0666   -1.6481 C.3     1  UNL1       -0.0493
     20 C          -5.5471    0.7240   -1.1555 C.3     1  UNL1       -0.0493
     21 C          -4.2861   -0.0350   -0.8657 C.3     1  UNL1       -0.0124
     22 C           1.8279   -1.9368   -0.3272 C.2     1  UNL1        0.2372
     23 O           2.2972   -2.7623    0.5464 O.2     1  UNL1       -0.2852
     24 C           2.5730   -0.7303   -0.6309 C.2     1  UNL1        0.2819
     25 O           2.2165    0.1373   -1.4544 O.2     1  UNL1       -0.2670
     26 N           3.8275   -0.4484    0.0305 N.am    1  UNL1       -0.3024
     27 C           4.5914    0.7501   -0.2570 C.3     1  UNL1        0.0459
     28 C           5.9765    0.4008   -0.7872 C.3     1  UNL1       -0.0424
     29 C           4.7812    1.5453    0.9842 C.ar    1  UNL1       -0.0275
     30 C           4.5886    2.9269    0.9662 C.ar    1  UNL1       -0.0568
     31 C           4.7548    3.6981    2.0906 C.ar    1  UNL1       -0.0614
     32 C           5.1248    3.1091    3.2918 C.ar    1  UNL1       -0.0617
     33 C           5.3151    1.7486    3.3124 C.ar    1  UNL1       -0.0614
     34 C           5.1509    0.9647    2.1894 C.ar    1  UNL1       -0.0568
     35 H           2.4780   -6.6190   -2.6697 H       1  UNL1        0.0230
     36 H           2.7244   -6.4543   -0.9043 H       1  UNL1        0.0230
     37 H           4.1450   -6.2343   -1.9957 H       1  UNL1        0.0230
     38 H           3.2163   -4.0883   -1.2103 H       1  UNL1        0.0263
     39 H           3.0518   -4.2330   -2.9683 H       1  UNL1        0.0263
     40 H           0.7514   -5.1173   -1.0787 H       1  UNL1        0.0266
     41 H           0.8846   -5.2042   -2.8809 H       1  UNL1        0.0266
     42 H           0.9319   -2.7167   -3.0028 H       1  UNL1        0.0287
     43 H          -0.5384   -3.4464   -2.3016 H       1  UNL1        0.0287
     44 H          -0.1691   -2.6670   -0.1883 H       1  UNL1        0.0583
     45 H           0.2719   -0.5828   -2.3297 H       1  UNL1        0.1527
     46 H          -2.3702    0.6246    1.2598 H       1  UNL1        0.0352
     47 H          -2.1821    2.2625    0.6291 H       1  UNL1        0.0352
     48 H          -4.5888   -0.0264    2.2916 H       1  UNL1        0.0620
     49 H          -6.4649    0.8410    3.5804 H       1  UNL1        0.0618
     50 H          -7.0650    3.2034    3.5699 H       1  UNL1        0.0618
     51 H          -5.7369    4.7426    2.2147 H       1  UNL1        0.0618
     52 H          -3.7998    3.9383    0.8621 H       1  UNL1        0.0620
     53 H          -3.2371    3.1057   -1.2979 H       1  UNL1        0.0304
     54 H          -3.2368    1.9399   -2.6299 H       1  UNL1        0.0304
     55 H          -5.5868    2.9228   -1.1235 H       1  UNL1        0.0267
     56 H          -5.4552    2.1963   -2.7217 H       1  UNL1        0.0267
     57 H          -6.1720    0.7471   -0.2510 H       1  UNL1        0.0267
     58 H          -6.1604    0.1686   -1.9376 H       1  UNL1        0.0267
     59 H          -4.3962   -0.6886    0.0268 H       1  UNL1        0.0304
     60 H          -4.0019   -0.6472   -1.7668 H       1  UNL1        0.0304
     61 H           4.1699   -1.1337    0.7232 H       1  UNL1        0.1497
     62 H           4.1066    1.3829   -1.0146 H       1  UNL1        0.0545
     63 H           5.8445   -0.2044   -1.7260 H       1  UNL1        0.0251
     64 H           6.4625    1.3501   -1.0668 H       1  UNL1        0.0251
     65 H           6.5686   -0.1647   -0.0400 H       1  UNL1        0.0251
     66 H           4.2964    3.3926    0.0207 H       1  UNL1        0.0621
     67 H           4.6016    4.7609    2.0549 H       1  UNL1        0.0618
     68 H           5.2519    3.7354    4.1726 H       1  UNL1        0.0618
     69 H           5.6038    1.3002    4.2570 H       1  UNL1        0.0618
     70 H           5.3118   -0.1030    2.2535 H       1  UNL1        0.0621
@<TRIPOS>BOND
     1     1     2    1
     2     2     3    1
     3     3     4    1
     4     4     5    1
     5     5     6    1
     6     6     7   am
     7     7     8    2
     8     7     9    1
     9     9    10    1
    10    10    11    1
    11    11    12    1
    12    12    13   ar
    13    13    14   ar
    14    14    15   ar
    15    15    16   ar
    16    16    17   ar
    17    10    18    1
    18    18    19    1
    19    19    20    1
    20    20    21    1
    21     5    22    1
    22    22    23    2
    23    22    24    1
    24    24    25    2
    25    24    26   am
    26    26    27    1
    27    27    28    1
    28    27    29    1
    29    29    30   ar
    30    30    31   ar
    31    31    32   ar
    32    32    33   ar
    33    33    34   ar
    34    21    10    1
    35    34    29   ar
    36    17    12   ar
    37     1    35    1
    38     1    36    1
    39     1    37    1
    40     2    38    1
    41     2    39    1
    42     3    40    1
    43     3    41    1
    44     4    42    1
    45     4    43    1
    46     5    44    1
    47     6    45    1
    48    11    46    1
    49    11    47    1
    50    13    48    1
    51    14    49    1
    52    15    50    1
    53    16    51    1
    54    17    52    1
    55    18    53    1
    56    18    54    1
    57    19    55    1
    58    19    56    1
    59    20    57    1
    60    20    58    1
    61    21    59    1
    62    21    60    1
    63    26    61    1
    64    27    62    1
    65    28    63    1
    66    28    64    1
    67    28    65    1
    68    30    66    1
    69    31    67    1
    70    32    68    1
    71    33    69    1
    72    34    70    1
