
     RDKit          3D

 35 37  0  0  0  0  0  0  0  0999 V2000
    0.1883    0.5846    1.3188 O   0  0  0  0  0  0  0  0  0  0  0  0
    1.4852    0.4776    0.8670 C   0  0  0  0  0  0  0  0  0  0  0  0
    2.4133    1.3193    1.4268 C   0  0  0  0  0  0  0  0  0  0  0  0
    3.7269    1.2594    1.0255 C   0  0  0  0  0  0  0  0  0  0  0  0
    4.6365    2.1139    1.6022 O   0  0  0  0  0  0  0  0  0  0  0  0
    4.0208    0.3300    0.0622 C   0  0  0  0  0  0  0  0  0  0  0  0
    5.6888    0.2408   -0.4634 Cl  0  0  0  0  0  0  0  0  0  0  0  0
    3.0690   -0.4874   -0.4690 C   0  0  0  0  0  0  0  0  0  0  0  0
    1.7384   -0.4572   -0.0933 C   0  0  0  0  0  0  0  0  0  0  0  0
    0.8779   -1.3543   -0.8192 C   0  0  0  0  0  0  0  0  0  0  0  0
   -0.4806   -1.3371   -0.9556 C   0  0  0  0  0  0  0  0  0  0  0  0
   -0.9105   -2.3705   -1.7750 C   0  0  0  0  0  0  0  0  0  0  0  0
    0.2378   -3.0016   -2.1237 N   0  0  0  0  0  0  0  0  0  0  0  0
    1.2538   -2.4051   -1.5670 N   0  0  0  0  0  0  0  0  0  0  0  0
   -1.5200   -0.5099   -0.5311 N   0  0  0  0  0  0  0  0  0  0  0  0
   -1.6003    0.8055   -1.1961 C   0  0  0  0  0  0  0  0  0  0  0  0
   -2.6506    1.5926   -0.4986 C   0  0  0  0  0  0  0  0  0  0  0  0
   -2.8642    1.3022    0.8789 N   0  0  0  0  0  0  0  0  0  0  0  0
   -3.2659   -0.0453    1.1604 C   0  0  0  0  0  0  0  0  0  0  0  0
   -2.3934   -1.0852    0.5081 C   0  0  0  0  0  0  0  0  0  0  0  0
   -0.1752    1.4711    1.6334 H   0  0  0  0  0  0  0  0  0  0  0  0
    2.1064    2.0242    2.1797 H   0  0  0  0  0  0  0  0  0  0  0  0
    5.1817    1.9096    2.4344 H   0  0  0  0  0  0  0  0  0  0  0  0
    3.4379   -1.1860   -1.2315 H   0  0  0  0  0  0  0  0  0  0  0  0
   -1.8384   -2.7580   -2.1648 H   0  0  0  0  0  0  0  0  0  0  0  0
    2.2373   -2.7606   -1.7279 H   0  0  0  0  0  0  0  0  0  0  0  0
   -1.9429    0.6078   -2.2517 H   0  0  0  0  0  0  0  0  0  0  0  0
   -0.6574    1.3552   -1.1650 H   0  0  0  0  0  0  0  0  0  0  0  0
   -2.3655    2.6804   -0.5435 H   0  0  0  0  0  0  0  0  0  0  0  0
   -3.6131    1.5627   -1.0890 H   0  0  0  0  0  0  0  0  0  0  0  0
   -3.6409    1.9241    1.1978 H   0  0  0  0  0  0  0  0  0  0  0  0
   -3.1882   -0.1977    2.2583 H   0  0  0  0  0  0  0  0  0  0  0  0
   -4.3428   -0.1575    0.9128 H   0  0  0  0  0  0  0  0  0  0  0  0
   -1.7947   -1.6523    1.2283 H   0  0  0  0  0  0  0  0  0  0  0  0
   -3.0553   -1.7953   -0.0291 H   0  0  0  0  0  0  0  0  0  0  0  0
  1  2  1  0
  2  3  2  0
  3  4  1  0
  4  5  1  0
  4  6  2  0
  6  7  1  0
  6  8  1  0
  8  9  2  0
  9 10  1  0
 10 11  2  0
 11 12  1  0
 12 13  2  0
 13 14  1  0
 11 15  1  0
 15 16  1  0
 16 17  1  0
 17 18  1  0
 18 19  1  0
 19 20  1  0
  9  2  1  0
 14 10  1  0
 20 15  1  0
  1 21  1  0
  3 22  1  0
  5 23  1  0
  8 24  1  0
 12 25  1  0
 14 26  1  0
 16 27  1  0
 16 28  1  0
 17 29  1  0
 17 30  1  0
 18 31  1  0
 19 32  1  0
 19 33  1  0
 20 34  1  0
 20 35  1  0
M  END
$$$$
