@<TRIPOS>MOLECULE
*****
 35 37 0 0 0
SMALL
GASTEIGER

@<TRIPOS>ATOM
      1 O           0.1883    0.5846    1.3188 O.3     1  UNL1       -0.5060
      2 C           1.4852    0.4776    0.8670 C.ar    1  UNL1        0.1296
      3 C           2.4133    1.3193    1.4268 C.ar    1  UNL1        0.0234
      4 C           3.7269    1.2594    1.0255 C.ar    1  UNL1        0.1386
      5 O           4.6365    2.1139    1.6022 O.3     1  UNL1       -0.5052
      6 C           4.0208    0.3300    0.0622 C.ar    1  UNL1        0.0831
      7 CL          5.6888    0.2408   -0.4634 Cl      1  UNL1       -0.0797
      8 C           3.0690   -0.4874   -0.4690 C.ar    1  UNL1       -0.0271
      9 C           1.7384   -0.4572   -0.0933 C.ar    1  UNL1        0.0446
     10 C           0.8779   -1.3543   -0.8192 C.ar    1  UNL1        0.0902
     11 C          -0.4806   -1.3371   -0.9556 C.ar    1  UNL1        0.0756
     12 C          -0.9105   -2.3705   -1.7750 C.ar    1  UNL1        0.0708
     13 N           0.2378   -3.0016   -2.1237 N.ar    1  UNL1       -0.1799
     14 N           1.2538   -2.4051   -1.5670 N.ar    1  UNL1       -0.2750
     15 N          -1.5200   -0.5099   -0.5311 N.pl3   1  UNL1       -0.3246
     16 C          -1.6003    0.8055   -1.1961 C.3     1  UNL1        0.0249
     17 C          -2.6506    1.5926   -0.4986 C.3     1  UNL1        0.0117
     18 N          -2.8642    1.3022    0.8789 N.3     1  UNL1       -0.3130
     19 C          -3.2659   -0.0453    1.1604 C.3     1  UNL1        0.0117
     20 C          -2.3934   -1.0852    0.5081 C.3     1  UNL1        0.0249
     21 H          -0.1752    1.4711    1.6334 H       1  UNL1        0.2922
     22 H           2.1064    2.0242    2.1797 H       1  UNL1        0.0691
     23 H           5.1817    1.9096    2.4344 H       1  UNL1        0.2922
     24 H           3.4379   -1.1860   -1.2315 H       1  UNL1        0.0641
     25 H          -1.8384   -2.7580   -2.1648 H       1  UNL1        0.0867
     26 H           2.2373   -2.7606   -1.7279 H       1  UNL1        0.1890
     27 H          -1.9429    0.6078   -2.2517 H       1  UNL1        0.0476
     28 H          -0.6574    1.3552   -1.1650 H       1  UNL1        0.0476
     29 H          -2.3655    2.6804   -0.5435 H       1  UNL1        0.0439
     30 H          -3.6131    1.5627   -1.0890 H       1  UNL1        0.0439
     31 H          -3.6409    1.9241    1.1978 H       1  UNL1        0.1220
     32 H          -3.1882   -0.1977    2.2583 H       1  UNL1        0.0439
     33 H          -4.3428   -0.1575    0.9128 H       1  UNL1        0.0439
     34 H          -1.7947   -1.6523    1.2283 H       1  UNL1        0.0476
     35 H          -3.0553   -1.7953   -0.0291 H       1  UNL1        0.0476
@<TRIPOS>BOND
     1     1     2    1
     2     2     3   ar
     3     3     4   ar
     4     4     5    1
     5     4     6   ar
     6     6     7    1
     7     6     8   ar
     8     8     9   ar
     9     9    10    1
    10    10    11   ar
    11    11    12   ar
    12    12    13   ar
    13    13    14   ar
    14    11    15    1
    15    15    16    1
    16    16    17    1
    17    17    18    1
    18    18    19    1
    19    19    20    1
    20     9     2   ar
    21    14    10   ar
    22    20    15    1
    23     1    21    1
    24     3    22    1
    25     5    23    1
    26     8    24    1
    27    12    25    1
    28    14    26    1
    29    16    27    1
    30    16    28    1
    31    17    29    1
    32    17    30    1
    33    18    31    1
    34    19    32    1
    35    19    33    1
    36    20    34    1
    37    20    35    1
