@<TRIPOS>MOLECULE
*****
 50 53 0 0 0
SMALL
GASTEIGER

@<TRIPOS>ATOM
      1 C           6.7303   -1.9669   -0.1833 C.3     1  UNL1        0.0788
      2 O           6.0652   -0.7793    0.0977 O.3     1  UNL1       -0.4950
      3 C           4.7084   -0.5944    0.0543 C.ar    1  UNL1        0.1237
      4 C           4.1861    0.6386    0.3541 C.ar    1  UNL1       -0.0177
      5 C           2.8213    0.8702    0.3213 C.ar    1  UNL1       -0.0292
      6 C           1.9498   -0.1292   -0.0126 C.ar    1  UNL1        0.1094
      7 N           0.5423   -0.0048   -0.0824 N.2     1  UNL1       -0.2088
      8 C          -0.1501    1.0347   -0.0190 C.ar    1  UNL1        0.2334
      9 O           0.4039    2.2084    0.1329 O.2     1  UNL1       -0.4365
     10 C          -0.2567    3.3238    0.2093 C.ar    1  UNL1        0.1410
     11 C           0.4569    4.5040    0.3684 C.ar    1  UNL1        0.0228
     12 C          -0.1976    5.7063    0.4523 C.ar    1  UNL1        0.1204
     13 O           0.4653    6.9210    0.6151 O.3     1  UNL1       -0.5066
     14 C          -1.5842    5.7054    0.3727 C.ar    1  UNL1       -0.0194
     15 C          -2.3222    4.5513    0.2144 C.ar    1  UNL1       -0.0476
     16 C          -1.6387    3.3537    0.1333 C.ar    1  UNL1        0.0185
     17 C          -2.2914    2.1503   -0.0276 C.ar    1  UNL1       -0.0338
     18 C          -1.5385    1.0047   -0.1021 C.ar    1  UNL1        0.0995
     19 C          -2.1987   -0.2876   -0.2983 C.2     1  UNL1        0.2545
     20 O          -1.7695   -1.0723   -1.1811 O.2     1  UNL1       -0.2696
     21 N          -3.3151   -0.6866    0.4715 N.am    1  UNL1       -0.2662
     22 C          -4.0340   -1.8961    0.3581 C.ar    1  UNL1        0.1251
     23 C          -3.8024   -2.9170   -0.5019 C.ar    1  UNL1       -0.0215
     24 C          -4.5848   -4.0664   -0.5366 C.ar    1  UNL1       -0.0571
     25 C          -5.6531   -4.2076    0.3293 C.ar    1  UNL1       -0.0435
     26 C          -5.8665   -3.1531    1.1940 C.ar    1  UNL1        0.0297
     27 N          -5.0925   -2.0586    1.2009 N.ar    1  UNL1       -0.2401
     28 C           2.4644   -1.3834   -0.3180 C.ar    1  UNL1        0.1489
     29 O           1.6143   -2.4047   -0.6573 O.3     1  UNL1       -0.4929
     30 C           2.0073   -3.7049   -0.9837 C.3     1  UNL1        0.0789
     31 C           3.8097   -1.5918   -0.2806 C.ar    1  UNL1        0.0239
     32 H           6.5631   -2.2409   -1.2511 H       1  UNL1        0.0660
     33 H           7.8386   -1.8067   -0.0921 H       1  UNL1        0.0660
     34 H           6.5016   -2.7947    0.5017 H       1  UNL1        0.0660
     35 H           4.8505    1.4751    0.6292 H       1  UNL1        0.0655
     36 H           2.4628    1.8898    0.5807 H       1  UNL1        0.0641
     37 H           1.5539    4.5065    0.4312 H       1  UNL1        0.0691
     38 H           0.6405    7.4251   -0.2711 H       1  UNL1        0.2921
     39 H          -2.1068    6.6527    0.4399 H       1  UNL1        0.0654
     40 H          -3.3989    4.5160    0.1478 H       1  UNL1        0.0626
     41 H          -3.3498    2.0980   -0.0948 H       1  UNL1        0.0634
     42 H          -3.6100    0.0336    1.2068 H       1  UNL1        0.1566
     43 H          -3.0008   -2.8752   -1.1849 H       1  UNL1        0.0652
     44 H          -4.3662   -4.8718   -1.2448 H       1  UNL1        0.0619
     45 H          -6.2922   -5.0770    0.3470 H       1  UNL1        0.0633
     46 H          -6.7127   -3.2359    1.8881 H       1  UNL1        0.0830
     47 H           2.2014   -4.3335   -0.0841 H       1  UNL1        0.0660
     48 H           2.9053   -3.6837   -1.6156 H       1  UNL1        0.0660
     49 H           1.1510   -4.1855   -1.5134 H       1  UNL1        0.0660
     50 H           4.2394   -2.5597   -0.5154 H       1  UNL1        0.0692
@<TRIPOS>BOND
     1     1     2    1
     2     2     3    1
     3     3     4   ar
     4     4     5   ar
     5     5     6   ar
     6     6     7    1
     7     7     8    2
     8     8     9   ar
     9     9    10   ar
    10    10    11   ar
    11    11    12   ar
    12    12    13    1
    13    12    14   ar
    14    14    15   ar
    15    15    16   ar
    16    16    17   ar
    17    17    18   ar
    18    18    19    1
    19    19    20    2
    20    19    21   am
    21    21    22    1
    22    22    23   ar
    23    23    24   ar
    24    24    25   ar
    25    25    26   ar
    26    26    27   ar
    27     6    28   ar
    28    28    29    1
    29    29    30    1
    30    28    31   ar
    31    31     3   ar
    32    18     8   ar
    33    27    22   ar
    34    16    10   ar
    35     1    32    1
    36     1    33    1
    37     1    34    1
    38     4    35    1
    39     5    36    1
    40    11    37    1
    41    13    38    1
    42    14    39    1
    43    15    40    1
    44    17    41    1
    45    21    42    1
    46    23    43    1
    47    24    44    1
    48    25    45    1
    49    26    46    1
    50    30    47    1
    51    30    48    1
    52    30    49    1
    53    31    50    1
