@<TRIPOS>MOLECULE
*****
 37 39 0 0 0
SMALL
GASTEIGER

@<TRIPOS>ATOM
      1 C          -3.2701   -2.5005    1.0628 C.3     1  UNL1       -0.0155
      2 N          -3.2735   -1.2596    0.3992 N.3     1  UNL1       -0.3159
      3 C          -2.1404   -0.4109    0.6001 C.3     1  UNL1        0.0122
      4 C          -2.4064    0.8438   -0.2222 C.3     1  UNL1       -0.0119
      5 C          -1.2611    1.7489   -0.2417 C.ar    1  UNL1       -0.0421
      6 C          -1.4735    3.1093   -0.1407 C.ar    1  UNL1       -0.0582
      7 C          -0.3646    3.9464   -0.1592 C.ar    1  UNL1       -0.0615
      8 C           0.9066    3.4332   -0.2748 C.ar    1  UNL1       -0.0615
      9 C           1.0707    2.0444   -0.3745 C.ar    1  UNL1       -0.0577
     10 C          -0.0098    1.2009   -0.3583 C.ar    1  UNL1       -0.0367
     11 C           0.1465   -0.2477   -0.4642 C.3     1  UNL1        0.0109
     12 C           1.5509   -0.6920   -0.2873 C.ar    1  UNL1       -0.0384
     13 C           2.1510   -0.9403    0.9269 C.ar    1  UNL1       -0.0565
     14 C           3.4629   -1.3525    1.0147 C.ar    1  UNL1       -0.0417
     15 C           4.2194   -1.5300   -0.1151 C.ar    1  UNL1        0.0593
     16 CL          5.8797   -2.0475   -0.0850 Cl      1  UNL1       -0.0820
     17 C           3.6503   -1.2897   -1.3584 C.ar    1  UNL1        0.0595
     18 CL          4.5618   -1.4970   -2.8448 Cl      1  UNL1       -0.0820
     19 C           2.3398   -0.8800   -1.4059 C.ar    1  UNL1       -0.0382
     20 C          -0.8337   -1.0541    0.3487 C.3     1  UNL1       -0.0264
     21 H          -2.3069   -2.8804    1.4058 H       1  UNL1        0.0388
     22 H          -3.9118   -2.4053    1.9882 H       1  UNL1        0.0388
     23 H          -3.8017   -3.2838    0.4478 H       1  UNL1        0.0388
     24 H          -3.5203   -1.4043   -0.6073 H       1  UNL1        0.1219
     25 H          -2.1797   -0.0671    1.6663 H       1  UNL1        0.0464
     26 H          -2.6426    0.5714   -1.2811 H       1  UNL1        0.0328
     27 H          -3.3091    1.3262    0.2039 H       1  UNL1        0.0328
     28 H          -2.4498    3.5639   -0.0480 H       1  UNL1        0.0620
     29 H          -0.5338    5.0303   -0.0787 H       1  UNL1        0.0618
     30 H           1.7408    4.1071   -0.2858 H       1  UNL1        0.0618
     31 H           2.0894    1.6878   -0.4636 H       1  UNL1        0.0621
     32 H          -0.1210   -0.5022   -1.5400 H       1  UNL1        0.0398
     33 H           1.5573   -0.7982    1.8187 H       1  UNL1        0.0621
     34 H           3.9095   -1.5404    1.9767 H       1  UNL1        0.0633
     35 H           1.9206   -0.6990   -2.3998 H       1  UNL1        0.0635
     36 H          -0.3327   -1.2689    1.3134 H       1  UNL1        0.0289
     37 H          -1.0147   -2.0623   -0.1368 H       1  UNL1        0.0289
@<TRIPOS>BOND
     1     1     2    1
     2     2     3    1
     3     3     4    1
     4     4     5    1
     5     5     6   ar
     6     6     7   ar
     7     7     8   ar
     8     8     9   ar
     9     9    10   ar
    10    10    11    1
    11    11    12    1
    12    12    13   ar
    13    13    14   ar
    14    14    15   ar
    15    15    16    1
    16    15    17   ar
    17    17    18    1
    18    17    19   ar
    19    11    20    1
    20    20     3    1
    21    10     5   ar
    22    19    12   ar
    23     1    21    1
    24     1    22    1
    25     1    23    1
    26     2    24    1
    27     3    25    1
    28     4    26    1
    29     4    27    1
    30     6    28    1
    31     7    29    1
    32     8    30    1
    33     9    31    1
    34    11    32    1
    35    13    33    1
    36    14    34    1
    37    19    35    1
    38    20    36    1
    39    20    37    1
