
     RDKit          3D

 46 48  0  0  0  0  0  0  0  0999 V2000
    5.3119    7.0052   -0.6575 C   0  0  0  0  0  0  0  0  0  0  0  0
    4.0697    6.7114   -0.1393 O   0  0  0  0  0  0  0  0  0  0  0  0
    3.5361    5.4899    0.0783 C   0  0  0  0  0  0  0  0  0  0  0  0
    2.2753    5.3040    0.5903 C   0  0  0  0  0  0  0  0  0  0  0  0
    1.7831    4.0602    0.7969 N   0  0  0  0  0  0  0  0  0  0  0  0
    2.4928    2.9632    0.5159 C   0  0  0  0  0  0  0  0  0  0  0  0
    2.0049    1.6225    0.7286 C   0  0  0  0  0  0  0  0  0  0  0  0
    2.7676    0.6434    0.4196 O   0  0  0  0  0  0  0  0  0  0  0  0
    0.7352    1.3050    1.2616 N   0  0  0  0  0  0  0  0  0  0  0  0
    0.3032   -0.0152    1.4562 C   0  0  0  0  0  0  0  0  0  0  0  0
    0.5446   -0.6488    2.6517 C   0  0  0  0  0  0  0  0  0  0  0  0
    0.1282   -1.9413    2.9014 C   0  0  0  0  0  0  0  0  0  0  0  0
   -0.5601   -2.6088    1.8915 C   0  0  0  0  0  0  0  0  0  0  0  0
   -1.0017   -3.8805    2.0744 F   0  0  0  0  0  0  0  0  0  0  0  0
   -0.8257   -2.0174    0.6787 C   0  0  0  0  0  0  0  0  0  0  0  0
   -1.5865   -2.7610   -0.3472 C   0  0  2  0  0  0  0  0  0  0  0  0
   -0.9477   -4.0697   -0.7474 C   0  0  0  0  0  0  0  0  0  0  0  0
   -1.7342   -1.9319   -1.6129 C   0  0  0  0  0  0  0  0  0  0  0  0
   -2.9263   -2.7817   -2.6398 S   0  0  0  0  0  6  0  0  0  0  0  0
   -2.2950   -3.9813   -3.2835 O   0  0  0  0  0  0  0  0  0  0  0  0
   -3.2512   -1.8260   -3.7829 O   0  0  0  0  0  0  0  0  0  0  0  0
   -4.3293   -3.1409   -1.6569 C   0  0  0  0  0  0  0  0  0  0  0  0
   -4.0020   -3.2342   -0.2218 C   0  0  0  0  0  0  0  0  0  0  0  0
   -5.1168   -3.5386    0.6922 N   0  0  0  0  0  0  0  0  0  0  0  0
   -2.8582   -3.0654    0.2209 N   0  0  0  0  0  0  0  0  0  0  0  0
   -0.3940   -0.7289    0.4680 C   0  0  0  0  0  0  0  0  0  0  0  0
    3.7533    3.1616    0.0036 C   0  0  0  0  0  0  0  0  0  0  0  0
    4.2765    4.3649   -0.2156 N   0  0  0  0  0  0  0  0  0  0  0  0
    5.8613    6.0377   -0.8495 H   0  0  0  0  0  0  0  0  0  0  0  0
    5.8812    7.6370    0.0488 H   0  0  0  0  0  0  0  0  0  0  0  0
    5.1991    7.5305   -1.6440 H   0  0  0  0  0  0  0  0  0  0  0  0
    1.6864    6.1892    0.8216 H   0  0  0  0  0  0  0  0  0  0  0  0
    0.1227    2.1160    1.5071 H   0  0  0  0  0  0  0  0  0  0  0  0
    1.0891   -0.1165    3.4414 H   0  0  0  0  0  0  0  0  0  0  0  0
    0.3191   -2.4417    3.8496 H   0  0  0  0  0  0  0  0  0  0  0  0
   -0.3468   -3.8730   -1.6559 H   0  0  0  0  0  0  0  0  0  0  0  0
   -1.7211   -4.8141   -1.0512 H   0  0  0  0  0  0  0  0  0  0  0  0
   -0.2517   -4.4817    0.0063 H   0  0  0  0  0  0  0  0  0  0  0  0
   -2.1695   -0.9610   -1.3484 H   0  0  0  0  0  0  0  0  0  0  0  0
   -0.7594   -1.8612   -2.0780 H   0  0  0  0  0  0  0  0  0  0  0  0
   -4.8821   -4.0589   -1.9970 H   0  0  0  0  0  0  0  0  0  0  0  0
   -5.0180   -2.2540   -1.7463 H   0  0  0  0  0  0  0  0  0  0  0  0
   -5.5859   -2.7030    1.0748 H   0  0  0  0  0  0  0  0  0  0  0  0
   -5.3896   -4.4921    0.9210 H   0  0  0  0  0  0  0  0  0  0  0  0
   -0.5670   -0.2113   -0.4645 H   0  0  0  0  0  0  0  0  0  0  0  0
    4.3788    2.2983   -0.2437 H   0  0  0  0  0  0  0  0  0  0  0  0
  1  2  1  0
  2  3  1  0
  3  4  2  0
  4  5  1  0
  5  6  2  0
  6  7  1  0
  7  8  2  0
  7  9  1  0
  9 10  1  0
 10 11  2  0
 11 12  1  0
 12 13  2  0
 13 14  1  0
 13 15  1  0
 15 16  1  0
 16 17  1  6
 16 18  1  0
 18 19  1  0
 19 20  2  0
 19 21  2  0
 19 22  1  0
 22 23  1  0
 23 24  1  0
 23 25  2  0
 15 26  2  0
  6 27  1  0
 27 28  2  0
 28  3  1  0
 26 10  1  0
 25 16  1  0
  1 29  1  0
  1 30  1  0
  1 31  1  0
  4 32  1  0
  9 33  1  0
 11 34  1  0
 12 35  1  0
 17 36  1  0
 17 37  1  0
 17 38  1  0
 18 39  1  0
 18 40  1  0
 22 41  1  0
 22 42  1  0
 24 43  1  0
 24 44  1  0
 26 45  1  0
 27 46  1  0
M  END
$$$$
