@<TRIPOS>MOLECULE
*****
 46 48 0 0 0
SMALL
GASTEIGER

@<TRIPOS>ATOM
      1 C           5.3119    7.0052   -0.6575 C.3     1  UNL1        0.0805
      2 O           4.0697    6.7114   -0.1393 O.3     1  UNL1       -0.4786
      3 C           3.5361    5.4899    0.0783 C.ar    1  UNL1        0.2332
      4 C           2.2753    5.3040    0.5903 C.ar    1  UNL1        0.0899
      5 N           1.7831    4.0602    0.7969 N.ar    1  UNL1       -0.2435
      6 C           2.4928    2.9632    0.5159 C.ar    1  UNL1        0.1439
      7 C           2.0049    1.6225    0.7286 C.2     1  UNL1        0.2681
      8 O           2.7676    0.6434    0.4196 O.2     1  UNL1       -0.2681
      9 N           0.7352    1.3050    1.2616 N.am    1  UNL1       -0.2802
     10 C           0.3032   -0.0152    1.4562 C.ar    1  UNL1        0.0343
     11 C           0.5446   -0.6488    2.6517 C.ar    1  UNL1       -0.0377
     12 C           0.1282   -1.9413    2.9014 C.ar    1  UNL1       -0.0243
     13 C          -0.5601   -2.6088    1.8915 C.ar    1  UNL1        0.1311
     14 F          -1.0017   -3.8805    2.0744 F       1  UNL1       -0.2050
     15 C          -0.8257   -2.0174    0.6787 C.ar    1  UNL1        0.0420
     16 C          -1.5865   -2.7610   -0.3472 C.3     1  UNL1        0.1958
     17 C          -0.9477   -4.0697   -0.7474 C.3     1  UNL1       -0.0112
     18 C          -1.7342   -1.9319   -1.6129 C.3     1  UNL1        0.1177
     19 S          -2.9263   -2.7817   -2.6398 S.O2    1  UNL1       -0.0152
     20 O          -2.2950   -3.9813   -3.2835 O.2     1  UNL1       -0.1736
     21 O          -3.2512   -1.8260   -3.7829 O.2     1  UNL1       -0.1736
     22 C          -4.3293   -3.1409   -1.6569 C.3     1  UNL1        0.1676
     23 C          -4.0020   -3.2342   -0.2218 C.2     1  UNL1        0.3010
     24 N          -5.1168   -3.5386    0.6922 N.pl3   1  UNL1       -0.2493
     25 N          -2.8582   -3.0654    0.2209 N.2     1  UNL1       -0.0733
     26 C          -0.3940   -0.7289    0.4680 C.ar    1  UNL1       -0.0301
     27 C           3.7533    3.1616    0.0036 C.ar    1  UNL1        0.0619
     28 N           4.2765    4.3649   -0.2156 N.ar    1  UNL1       -0.2178
     29 H           5.8613    6.0377   -0.8495 H       1  UNL1        0.0660
     30 H           5.8812    7.6370    0.0488 H       1  UNL1        0.0660
     31 H           5.1991    7.5305   -1.6440 H       1  UNL1        0.0660
     32 H           1.6864    6.1892    0.8216 H       1  UNL1        0.0884
     33 H           0.1227    2.1160    1.5071 H       1  UNL1        0.1552
     34 H           1.0891   -0.1165    3.4414 H       1  UNL1        0.0637
     35 H           0.3191   -2.4417    3.8496 H       1  UNL1        0.0647
     36 H          -0.3468   -3.8730   -1.6559 H       1  UNL1        0.0279
     37 H          -1.7211   -4.8141   -1.0512 H       1  UNL1        0.0279
     38 H          -0.2517   -4.4817    0.0063 H       1  UNL1        0.0279
     39 H          -2.1695   -0.9610   -1.3484 H       1  UNL1        0.0550
     40 H          -0.7594   -1.8612   -2.0780 H       1  UNL1        0.0550
     41 H          -4.8821   -4.0589   -1.9970 H       1  UNL1        0.0626
     42 H          -5.0180   -2.2540   -1.7463 H       1  UNL1        0.0626
     43 H          -5.5859   -2.7030    1.0748 H       1  UNL1        0.2881
     44 H          -5.3896   -4.4921    0.9210 H       1  UNL1        0.2881
     45 H          -0.5670   -0.2113   -0.4645 H       1  UNL1        0.0641
     46 H           4.3788    2.2983   -0.2437 H       1  UNL1        0.0854
@<TRIPOS>BOND
     1     1     2    1
     2     2     3    1
     3     3     4   ar
     4     4     5   ar
     5     5     6   ar
     6     6     7    1
     7     7     8    2
     8     7     9   am
     9     9    10    1
    10    10    11   ar
    11    11    12   ar
    12    12    13   ar
    13    13    14    1
    14    13    15   ar
    15    15    16    1
    16    16    17    1
    17    16    18    1
    18    18    19    1
    19    19    20    2
    20    19    21    2
    21    19    22    1
    22    22    23    1
    23    23    24    1
    24    23    25    2
    25    15    26   ar
    26     6    27   ar
    27    27    28   ar
    28    28     3   ar
    29    26    10   ar
    30    25    16    1
    31     1    29    1
    32     1    30    1
    33     1    31    1
    34     4    32    1
    35     9    33    1
    36    11    34    1
    37    12    35    1
    38    17    36    1
    39    17    37    1
    40    17    38    1
    41    18    39    1
    42    18    40    1
    43    22    41    1
    44    22    42    1
    45    24    43    1
    46    24    44    1
    47    26    45    1
    48    27    46    1
