
     RDKit          3D

 65 72  0  0  0  0  0  0  0  0999 V2000
   -1.0020   -5.5604   -1.8140 C   0  0  0  0  0  0  0  0  0  0  0  0
   -0.5389   -4.1790   -1.4275 C   0  0  0  0  0  0  0  0  0  0  0  0
    0.7605   -3.8836   -1.5486 C   0  0  0  0  0  0  0  0  0  0  0  0
    0.8966   -2.5926   -1.1378 C   0  0  0  0  0  0  0  0  0  0  0  0
    2.0699   -2.0370   -1.1289 C   0  0  0  0  0  0  0  0  0  0  0  0
    2.1384   -0.6619   -0.6817 C   0  0  0  0  0  0  0  0  0  0  0  0
    1.1978    0.0934   -0.2914 N   0  0  0  0  0  4  0  0  0  0  0  0
    1.8101    1.3271    0.0259 C   0  0  0  0  0  0  0  0  0  0  0  0
    1.2720    2.4608    0.5017 C   0  0  0  0  0  0  0  0  0  0  0  0
   -0.1429    2.3952    0.7206 C   0  0  0  0  0  0  0  0  0  0  0  0
   -0.8059    3.4786    1.2169 C   0  0  0  0  0  0  0  0  0  0  0  0
   -0.3250    4.8036    1.5884 C   0  0  0  0  0  0  0  0  0  0  0  0
    0.8214    5.4142    1.5901 C   0  0  0  0  0  0  0  0  0  0  0  0
   -2.1129    3.1562    1.3438 C   0  0  0  0  0  0  0  0  0  0  0  0
   -3.1966    4.0532    1.8537 C   0  0  0  0  0  0  0  0  0  0  0  0
   -2.1095    1.8846    0.9026 C   0  0  0  0  0  0  0  0  0  0  0  0
   -3.3201    1.2108    0.8939 O   0  0  0  0  0  0  0  0  0  0  0  0
   -3.4249   -0.0831    0.4685 C   0  0  0  0  0  0  0  0  0  0  0  0
   -4.6324   -0.6651    0.4938 C   0  0  0  0  0  0  0  0  0  0  0  0
   -5.9167   -0.1461    0.9124 C   0  0  0  0  0  0  0  0  0  0  0  0
   -6.2164    1.0476    1.3751 C   0  0  0  0  0  0  0  0  0  0  0  0
   -4.3661   -1.9024    0.0202 C   0  0  0  0  0  0  0  0  0  0  0  0
   -5.4713   -2.9259   -0.1239 C   0  0  0  0  0  0  0  0  0  0  0  0
   -3.0248   -1.9574   -0.2480 C   0  0  0  0  0  0  0  0  0  0  0  0
   -2.4678   -3.2009   -0.7641 C   0  0  0  0  0  0  0  0  0  0  0  0
   -1.1499   -3.0591   -0.9470 C   0  0  0  0  0  0  0  0  0  0  0  0
   -0.2610   -2.0791   -0.7698 N   0  0  0  0  0  0  0  0  0  0  0  0
   -0.6197   -0.3492   -0.1479 Fe  0  0  0  0  0  4  0  0  0  0  0  0
   -0.9581    1.3736    0.5145 N   0  0  0  0  0  0  0  0  0  0  0  0
   -2.4262   -0.7992    0.0373 N   0  0  0  0  0  0  0  0  0  0  0  0
    3.2409    1.2635   -0.2059 C   0  0  0  0  0  0  0  0  0  0  0  0
    4.2887    2.3092   -0.0490 C   0  0  0  0  0  0  0  0  0  0  0  0
    3.4085    0.0458   -0.6306 C   0  0  0  0  0  0  0  0  0  0  0  0
    4.7094   -0.5837   -0.9240 C   0  0  0  0  0  0  0  0  0  0  0  0
    5.9248    0.0923   -0.5091 C   0  0  0  0  0  0  0  0  0  0  0  0
    7.0807   -0.8524   -0.9446 C   0  0  0  0  0  0  0  0  0  0  0  0
    8.3068   -0.3444   -0.5802 O   0  0  0  0  0  0  0  0  0  0  0  0
    7.0820   -1.9630   -1.5515 O   0  0  0  0  0  0  0  0  0  0  0  0
   -0.7253   -5.7221   -2.8545 H   0  0  0  0  0  0  0  0  0  0  0  0
   -0.3967   -6.2840   -1.2046 H   0  0  0  0  0  0  0  0  0  0  0  0
   -2.0421   -5.7566   -1.5538 H   0  0  0  0  0  0  0  0  0  0  0  0
    1.4980   -4.6116   -1.9188 H   0  0  0  0  0  0  0  0  0  0  0  0
    2.9810   -2.6023   -1.4564 H   0  0  0  0  0  0  0  0  0  0  0  0
    1.8754    3.3711    0.7060 H   0  0  0  0  0  0  0  0  0  0  0  0
   -0.9653    5.5500    1.9651 H   0  0  0  0  0  0  0  0  0  0  0  0
    1.6559    6.0612    1.6616 H   0  0  0  0  0  0  0  0  0  0  0  0
    1.8680    5.6238    1.4711 H   0  0  0  0  0  0  0  0  0  0  0  0
   -2.9603    4.3854    2.8960 H   0  0  0  0  0  0  0  0  0  0  0  0
   -3.2847    4.9412    1.2181 H   0  0  0  0  0  0  0  0  0  0  0  0
   -4.1502    3.5251    1.9220 H   0  0  0  0  0  0  0  0  0  0  0  0
   -6.7468   -0.8006    0.8480 H   0  0  0  0  0  0  0  0  0  0  0  0
   -7.1809    1.4101    1.6802 H   0  0  0  0  0  0  0  0  0  0  0  0
   -6.0147    2.0509    1.6784 H   0  0  0  0  0  0  0  0  0  0  0  0
   -5.8864   -3.1926    0.8473 H   0  0  0  0  0  0  0  0  0  0  0  0
   -6.2779   -2.4382   -0.7334 H   0  0  0  0  0  0  0  0  0  0  0  0
   -5.1003   -3.7494   -0.7257 H   0  0  0  0  0  0  0  0  0  0  0  0
   -3.0792   -4.1052   -0.9621 H   0  0  0  0  0  0  0  0  0  0  0  0
    3.7906    3.2487    0.3289 H   0  0  0  0  0  0  0  0  0  0  0  0
    4.7047    2.6534   -1.0308 H   0  0  0  0  0  0  0  0  0  0  0  0
    5.0127    2.0454    0.7194 H   0  0  0  0  0  0  0  0  0  0  0  0
    4.7706   -0.7636   -2.0346 H   0  0  0  0  0  0  0  0  0  0  0  0
    4.6618   -1.6178   -0.4717 H   0  0  0  0  0  0  0  0  0  0  0  0
    6.0685    0.0553    0.6096 H   0  0  0  0  0  0  0  0  0  0  0  0
    6.2258    1.0247   -0.9853 H   0  0  0  0  0  0  0  0  0  0  0  0
    9.1781   -0.8867   -0.6543 H   0  0  0  0  0  0  0  0  0  0  0  0
  1  2  1  0
  2  3  2  0
  3  4  1  0
  4  5  2  0
  5  6  1  0
  6  7  2  0
  7  8  1  0
  8  9  2  0
  9 10  1  0
 10 11  2  0
 11 12  1  0
 12 13  2  0
 11 14  1  0
 14 15  1  0
 14 16  2  0
 16 17  1  0
 17 18  1  0
 18 19  2  0
 19 20  1  0
 20 21  2  0
 19 22  1  0
 22 23  1  0
 22 24  2  0
 24 25  1  0
 25 26  2  0
 26 27  1  0
 27 28  1  0
 28 29  1  0
 28 30  1  0
  8 31  1  0
 31 32  1  0
 31 33  2  0
 33 34  1  0
 34 35  1  0
 35 36  1  0
 36 37  1  0
 36 38  2  0
 26  2  1  0
 27  4  1  0
 33  6  1  0
 28  7  1  0
 29 10  1  0
 29 16  1  0
 30 18  1  0
 30 24  1  0
  1 39  1  0
  1 40  1  0
  1 41  1  0
  3 42  1  0
  5 43  1  0
  9 44  1  0
 12 45  1  0
 13 46  1  0
 13 47  1  0
 15 48  1  0
 15 49  1  0
 15 50  1  0
 20 51  1  0
 21 52  1  0
 21 53  1  0
 23 54  1  0
 23 55  1  0
 23 56  1  0
 25 57  1  0
 32 58  1  0
 32 59  1  0
 32 60  1  0
 34 61  1  0
 34 62  1  0
 35 63  1  0
 35 64  1  0
 37 65  1  0
M  CHG  1   7   1
M  END
$$$$
