@<TRIPOS>MOLECULE
*****
 69 72 0 0 0
SMALL
GASTEIGER

@<TRIPOS>ATOM
      1 C           8.9088   -0.4515    0.9305 C.3     1  UNL1       -0.0470
      2 C           8.1386   -1.4476    0.1260 C.3     1  UNL1        0.0233
      3 N           6.7538   -1.5699    0.5377 N.ar    1  UNL1       -0.3149
      4 C           5.7558   -0.8399    0.0379 C.ar    1  UNL1        0.0156
      5 C           4.4456   -0.9615    0.4331 C.ar    1  UNL1       -0.0015
      6 C           3.3553   -0.1596   -0.1175 C.ar    1  UNL1       -0.0165
      7 C           3.3910    0.2695   -1.4278 C.ar    1  UNL1       -0.0537
      8 C           2.3827    1.0272   -1.9830 C.ar    1  UNL1       -0.0562
      9 C           1.2617    1.3983   -1.2255 C.ar    1  UNL1       -0.0271
     10 C           0.1889    2.2194   -1.8689 C.3     1  UNL1        0.0515
     11 C           0.4507    3.6878   -1.7894 C.3     1  UNL1       -0.0421
     12 N          -1.1417    1.8185   -1.5466 N.am    1  UNL1       -0.2605
     13 C          -2.0433    1.1206   -2.4788 C.3     1  UNL1        0.0224
     14 C          -2.5867   -0.1228   -1.8438 C.3     1  UNL1        0.0076
     15 C          -3.1857    0.0984   -0.4605 C.3     1  UNL1        0.1440
     16 C          -3.0578   -1.1808    0.2760 C.3     1  UNL1        0.0199
     17 C          -3.5284   -1.2747    1.6572 C.3     1  UNL1        0.0645
     18 C          -4.9448   -1.0190    1.9764 C.3     1  UNL1       -0.0362
     19 C          -3.1962   -2.6946    2.1508 C.3     1  UNL1       -0.0362
     20 O          -2.7630   -0.4398    2.5101 O.3     1  UNL1       -0.3890
     21 C          -4.5627    0.5643   -0.7086 C.ar    1  UNL1       -0.0039
     22 C          -4.8555    1.8948   -0.7267 C.ar    1  UNL1       -0.0521
     23 C          -6.1352    2.3168   -0.9780 C.ar    1  UNL1       -0.0261
     24 C          -7.1407    1.4006   -1.2154 C.ar    1  UNL1        0.1234
     25 F          -8.4229    1.7993   -1.4680 F       1  UNL1       -0.2055
     26 C          -6.8420    0.0641   -1.1963 C.ar    1  UNL1       -0.0261
     27 C          -5.5617   -0.3447   -0.9444 C.ar    1  UNL1       -0.0521
     28 O          -2.5184    1.0952    0.2782 O.3     1  UNL1       -0.4387
     29 C          -1.7099    2.0607   -0.2663 C.2     1  UNL1        0.4042
     30 O          -1.4695    3.1545    0.3558 O.2     1  UNL1       -0.2262
     31 C           1.2292    0.9719    0.0712 C.ar    1  UNL1       -0.0562
     32 C           2.2589    0.2016    0.6282 C.ar    1  UNL1       -0.0537
     33 C           4.1325   -1.8878    1.4009 C.ar    1  UNL1       -0.0475
     34 C           5.1560   -2.6646    1.9409 C.ar    1  UNL1        0.0036
     35 C           6.4541   -2.4791    1.4860 C.ar    1  UNL1        0.2513
     36 O           7.3856   -3.1861    1.9774 O.2     1  UNL1       -0.2677
     37 H           9.9926   -0.7281    0.8972 H       1  UNL1        0.0247
     38 H           8.8320    0.5323    0.3986 H       1  UNL1        0.0247
     39 H           8.5818   -0.4030    1.9715 H       1  UNL1        0.0247
     40 H           8.1185   -1.2017   -0.9624 H       1  UNL1        0.0490
     41 H           8.5862   -2.4820    0.1868 H       1  UNL1        0.0490
     42 H           5.9856   -0.1061   -0.7250 H       1  UNL1        0.0816
     43 H           4.2629   -0.0183   -2.0192 H       1  UNL1        0.0624
     44 H           2.4263    1.3600   -3.0251 H       1  UNL1        0.0621
     45 H           0.3031    1.9349   -2.9775 H       1  UNL1        0.0549
     46 H           1.2753    3.9296   -2.5172 H       1  UNL1        0.0251
     47 H           0.8372    4.0108   -0.7923 H       1  UNL1        0.0251
     48 H          -0.4543    4.2245   -2.0857 H       1  UNL1        0.0251
     49 H          -2.7971    1.8094   -2.8575 H       1  UNL1        0.0467
     50 H          -1.3913    0.8003   -3.3171 H       1  UNL1        0.0467
     51 H          -1.7597   -0.8656   -1.8042 H       1  UNL1        0.0322
     52 H          -3.3589   -0.5419   -2.5210 H       1  UNL1        0.0322
     53 H          -3.4765   -1.9964   -0.3864 H       1  UNL1        0.0335
     54 H          -1.9515   -1.4221    0.2783 H       1  UNL1        0.0335
     55 H          -5.0434   -1.1920    3.0988 H       1  UNL1        0.0257
     56 H          -5.6812   -1.7342    1.5575 H       1  UNL1        0.0257
     57 H          -5.2304    0.0467    1.8750 H       1  UNL1        0.0257
     58 H          -3.1492   -2.7364    3.2486 H       1  UNL1        0.0257
     59 H          -2.1923   -2.9257    1.7369 H       1  UNL1        0.0257
     60 H          -3.9074   -3.4338    1.7099 H       1  UNL1        0.0257
     61 H          -1.9818   -0.8964    2.8661 H       1  UNL1        0.2101
     62 H          -4.0904    2.6162   -0.5452 H       1  UNL1        0.0622
     63 H          -6.4214    3.3745   -1.0035 H       1  UNL1        0.0646
     64 H          -7.6089   -0.6721   -1.3785 H       1  UNL1        0.0646
     65 H          -5.3466   -1.3973   -0.9335 H       1  UNL1        0.0622
     66 H           0.3728    1.2424    0.6802 H       1  UNL1        0.0621
     67 H           2.1788   -0.1047    1.6527 H       1  UNL1        0.0624
     68 H           3.1401   -2.0596    1.7777 H       1  UNL1        0.0626
     69 H           4.9660   -3.4035    2.7002 H       1  UNL1        0.0672
@<TRIPOS>BOND
     1     1     2    1
     2     2     3    1
     3     3     4   ar
     4     4     5   ar
     5     5     6    1
     6     6     7   ar
     7     7     8   ar
     8     8     9   ar
     9     9    10    1
    10    10    11    1
    11    10    12    1
    12    12    13    1
    13    13    14    1
    14    14    15    1
    15    15    16    1
    16    16    17    1
    17    17    18    1
    18    17    19    1
    19    17    20    1
    20    15    21    1
    21    21    22   ar
    22    22    23   ar
    23    23    24   ar
    24    24    25    1
    25    24    26   ar
    26    26    27   ar
    27    15    28    1
    28    28    29    1
    29    29    30    2
    30     9    31   ar
    31    31    32   ar
    32     5    33   ar
    33    33    34   ar
    34    34    35   ar
    35    35    36    2
    36    35     3   ar
    37    32     6   ar
    38    29    12   am
    39    27    21   ar
    40     1    37    1
    41     1    38    1
    42     1    39    1
    43     2    40    1
    44     2    41    1
    45     4    42    1
    46     7    43    1
    47     8    44    1
    48    10    45    1
    49    11    46    1
    50    11    47    1
    51    11    48    1
    52    13    49    1
    53    13    50    1
    54    14    51    1
    55    14    52    1
    56    16    53    1
    57    16    54    1
    58    18    55    1
    59    18    56    1
    60    18    57    1
    61    19    58    1
    62    19    59    1
    63    19    60    1
    64    20    61    1
    65    22    62    1
    66    23    63    1
    67    26    64    1
    68    27    65    1
    69    31    66    1
    70    32    67    1
    71    33    68    1
    72    34    69    1
