
     RDKit          3D

 69 72  0  0  0  0  0  0  0  0999 V2000
    8.9088   -0.4515    0.9305 C   0  0  0  0  0  0  0  0  0  0  0  0
    8.1386   -1.4476    0.1260 C   0  0  0  0  0  0  0  0  0  0  0  0
    6.7538   -1.5699    0.5377 N   0  0  0  0  0  0  0  0  0  0  0  0
    5.7558   -0.8399    0.0379 C   0  0  0  0  0  0  0  0  0  0  0  0
    4.4456   -0.9615    0.4331 C   0  0  0  0  0  0  0  0  0  0  0  0
    3.3553   -0.1596   -0.1175 C   0  0  0  0  0  0  0  0  0  0  0  0
    3.3910    0.2695   -1.4278 C   0  0  0  0  0  0  0  0  0  0  0  0
    2.3827    1.0272   -1.9830 C   0  0  0  0  0  0  0  0  0  0  0  0
    1.2617    1.3983   -1.2255 C   0  0  0  0  0  0  0  0  0  0  0  0
    0.1889    2.2194   -1.8689 C   0  0  2  0  0  0  0  0  0  0  0  0
    0.4507    3.6878   -1.7894 C   0  0  0  0  0  0  0  0  0  0  0  0
   -1.1417    1.8185   -1.5466 N   0  0  0  0  0  0  0  0  0  0  0  0
   -2.0433    1.1206   -2.4788 C   0  0  0  0  0  0  0  0  0  0  0  0
   -2.5867   -0.1228   -1.8438 C   0  0  0  0  0  0  0  0  0  0  0  0
   -3.1857    0.0984   -0.4605 C   0  0  2  0  0  0  0  0  0  0  0  0
   -3.0578   -1.1808    0.2760 C   0  0  0  0  0  0  0  0  0  0  0  0
   -3.5284   -1.2747    1.6572 C   0  0  0  0  0  0  0  0  0  0  0  0
   -4.9448   -1.0190    1.9764 C   0  0  0  0  0  0  0  0  0  0  0  0
   -3.1962   -2.6946    2.1508 C   0  0  0  0  0  0  0  0  0  0  0  0
   -2.7630   -0.4398    2.5101 O   0  0  0  0  0  0  0  0  0  0  0  0
   -4.5627    0.5643   -0.7086 C   0  0  0  0  0  0  0  0  0  0  0  0
   -4.8555    1.8948   -0.7267 C   0  0  0  0  0  0  0  0  0  0  0  0
   -6.1352    2.3168   -0.9780 C   0  0  0  0  0  0  0  0  0  0  0  0
   -7.1407    1.4006   -1.2154 C   0  0  0  0  0  0  0  0  0  0  0  0
   -8.4229    1.7993   -1.4680 F   0  0  0  0  0  0  0  0  0  0  0  0
   -6.8420    0.0641   -1.1963 C   0  0  0  0  0  0  0  0  0  0  0  0
   -5.5617   -0.3447   -0.9444 C   0  0  0  0  0  0  0  0  0  0  0  0
   -2.5184    1.0952    0.2782 O   0  0  0  0  0  0  0  0  0  0  0  0
   -1.7099    2.0607   -0.2663 C   0  0  0  0  0  0  0  0  0  0  0  0
   -1.4695    3.1545    0.3558 O   0  0  0  0  0  0  0  0  0  0  0  0
    1.2292    0.9719    0.0712 C   0  0  0  0  0  0  0  0  0  0  0  0
    2.2589    0.2016    0.6282 C   0  0  0  0  0  0  0  0  0  0  0  0
    4.1325   -1.8878    1.4009 C   0  0  0  0  0  0  0  0  0  0  0  0
    5.1560   -2.6646    1.9409 C   0  0  0  0  0  0  0  0  0  0  0  0
    6.4541   -2.4791    1.4860 C   0  0  0  0  0  0  0  0  0  0  0  0
    7.3856   -3.1861    1.9774 O   0  0  0  0  0  0  0  0  0  0  0  0
    9.9926   -0.7281    0.8972 H   0  0  0  0  0  0  0  0  0  0  0  0
    8.8320    0.5323    0.3986 H   0  0  0  0  0  0  0  0  0  0  0  0
    8.5818   -0.4030    1.9715 H   0  0  0  0  0  0  0  0  0  0  0  0
    8.1185   -1.2017   -0.9624 H   0  0  0  0  0  0  0  0  0  0  0  0
    8.5862   -2.4820    0.1868 H   0  0  0  0  0  0  0  0  0  0  0  0
    5.9856   -0.1061   -0.7250 H   0  0  0  0  0  0  0  0  0  0  0  0
    4.2629   -0.0183   -2.0192 H   0  0  0  0  0  0  0  0  0  0  0  0
    2.4263    1.3600   -3.0251 H   0  0  0  0  0  0  0  0  0  0  0  0
    0.3031    1.9349   -2.9775 H   0  0  0  0  0  0  0  0  0  0  0  0
    1.2753    3.9296   -2.5172 H   0  0  0  0  0  0  0  0  0  0  0  0
    0.8372    4.0108   -0.7923 H   0  0  0  0  0  0  0  0  0  0  0  0
   -0.4543    4.2245   -2.0857 H   0  0  0  0  0  0  0  0  0  0  0  0
   -2.7971    1.8094   -2.8575 H   0  0  0  0  0  0  0  0  0  0  0  0
   -1.3913    0.8003   -3.3171 H   0  0  0  0  0  0  0  0  0  0  0  0
   -1.7597   -0.8656   -1.8042 H   0  0  0  0  0  0  0  0  0  0  0  0
   -3.3589   -0.5419   -2.5210 H   0  0  0  0  0  0  0  0  0  0  0  0
   -3.4765   -1.9964   -0.3864 H   0  0  0  0  0  0  0  0  0  0  0  0
   -1.9515   -1.4221    0.2783 H   0  0  0  0  0  0  0  0  0  0  0  0
   -5.0434   -1.1920    3.0988 H   0  0  0  0  0  0  0  0  0  0  0  0
   -5.6812   -1.7342    1.5575 H   0  0  0  0  0  0  0  0  0  0  0  0
   -5.2304    0.0467    1.8750 H   0  0  0  0  0  0  0  0  0  0  0  0
   -3.1492   -2.7364    3.2486 H   0  0  0  0  0  0  0  0  0  0  0  0
   -2.1923   -2.9257    1.7369 H   0  0  0  0  0  0  0  0  0  0  0  0
   -3.9074   -3.4338    1.7099 H   0  0  0  0  0  0  0  0  0  0  0  0
   -1.9818   -0.8964    2.8661 H   0  0  0  0  0  0  0  0  0  0  0  0
   -4.0904    2.6162   -0.5452 H   0  0  0  0  0  0  0  0  0  0  0  0
   -6.4214    3.3745   -1.0035 H   0  0  0  0  0  0  0  0  0  0  0  0
   -7.6089   -0.6721   -1.3785 H   0  0  0  0  0  0  0  0  0  0  0  0
   -5.3466   -1.3973   -0.9335 H   0  0  0  0  0  0  0  0  0  0  0  0
    0.3728    1.2424    0.6802 H   0  0  0  0  0  0  0  0  0  0  0  0
    2.1788   -0.1047    1.6527 H   0  0  0  0  0  0  0  0  0  0  0  0
    3.1401   -2.0596    1.7777 H   0  0  0  0  0  0  0  0  0  0  0  0
    4.9660   -3.4035    2.7002 H   0  0  0  0  0  0  0  0  0  0  0  0
  1  2  1  0
  2  3  1  0
  3  4  1  0
  4  5  2  0
  5  6  1  0
  6  7  2  0
  7  8  1  0
  8  9  2  0
  9 10  1  0
 10 11  1  0
 10 12  1  0
 12 13  1  0
 13 14  1  0
 14 15  1  0
 15 16  1  1
 16 17  1  0
 17 18  1  0
 17 19  1  0
 17 20  1  0
 15 21  1  0
 21 22  2  0
 22 23  1  0
 23 24  2  0
 24 25  1  0
 24 26  1  0
 26 27  2  0
 15 28  1  0
 28 29  1  0
 29 30  2  0
  9 31  1  0
 31 32  2  0
  5 33  1  0
 33 34  2  0
 34 35  1  0
 35 36  2  0
 35  3  1  0
 32  6  1  0
 29 12  1  0
 27 21  1  0
  1 37  1  0
  1 38  1  0
  1 39  1  0
  2 40  1  0
  2 41  1  0
  4 42  1  0
  7 43  1  0
  8 44  1  0
 10 45  1  6
 11 46  1  0
 11 47  1  0
 11 48  1  0
 13 49  1  0
 13 50  1  0
 14 51  1  0
 14 52  1  0
 16 53  1  0
 16 54  1  0
 18 55  1  0
 18 56  1  0
 18 57  1  0
 19 58  1  0
 19 59  1  0
 19 60  1  0
 20 61  1  0
 22 62  1  0
 23 63  1  0
 26 64  1  0
 27 65  1  0
 31 66  1  0
 32 67  1  0
 33 68  1  0
 34 69  1  0
M  END
$$$$
