@<TRIPOS>MOLECULE
*****
 48 50 0 0 0
SMALL
GASTEIGER

@<TRIPOS>ATOM
      1 C          -0.8496    4.2058    3.2022 C.3     1  UNL1        0.0788
      2 O          -0.0096    3.7002    2.1795 O.3     1  UNL1       -0.4951
      3 C          -0.3255    2.5561    1.4643 C.ar    1  UNL1        0.1208
      4 C          -1.4692    1.8240    1.6858 C.ar    1  UNL1       -0.0180
      5 C          -1.7627    0.6928    0.9642 C.ar    1  UNL1       -0.0337
      6 C          -0.9349    0.2320   -0.0166 C.ar    1  UNL1        0.0574
      7 C           0.2223    0.9813   -0.2304 C.ar    1  UNL1        0.0076
      8 C           0.5158    2.1096    0.4894 C.ar    1  UNL1       -0.0105
      9 C           0.9241    0.3366   -1.2209 C.ar    1  UNL1       -0.0098
     10 C           2.2341    0.7718   -1.7801 C.3     1  UNL1        0.0528
     11 C           3.3483    0.4543   -0.8494 C.2     1  UNL1        0.2363
     12 O           3.1099   -0.1082    0.2428 O.2     1  UNL1       -0.2739
     13 N           4.6948    0.7708   -1.1596 N.am    1  UNL1       -0.1819
     14 S           6.0373    0.4420   -0.1518 S.O2    1  UNL1        0.1431
     15 O           6.6485    1.7818    0.2231 O.2     1  UNL1       -0.1466
     16 O           7.1223   -0.3220   -0.8711 O.2     1  UNL1       -0.1466
     17 C           5.6094   -0.3671    1.3386 C.3     1  UNL1        0.5385
     18 F           5.0036   -1.5827    1.1761 F       1  UNL1       -0.1491
     19 F           4.8152    0.4205    2.1312 F       1  UNL1       -0.1491
     20 F           6.8025   -0.6147    2.0327 F       1  UNL1       -0.1491
     21 C           0.1878   -0.7465   -1.5626 C.ar    1  UNL1        0.0284
     22 C           0.5968   -1.7147   -2.6076 C.3     1  UNL1       -0.0235
     23 N          -0.9697   -0.8248   -0.8267 N.ar    1  UNL1       -0.2801
     24 C          -1.8788   -1.8921   -0.9459 C.2     1  UNL1        0.2631
     25 O          -1.4629   -2.9467   -1.6179 O.2     1  UNL1       -0.2667
     26 C          -3.2177   -2.0290   -0.4518 C.ar    1  UNL1        0.0399
     27 C          -3.6453   -3.2863   -0.0100 C.ar    1  UNL1       -0.0480
     28 C          -4.9459   -3.5113    0.3864 C.ar    1  UNL1       -0.0427
     29 C          -5.8854   -2.5104    0.3666 C.ar    1  UNL1        0.0410
     30 CL         -7.5378   -2.8395    0.8816 Cl      1  UNL1       -0.0835
     31 C          -5.4990   -1.2624   -0.0625 C.ar    1  UNL1       -0.0427
     32 C          -4.1814   -1.0554   -0.4588 C.ar    1  UNL1       -0.0480
     33 H          -1.2331    3.3615    3.8365 H       1  UNL1        0.0660
     34 H          -1.6884    4.8117    2.8030 H       1  UNL1        0.0660
     35 H          -0.2522    4.8423    3.8679 H       1  UNL1        0.0660
     36 H          -2.1609    2.1618    2.4643 H       1  UNL1        0.0655
     37 H          -2.6338    0.1476    1.1996 H       1  UNL1        0.0640
     38 H           1.4411    2.6572    0.2744 H       1  UNL1        0.0661
     39 H           2.1822    1.8884   -1.9653 H       1  UNL1        0.0408
     40 H           2.4141    0.3552   -2.7930 H       1  UNL1        0.0408
     41 H           4.8261    1.2471   -2.1012 H       1  UNL1        0.1764
     42 H          -0.2556   -1.8915   -3.3161 H       1  UNL1        0.0292
     43 H           1.5046   -1.4245   -3.1309 H       1  UNL1        0.0292
     44 H           0.7999   -2.7249   -2.1586 H       1  UNL1        0.0292
     45 H          -2.8943   -4.0710    0.0018 H       1  UNL1        0.0626
     46 H          -5.2517   -4.4919    0.7241 H       1  UNL1        0.0632
     47 H          -6.2185   -0.4784   -0.0827 H       1  UNL1        0.0632
     48 H          -3.8767   -0.0563   -0.8141 H       1  UNL1        0.0626
@<TRIPOS>BOND
     1     1     2    1
     2     2     3    1
     3     3     4   ar
     4     4     5   ar
     5     5     6   ar
     6     6     7   ar
     7     7     8   ar
     8     7     9   ar
     9     9    10    1
    10    10    11    1
    11    11    12    2
    12    11    13   am
    13    13    14    1
    14    14    15    2
    15    14    16    2
    16    14    17    1
    17    17    18    1
    18    17    19    1
    19    17    20    1
    20     9    21   ar
    21    21    22    1
    22    21    23   ar
    23    23    24   am
    24    24    25    2
    25    24    26    1
    26    26    27   ar
    27    27    28   ar
    28    28    29   ar
    29    29    30    1
    30    29    31   ar
    31    31    32   ar
    32     8     3   ar
    33    32    26   ar
    34    23     6   ar
    35     1    33    1
    36     1    34    1
    37     1    35    1
    38     4    36    1
    39     5    37    1
    40     8    38    1
    41    10    39    1
    42    10    40    1
    43    13    41    1
    44    22    42    1
    45    22    43    1
    46    22    44    1
    47    27    45    1
    48    28    46    1
    49    31    47    1
    50    32    48    1
