@<TRIPOS>MOLECULE
*****
 43 46 0 0 0
SMALL
GASTEIGER

@<TRIPOS>ATOM
      1 C           7.3483   -0.4394    1.0826 C.3     1  UNL1        0.0163
      2 S           6.7369   -0.0529   -0.5869 S.O     1  UNL1        0.0507
      3 O           7.2177    1.3526   -0.9655 O.2     1  UNL1       -0.2524
      4 C           4.9695   -0.0459   -0.4816 C.ar    1  UNL1        0.0386
      5 C           4.3130    1.1298   -0.1921 C.ar    1  UNL1       -0.0453
      6 C           2.9184    1.1534   -0.1043 C.ar    1  UNL1       -0.0500
      7 C           2.2092   -0.0069   -0.3096 C.ar    1  UNL1        0.0173
      8 C           0.7543   -0.0278   -0.2285 C.ar    1  UNL1        0.1393
      9 N          -0.0268   -1.1157   -0.4114 N.ar    1  UNL1       -0.2271
     10 C          -1.3212   -0.7837   -0.2653 C.ar    1  UNL1        0.0972
     11 C          -2.4388   -1.7051   -0.3961 C.ar    1  UNL1        0.0053
     12 C          -3.2800   -1.9515    0.6663 C.ar    1  UNL1       -0.0343
     13 C          -4.3533   -2.8345    0.5509 C.ar    1  UNL1        0.0282
     14 N          -4.5762   -3.4608   -0.6182 N.ar    1  UNL1       -0.2632
     15 C          -3.7564   -3.2241   -1.6623 C.ar    1  UNL1        0.0282
     16 C          -2.6839   -2.3565   -1.5854 C.ar    1  UNL1       -0.0343
     17 C          -1.3514    0.5841    0.0245 C.ar    1  UNL1        0.0743
     18 C          -2.5323    1.3859    0.2661 C.ar    1  UNL1        0.0006
     19 C          -2.6946    2.0405    1.4639 C.ar    1  UNL1       -0.0499
     20 C          -3.8288    2.8176    1.7173 C.ar    1  UNL1       -0.0258
     21 C          -4.7882    2.9201    0.7458 C.ar    1  UNL1        0.1234
     22 F          -5.9079    3.6538    0.9249 F       1  UNL1       -0.2055
     23 C          -4.6554    2.2746   -0.4697 C.ar    1  UNL1       -0.0258
     24 C          -3.5114    1.5092   -0.6861 C.ar    1  UNL1       -0.0499
     25 N          -0.0539    0.9936    0.0341 N.ar    1  UNL1       -0.3374
     26 C           2.9071   -1.1687   -0.5987 C.ar    1  UNL1       -0.0500
     27 C           4.2650   -1.2129   -0.6886 C.ar    1  UNL1       -0.0453
     28 H           7.2443    0.4703    1.6736 H       1  UNL1        0.0368
     29 H           6.7484   -1.2947    1.4856 H       1  UNL1        0.0368
     30 H           8.3974   -0.7252    1.0138 H       1  UNL1        0.0368
     31 H           4.9188    2.0125   -0.0400 H       1  UNL1        0.0629
     32 H           2.4283    2.0948    0.1256 H       1  UNL1        0.0625
     33 H          -3.1509   -1.4806    1.6231 H       1  UNL1        0.0639
     34 H          -5.0215   -3.0369    1.3774 H       1  UNL1        0.0830
     35 H          -3.9256   -3.7214   -2.6067 H       1  UNL1        0.0830
     36 H          -2.0634   -2.2126   -2.4661 H       1  UNL1        0.0639
     37 H          -1.9638    1.9891    2.2605 H       1  UNL1        0.0625
     38 H          -3.9705    3.3324    2.6419 H       1  UNL1        0.0646
     39 H          -5.4026    2.3578   -1.2189 H       1  UNL1        0.0646
     40 H          -3.4378    1.0203   -1.6390 H       1  UNL1        0.0625
     41 H           0.2397    1.9742    0.2232 H       1  UNL1        0.1674
     42 H           2.3182   -2.0674   -0.7553 H       1  UNL1        0.0625
     43 H           4.7621   -2.1413   -0.9159 H       1  UNL1        0.0629
@<TRIPOS>BOND
     1     1     2    1
     2     2     3    2
     3     2     4    1
     4     4     5   ar
     5     5     6   ar
     6     6     7   ar
     7     7     8    1
     8     8     9   ar
     9     9    10   ar
    10    10    11    1
    11    11    12   ar
    12    12    13   ar
    13    13    14   ar
    14    14    15   ar
    15    15    16   ar
    16    10    17   ar
    17    17    18    1
    18    18    19   ar
    19    19    20   ar
    20    20    21   ar
    21    21    22    1
    22    21    23   ar
    23    23    24   ar
    24    17    25   ar
    25     7    26   ar
    26    26    27   ar
    27    27     4   ar
    28    25     8   ar
    29    16    11   ar
    30    24    18   ar
    31     1    28    1
    32     1    29    1
    33     1    30    1
    34     5    31    1
    35     6    32    1
    36    12    33    1
    37    13    34    1
    38    15    35    1
    39    16    36    1
    40    19    37    1
    41    20    38    1
    42    23    39    1
    43    24    40    1
    44    25    41    1
    45    26    42    1
    46    27    43    1
