
     RDKit          3D

 49 51  0  0  0  0  0  0  0  0999 V2000
    3.0968   -4.1240    1.0126 C   0  0  0  0  0  0  0  0  0  0  0  0
    2.0524   -3.2736    0.4043 C   0  0  0  0  0  0  0  0  0  0  0  0
    0.9208   -3.8321    0.2557 O   0  0  0  0  0  0  0  0  0  0  0  0
    2.3476   -1.9078    0.0236 C   0  0  0  0  0  0  0  0  0  0  0  0
    1.3740   -1.1217   -0.5798 C   0  0  0  0  0  0  0  0  0  0  0  0
    0.0957   -1.6290   -0.9094 N   0  0  0  0  0  0  0  0  0  0  0  0
   -1.1263   -0.9000   -0.7272 C   0  0  0  0  0  0  0  0  0  0  0  0
   -2.2970   -1.3219   -1.3407 C   0  0  0  0  0  0  0  0  0  0  0  0
   -3.4915   -0.6489   -1.1594 C   0  0  0  0  0  0  0  0  0  0  0  0
   -3.5784    0.4748   -0.3600 C   0  0  0  0  0  0  0  0  0  0  0  0
   -4.8901    1.1685   -0.2011 C   0  0  0  0  0  0  0  0  0  0  0  0
   -5.0310    2.3180   -1.1702 C   0  0  0  0  0  0  0  0  0  0  0  0
   -6.0490    0.2151   -0.4890 C   0  0  0  0  0  0  0  0  0  0  0  0
   -5.1075    1.6936    1.2009 C   0  0  0  0  0  0  0  0  0  0  0  0
   -2.4208    0.9032    0.2541 C   0  0  0  0  0  0  0  0  0  0  0  0
   -1.2141    0.2222    0.0699 C   0  0  0  0  0  0  0  0  0  0  0  0
    1.7126    0.1635   -0.8906 N   0  0  0  0  0  0  0  0  0  0  0  0
    2.9316    0.6407   -0.6249 C   0  0  0  0  0  0  0  0  0  0  0  0
    3.2756    1.9592   -0.9546 C   0  0  0  0  0  0  0  0  0  0  0  0
    2.0340    2.9278   -1.7163 Cl  0  0  0  0  0  0  0  0  0  0  0  0
    4.5132    2.4770   -0.7042 C   0  0  0  0  0  0  0  0  0  0  0  0
    5.4817    1.6952   -0.1047 C   0  0  0  0  0  0  0  0  0  0  0  0
    6.7621    2.2141    0.1649 N   0  0  0  0  0  4  0  0  0  0  0  0
    7.0624    3.3837   -0.1397 O   0  0  0  0  0  0  0  0  0  0  0  0
    7.7333    1.4551    0.7741 O   0  0  0  0  0  1  0  0  0  0  0  0
    5.1967    0.3926    0.2398 C   0  0  0  0  0  0  0  0  0  0  0  0
    3.9151   -0.1130   -0.0297 C   0  0  0  0  0  0  0  0  0  0  0  0
    3.6045   -1.4210    0.2997 C   0  0  0  0  0  0  0  0  0  0  0  0
    4.6270   -2.1488    0.9013 O   0  0  0  0  0  0  0  0  0  0  0  0
    3.9849   -4.2600    0.3469 H   0  0  0  0  0  0  0  0  0  0  0  0
    2.7105   -5.1593    1.2197 H   0  0  0  0  0  0  0  0  0  0  0  0
    3.3987   -3.7311    2.0094 H   0  0  0  0  0  0  0  0  0  0  0  0
   -0.0103   -2.5926   -1.3348 H   0  0  0  0  0  0  0  0  0  0  0  0
   -2.2450   -2.2074   -1.9757 H   0  0  0  0  0  0  0  0  0  0  0  0
   -4.4080   -0.9986   -1.6532 H   0  0  0  0  0  0  0  0  0  0  0  0
   -4.4620    2.1542   -2.1016 H   0  0  0  0  0  0  0  0  0  0  0  0
   -4.7133    3.2482   -0.6511 H   0  0  0  0  0  0  0  0  0  0  0  0
   -6.1023    2.4275   -1.4245 H   0  0  0  0  0  0  0  0  0  0  0  0
   -6.2505    0.1791   -1.5846 H   0  0  0  0  0  0  0  0  0  0  0  0
   -5.7934   -0.7832   -0.0850 H   0  0  0  0  0  0  0  0  0  0  0  0
   -6.9329    0.6542    0.0021 H   0  0  0  0  0  0  0  0  0  0  0  0
   -6.2217    1.7796    1.3466 H   0  0  0  0  0  0  0  0  0  0  0  0
   -4.6440    2.7021    1.3577 H   0  0  0  0  0  0  0  0  0  0  0  0
   -4.7347    0.9311    1.9002 H   0  0  0  0  0  0  0  0  0  0  0  0
   -2.4524    1.7772    0.8849 H   0  0  0  0  0  0  0  0  0  0  0  0
   -0.3078    0.5685    0.5580 H   0  0  0  0  0  0  0  0  0  0  0  0
    4.7742    3.4878   -0.9578 H   0  0  0  0  0  0  0  0  0  0  0  0
    5.9340   -0.2475    0.7106 H   0  0  0  0  0  0  0  0  0  0  0  0
    4.9443   -1.7925    1.7928 H   0  0  0  0  0  0  0  0  0  0  0  0
  1  2  1  0
  2  3  2  0
  2  4  1  0
  4  5  2  0
  5  6  1  0
  6  7  1  0
  7  8  2  0
  8  9  1  0
  9 10  2  0
 10 11  1  0
 11 12  1  0
 11 13  1  0
 11 14  1  0
 10 15  1  0
 15 16  2  0
  5 17  1  0
 17 18  2  0
 18 19  1  0
 19 20  1  0
 19 21  2  0
 21 22  1  0
 22 23  1  0
 23 24  2  0
 23 25  1  0
 22 26  2  0
 26 27  1  0
 27 28  2  0
 28 29  1  0
 28  4  1  0
 16  7  1  0
 27 18  1  0
  1 30  1  0
  1 31  1  0
  1 32  1  0
  6 33  1  0
  8 34  1  0
  9 35  1  0
 12 36  1  0
 12 37  1  0
 12 38  1  0
 13 39  1  0
 13 40  1  0
 13 41  1  0
 14 42  1  0
 14 43  1  0
 14 44  1  0
 15 45  1  0
 16 46  1  0
 21 47  1  0
 26 48  1  0
 29 49  1  0
M  CHG  2  23   1  25  -1
M  END
$$$$
