@<TRIPOS>MOLECULE
*****
 49 51 0 0 0
SMALL
GASTEIGER

@<TRIPOS>ATOM
      1 C           3.0968   -4.1240    1.0126 C.3     1  UNL1       -0.0012
      2 C           2.0524   -3.2736    0.4043 C.2     1  UNL1        0.1669
      3 O           0.9208   -3.8321    0.2557 O.2     1  UNL1       -0.2921
      4 C           2.3476   -1.9078    0.0236 C.ar    1  UNL1        0.0990
      5 C           1.3740   -1.1217   -0.5798 C.ar    1  UNL1        0.1377
      6 N           0.0957   -1.6290   -0.9094 N.pl3   1  UNL1       -0.2988
      7 C          -1.1263   -0.9000   -0.7272 C.ar    1  UNL1        0.0324
      8 C          -2.2970   -1.3219   -1.3407 C.ar    1  UNL1       -0.0402
      9 C          -3.4915   -0.6489   -1.1594 C.ar    1  UNL1       -0.0563
     10 C          -3.5784    0.4748   -0.3600 C.ar    1  UNL1       -0.0419
     11 C          -4.8901    1.1685   -0.2011 C.3     1  UNL1       -0.0127
     12 C          -5.0310    2.3180   -1.1702 C.3     1  UNL1       -0.0560
     13 C          -6.0490    0.2151   -0.4890 C.3     1  UNL1       -0.0560
     14 C          -5.1075    1.6936    1.2009 C.3     1  UNL1       -0.0560
     15 C          -2.4208    0.9032    0.2541 C.ar    1  UNL1       -0.0563
     16 C          -1.2141    0.2222    0.0699 C.ar    1  UNL1       -0.0402
     17 N           1.7126    0.1635   -0.8906 N.ar    1  UNL1       -0.2295
     18 C           2.9316    0.6407   -0.6249 C.ar    1  UNL1        0.0953
     19 C           3.2756    1.9592   -0.9546 C.ar    1  UNL1        0.0734
     20 CL          2.0340    2.9278   -1.7163 Cl      1  UNL1       -0.0811
     21 C           4.5132    2.4770   -0.7042 C.ar    1  UNL1        0.0360
     22 C           5.4817    1.6952   -0.1047 C.ar    1  UNL1        0.2753
     23 N           6.7621    2.2141    0.1649 N.pl3   1  UNL1        0.0797
     24 O           7.0624    3.3837   -0.1397 O.2     1  UNL1        0.0414
     25 O           7.7333    1.4551    0.7741 O.co2   1  UNL1       -0.5760
     26 C           5.1967    0.3926    0.2398 C.ar    1  UNL1        0.0284
     27 C           3.9151   -0.1130   -0.0297 C.ar    1  UNL1        0.0505
     28 C           3.6045   -1.4210    0.2997 C.ar    1  UNL1        0.1400
     29 O           4.6270   -2.1488    0.9013 O.3     1  UNL1       -0.5053
     30 H           3.9849   -4.2600    0.3469 H       1  UNL1        0.0309
     31 H           2.7105   -5.1593    1.2197 H       1  UNL1        0.0309
     32 H           3.3987   -3.7311    2.0094 H       1  UNL1        0.0309
     33 H          -0.0103   -2.5926   -1.3348 H       1  UNL1        0.1536
     34 H          -2.2450   -2.2074   -1.9757 H       1  UNL1        0.0636
     35 H          -4.4080   -0.9986   -1.6532 H       1  UNL1        0.0621
     36 H          -4.4620    2.1542   -2.1016 H       1  UNL1        0.0238
     37 H          -4.7133    3.2482   -0.6511 H       1  UNL1        0.0238
     38 H          -6.1023    2.4275   -1.4245 H       1  UNL1        0.0238
     39 H          -6.2505    0.1791   -1.5846 H       1  UNL1        0.0238
     40 H          -5.7934   -0.7832   -0.0850 H       1  UNL1        0.0238
     41 H          -6.9329    0.6542    0.0021 H       1  UNL1        0.0238
     42 H          -6.2217    1.7796    1.3466 H       1  UNL1        0.0238
     43 H          -4.6440    2.7021    1.3577 H       1  UNL1        0.0238
     44 H          -4.7347    0.9311    1.9002 H       1  UNL1        0.0238
     45 H          -2.4524    1.7772    0.8849 H       1  UNL1        0.0621
     46 H          -0.3078    0.5685    0.5580 H       1  UNL1        0.0636
     47 H           4.7742    3.4878   -0.9578 H       1  UNL1        0.0701
     48 H           5.9340   -0.2475    0.7106 H       1  UNL1        0.0693
     49 H           4.9443   -1.7925    1.7928 H       1  UNL1        0.2922
@<TRIPOS>UNITY_ATOM_ATTR
23 1
charge 1
25 1
charge -1
@<TRIPOS>BOND
     1     1     2    1
     2     2     3    2
     3     2     4    1
     4     4     5   ar
     5     5     6    1
     6     6     7    1
     7     7     8   ar
     8     8     9   ar
     9     9    10   ar
    10    10    11    1
    11    11    12    1
    12    11    13    1
    13    11    14    1
    14    10    15   ar
    15    15    16   ar
    16     5    17   ar
    17    17    18   ar
    18    18    19   ar
    19    19    20    1
    20    19    21   ar
    21    21    22   ar
    22    22    23    1
    23    23    24    2
    24    23    25    1
    25    22    26   ar
    26    26    27   ar
    27    27    28   ar
    28    28    29    1
    29    28     4   ar
    30    16     7   ar
    31    27    18   ar
    32     1    30    1
    33     1    31    1
    34     1    32    1
    35     6    33    1
    36     8    34    1
    37     9    35    1
    38    12    36    1
    39    12    37    1
    40    12    38    1
    41    13    39    1
    42    13    40    1
    43    13    41    1
    44    14    42    1
    45    14    43    1
    46    14    44    1
    47    15    45    1
    48    16    46    1
    49    21    47    1
    50    26    48    1
    51    29    49    1
