@<TRIPOS>MOLECULE
*****
 53 58 0 0 0
SMALL
GASTEIGER

@<TRIPOS>ATOM
      1 C           3.4778    1.4173    3.2293 C.3     1  UNL1       -0.0361
      2 C           3.2384    0.7541    1.9249 C.ar    1  UNL1       -0.0041
      3 C           1.9416    0.5140    1.5090 C.ar    1  UNL1       -0.0324
      4 C           1.6475   -0.0982    0.3112 C.ar    1  UNL1        0.0545
      5 N           0.3349   -0.3645   -0.1628 N.am    1  UNL1       -0.2531
      6 C          -0.3283   -1.6004    0.1771 C.2     1  UNL1        0.2700
      7 O           0.1327   -2.5348    0.8905 O.2     1  UNL1       -0.2679
      8 C          -1.6260   -1.6109   -0.4330 C.ar    1  UNL1        0.1297
      9 C          -1.7548   -0.4295   -1.1197 C.ar    1  UNL1        0.0330
     10 C          -3.0117   -0.4725   -1.6915 C.ar    1  UNL1        0.0943
     11 C          -3.6607    0.5409   -2.5344 C.3     1  UNL1        0.0883
     12 O          -4.0984    1.5934   -1.7362 O.3     1  UNL1       -0.3888
     13 N          -3.5618   -1.6446   -1.3309 N.ar    1  UNL1       -0.1726
     14 N          -2.7457   -2.3376   -0.5777 N.ar    1  UNL1       -0.2555
     15 C          -2.9809   -3.6417    0.0014 C.3     1  UNL1        0.0537
     16 C          -4.2737   -3.8056    0.7913 C.3     1  UNL1       -0.0285
     17 C          -2.9374   -3.8483    1.4707 C.3     1  UNL1       -0.0285
     18 C          -0.5367    0.4045   -0.9863 C.3     1  UNL1        0.0855
     19 C          -0.8367    1.7291   -0.4368 C.ar    1  UNL1       -0.0221
     20 C          -1.1844    1.9170    0.8643 C.ar    1  UNL1       -0.0551
     21 C          -1.4634    3.1708    1.3703 C.ar    1  UNL1       -0.0431
     22 C          -1.3891    4.2663    0.5378 C.ar    1  UNL1        0.0410
     23 CL         -1.7341    5.8804    1.1331 Cl      1  UNL1       -0.0835
     24 C          -1.0393    4.0969   -0.7806 C.ar    1  UNL1       -0.0431
     25 C          -0.7678    2.8510   -1.2606 C.ar    1  UNL1       -0.0551
     26 C           2.7124   -0.4722   -0.4770 C.ar    1  UNL1        0.0344
     27 N           3.9981   -0.2566   -0.1092 N.ar    1  UNL1       -0.2846
     28 C           5.1637   -0.5436   -0.7304 C.ar    1  UNL1        0.1347
     29 C           5.3526   -1.2053   -2.0491 C.3     1  UNL1       -0.0041
     30 N           6.1169   -0.0982    0.1072 N.ar    1  UNL1       -0.1340
     31 N           5.5686    0.4368    1.1907 N.ar    1  UNL1       -0.1292
     32 C           4.2449    0.3485    1.0765 C.ar    1  UNL1        0.1641
     33 H           4.4655    1.8721    3.3154 H       1  UNL1        0.0279
     34 H           2.6300    2.0982    3.4127 H       1  UNL1        0.0279
     35 H           3.4099    0.6396    4.0460 H       1  UNL1        0.0279
     36 H           1.1499    0.8171    2.1492 H       1  UNL1        0.0640
     37 H          -4.5150    0.1082   -3.0854 H       1  UNL1        0.0623
     38 H          -2.9315    0.9203   -3.2845 H       1  UNL1        0.0623
     39 H          -4.8088    1.2508   -1.1304 H       1  UNL1        0.2099
     40 H          -2.7061   -4.5104   -0.6519 H       1  UNL1        0.0545
     41 H          -4.8107   -4.7660    0.6462 H       1  UNL1        0.0286
     42 H          -4.8922   -2.8902    0.9181 H       1  UNL1        0.0286
     43 H          -2.6756   -2.9836    2.1321 H       1  UNL1        0.0286
     44 H          -2.5383   -4.8328    1.8103 H       1  UNL1        0.0286
     45 H          -0.0553    0.4711   -2.0024 H       1  UNL1        0.0606
     46 H          -1.2403    1.0574    1.5077 H       1  UNL1        0.0621
     47 H          -1.7339    3.2706    2.4056 H       1  UNL1        0.0632
     48 H          -0.9725    4.9520   -1.4647 H       1  UNL1        0.0632
     49 H          -0.4864    2.6781   -2.3035 H       1  UNL1        0.0621
     50 H           2.5532   -0.9581   -1.4306 H       1  UNL1        0.0833
     51 H           4.3554   -1.4089   -2.4707 H       1  UNL1        0.0308
     52 H           5.8681   -2.1880   -1.9584 H       1  UNL1        0.0308
     53 H           5.9355   -0.5541   -2.7296 H       1  UNL1        0.0308
@<TRIPOS>BOND
     1     1     2    1
     2     2     3   ar
     3     3     4   ar
     4     4     5    1
     5     5     6   am
     6     6     7    2
     7     6     8    1
     8     8     9   ar
     9     9    10   ar
    10    10    11    1
    11    11    12    1
    12    10    13   ar
    13    13    14   ar
    14    14    15    1
    15    15    16    1
    16    16    17    1
    17     9    18    1
    18    18    19    1
    19    19    20   ar
    20    20    21   ar
    21    21    22   ar
    22    22    23    1
    23    22    24   ar
    24    24    25   ar
    25     4    26   ar
    26    26    27   ar
    27    27    28   ar
    28    28    29    1
    29    28    30   ar
    30    30    31   ar
    31    31    32   ar
    32    32     2   ar
    33    18     5    1
    34    25    19   ar
    35    32    27   ar
    36    14     8   ar
    37    17    15    1
    38     1    33    1
    39     1    34    1
    40     1    35    1
    41     3    36    1
    42    11    37    1
    43    11    38    1
    44    12    39    1
    45    15    40    1
    46    16    41    1
    47    16    42    1
    48    17    43    1
    49    17    44    1
    50    18    45    1
    51    20    46    1
    52    21    47    1
    53    24    48    1
    54    25    49    1
    55    26    50    1
    56    29    51    1
    57    29    52    1
    58    29    53    1
