
     RDKit          3D

 53 58  0  0  0  0  0  0  0  0999 V2000
    3.4778    1.4173    3.2293 C   0  0  0  0  0  0  0  0  0  0  0  0
    3.2384    0.7541    1.9249 C   0  0  0  0  0  0  0  0  0  0  0  0
    1.9416    0.5140    1.5090 C   0  0  0  0  0  0  0  0  0  0  0  0
    1.6475   -0.0982    0.3112 C   0  0  0  0  0  0  0  0  0  0  0  0
    0.3349   -0.3645   -0.1628 N   0  0  0  0  0  0  0  0  0  0  0  0
   -0.3283   -1.6004    0.1771 C   0  0  0  0  0  0  0  0  0  0  0  0
    0.1327   -2.5348    0.8905 O   0  0  0  0  0  0  0  0  0  0  0  0
   -1.6260   -1.6109   -0.4330 C   0  0  0  0  0  0  0  0  0  0  0  0
   -1.7548   -0.4295   -1.1197 C   0  0  0  0  0  0  0  0  0  0  0  0
   -3.0117   -0.4725   -1.6915 C   0  0  0  0  0  0  0  0  0  0  0  0
   -3.6607    0.5409   -2.5344 C   0  0  0  0  0  0  0  0  0  0  0  0
   -4.0984    1.5934   -1.7362 O   0  0  0  0  0  0  0  0  0  0  0  0
   -3.5618   -1.6446   -1.3309 N   0  0  0  0  0  0  0  0  0  0  0  0
   -2.7457   -2.3376   -0.5777 N   0  0  0  0  0  0  0  0  0  0  0  0
   -2.9809   -3.6417    0.0014 C   0  0  0  0  0  0  0  0  0  0  0  0
   -4.2737   -3.8056    0.7913 C   0  0  0  0  0  0  0  0  0  0  0  0
   -2.9374   -3.8483    1.4707 C   0  0  0  0  0  0  0  0  0  0  0  0
   -0.5367    0.4045   -0.9863 C   0  0  1  0  0  0  0  0  0  0  0  0
   -0.8367    1.7291   -0.4368 C   0  0  0  0  0  0  0  0  0  0  0  0
   -1.1844    1.9170    0.8643 C   0  0  0  0  0  0  0  0  0  0  0  0
   -1.4634    3.1708    1.3703 C   0  0  0  0  0  0  0  0  0  0  0  0
   -1.3891    4.2663    0.5378 C   0  0  0  0  0  0  0  0  0  0  0  0
   -1.7341    5.8804    1.1331 Cl  0  0  0  0  0  0  0  0  0  0  0  0
   -1.0393    4.0969   -0.7806 C   0  0  0  0  0  0  0  0  0  0  0  0
   -0.7678    2.8510   -1.2606 C   0  0  0  0  0  0  0  0  0  0  0  0
    2.7124   -0.4722   -0.4770 C   0  0  0  0  0  0  0  0  0  0  0  0
    3.9981   -0.2566   -0.1092 N   0  0  0  0  0  0  0  0  0  0  0  0
    5.1637   -0.5436   -0.7304 C   0  0  0  0  0  0  0  0  0  0  0  0
    5.3526   -1.2053   -2.0491 C   0  0  0  0  0  0  0  0  0  0  0  0
    6.1169   -0.0982    0.1072 N   0  0  0  0  0  0  0  0  0  0  0  0
    5.5686    0.4368    1.1907 N   0  0  0  0  0  0  0  0  0  0  0  0
    4.2449    0.3485    1.0765 C   0  0  0  0  0  0  0  0  0  0  0  0
    4.4655    1.8721    3.3154 H   0  0  0  0  0  0  0  0  0  0  0  0
    2.6300    2.0982    3.4127 H   0  0  0  0  0  0  0  0  0  0  0  0
    3.4099    0.6396    4.0460 H   0  0  0  0  0  0  0  0  0  0  0  0
    1.1499    0.8171    2.1492 H   0  0  0  0  0  0  0  0  0  0  0  0
   -4.5150    0.1082   -3.0854 H   0  0  0  0  0  0  0  0  0  0  0  0
   -2.9315    0.9203   -3.2845 H   0  0  0  0  0  0  0  0  0  0  0  0
   -4.8088    1.2508   -1.1304 H   0  0  0  0  0  0  0  0  0  0  0  0
   -2.7061   -4.5104   -0.6519 H   0  0  0  0  0  0  0  0  0  0  0  0
   -4.8107   -4.7660    0.6462 H   0  0  0  0  0  0  0  0  0  0  0  0
   -4.8922   -2.8902    0.9181 H   0  0  0  0  0  0  0  0  0  0  0  0
   -2.6756   -2.9836    2.1321 H   0  0  0  0  0  0  0  0  0  0  0  0
   -2.5383   -4.8328    1.8103 H   0  0  0  0  0  0  0  0  0  0  0  0
   -0.0553    0.4711   -2.0024 H   0  0  0  0  0  0  0  0  0  0  0  0
   -1.2403    1.0574    1.5077 H   0  0  0  0  0  0  0  0  0  0  0  0
   -1.7339    3.2706    2.4056 H   0  0  0  0  0  0  0  0  0  0  0  0
   -0.9725    4.9520   -1.4647 H   0  0  0  0  0  0  0  0  0  0  0  0
   -0.4864    2.6781   -2.3035 H   0  0  0  0  0  0  0  0  0  0  0  0
    2.5532   -0.9581   -1.4306 H   0  0  0  0  0  0  0  0  0  0  0  0
    4.3554   -1.4089   -2.4707 H   0  0  0  0  0  0  0  0  0  0  0  0
    5.8681   -2.1880   -1.9584 H   0  0  0  0  0  0  0  0  0  0  0  0
    5.9355   -0.5541   -2.7296 H   0  0  0  0  0  0  0  0  0  0  0  0
  1  2  1  0
  2  3  2  0
  3  4  1  0
  4  5  1  0
  5  6  1  0
  6  7  2  0
  6  8  1  0
  8  9  2  0
  9 10  1  0
 10 11  1  0
 11 12  1  0
 10 13  2  0
 13 14  1  0
 14 15  1  0
 15 16  1  0
 16 17  1  0
  9 18  1  0
 18 19  1  0
 19 20  2  0
 20 21  1  0
 21 22  2  0
 22 23  1  0
 22 24  1  0
 24 25  2  0
  4 26  2  0
 26 27  1  0
 27 28  1  0
 28 29  1  0
 28 30  2  0
 30 31  1  0
 31 32  2  0
 32  2  1  0
 18  5  1  0
 25 19  1  0
 32 27  1  0
 14  8  1  0
 17 15  1  0
  1 33  1  0
  1 34  1  0
  1 35  1  0
  3 36  1  0
 11 37  1  0
 11 38  1  0
 12 39  1  0
 15 40  1  0
 16 41  1  0
 16 42  1  0
 17 43  1  0
 17 44  1  0
 18 45  1  6
 20 46  1  0
 21 47  1  0
 24 48  1  0
 25 49  1  0
 26 50  1  0
 29 51  1  0
 29 52  1  0
 29 53  1  0
M  END
$$$$
