
     RDKit          3D

 43 44  0  0  0  0  0  0  0  0999 V2000
    6.6229   -0.2838    1.2122 C   0  0  0  0  0  0  0  0  0  0  0  0
    5.7759    0.7243    0.5253 C   0  0  0  0  0  0  0  0  0  0  0  0
    6.1337    1.8826    0.5112 O   0  0  0  0  0  0  0  0  0  0  0  0
    4.5257    0.2559   -0.1129 C   0  0  0  0  0  0  0  0  0  0  0  0
    3.7556    1.3645   -0.7742 C   0  0  0  0  0  0  0  0  0  0  0  0
    2.6078    0.6923   -1.5443 C   0  0  0  0  0  0  0  0  0  0  0  0
    1.7325    0.0382   -0.5169 C   0  0  0  0  0  0  0  0  0  0  0  0
    0.5123   -0.4847   -1.0166 N   0  0  0  0  0  0  0  0  0  0  0  0
   -0.7747   -0.0392   -0.5342 C   0  0  0  0  0  0  0  0  0  0  0  0
   -0.7189    0.8321    0.3467 O   0  0  0  0  0  0  0  0  0  0  0  0
   -1.9692   -0.5842   -1.0570 N   0  0  0  0  0  0  0  0  0  0  0  0
   -3.2497   -0.2038   -0.6407 C   0  0  0  0  0  0  0  0  0  0  0  0
   -3.5377    0.7259    0.3076 C   0  0  0  0  0  0  0  0  0  0  0  0
   -4.8699    1.0434    0.6614 C   0  0  0  0  0  0  0  0  0  0  0  0
   -5.8955    0.3858    0.0205 C   0  0  0  0  0  0  0  0  0  0  0  0
   -7.1954    0.7202    0.3907 O   0  0  0  0  0  0  0  0  0  0  0  0
   -7.7922   -0.0041    1.4391 C   0  0  0  0  0  0  0  0  0  0  0  0
   -9.0610    0.4955    1.6272 F   0  0  0  0  0  0  0  0  0  0  0  0
   -7.0499    0.1518    2.6096 F   0  0  0  0  0  0  0  0  0  0  0  0
   -7.8566   -1.3599    1.1839 F   0  0  0  0  0  0  0  0  0  0  0  0
   -5.6379   -0.5575   -0.9407 C   0  0  0  0  0  0  0  0  0  0  0  0
   -4.3310   -0.8316   -1.2500 C   0  0  0  0  0  0  0  0  0  0  0  0
    2.5038   -1.0653    0.1756 C   0  0  0  0  0  0  0  0  0  0  0  0
    3.6247   -0.3909    0.9377 C   0  0  0  0  0  0  0  0  0  0  0  0
    6.2409   -1.3012    1.1205 H   0  0  0  0  0  0  0  0  0  0  0  0
    6.6944   -0.0548    2.2996 H   0  0  0  0  0  0  0  0  0  0  0  0
    7.6429   -0.1923    0.7902 H   0  0  0  0  0  0  0  0  0  0  0  0
    4.7185   -0.5315   -0.8774 H   0  0  0  0  0  0  0  0  0  0  0  0
    4.4254    1.9199   -1.4617 H   0  0  0  0  0  0  0  0  0  0  0  0
    3.3259    2.0284    0.0247 H   0  0  0  0  0  0  0  0  0  0  0  0
    2.0654    1.4980   -2.0501 H   0  0  0  0  0  0  0  0  0  0  0  0
    3.1007   -0.0276   -2.2258 H   0  0  0  0  0  0  0  0  0  0  0  0
    1.5129    0.8042    0.2640 H   0  0  0  0  0  0  0  0  0  0  0  0
    0.5322   -1.2112   -1.7527 H   0  0  0  0  0  0  0  0  0  0  0  0
   -1.8638   -1.3364   -1.8212 H   0  0  0  0  0  0  0  0  0  0  0  0
   -2.7524    1.2558    0.8250 H   0  0  0  0  0  0  0  0  0  0  0  0
   -5.0847    1.7774    1.4098 H   0  0  0  0  0  0  0  0  0  0  0  0
   -6.4552   -1.0547   -1.4242 H   0  0  0  0  0  0  0  0  0  0  0  0
   -4.1493   -1.5823   -2.0144 H   0  0  0  0  0  0  0  0  0  0  0  0
    1.8535   -1.6709    0.8287 H   0  0  0  0  0  0  0  0  0  0  0  0
    2.9920   -1.7339   -0.5912 H   0  0  0  0  0  0  0  0  0  0  0  0
    4.1932   -1.1004    1.5688 H   0  0  0  0  0  0  0  0  0  0  0  0
    3.1521    0.4282    1.5265 H   0  0  0  0  0  0  0  0  0  0  0  0
  1  2  1  0
  2  3  2  0
  2  4  1  0
  4  5  1  0
  5  6  1  0
  6  7  1  0
  7  8  1  0
  8  9  1  0
  9 10  2  0
  9 11  1  0
 11 12  1  0
 12 13  2  0
 13 14  1  0
 14 15  2  0
 15 16  1  0
 16 17  1  0
 17 18  1  0
 17 19  1  0
 17 20  1  0
 15 21  1  0
 21 22  2  0
  7 23  1  0
 23 24  1  0
 24  4  1  0
 22 12  1  0
  1 25  1  0
  1 26  1  0
  1 27  1  0
  4 28  1  0
  5 29  1  0
  5 30  1  0
  6 31  1  0
  6 32  1  0
  7 33  1  0
  8 34  1  0
 11 35  1  0
 13 36  1  0
 14 37  1  0
 21 38  1  0
 22 39  1  0
 23 40  1  0
 23 41  1  0
 24 42  1  0
 24 43  1  0
M  END
$$$$
