@<TRIPOS>MOLECULE
*****
 43 44 0 0 0
SMALL
GASTEIGER

@<TRIPOS>ATOM
      1 C           6.6229   -0.2838    1.2122 C.3     1  UNL1       -0.0058
      2 C           5.7759    0.7243    0.5253 C.2     1  UNL1        0.1334
      3 O           6.1337    1.8826    0.5112 O.2     1  UNL1       -0.2974
      4 C           4.5257    0.2559   -0.1129 C.3     1  UNL1        0.0173
      5 C           3.7556    1.3645   -0.7742 C.3     1  UNL1       -0.0418
      6 C           2.6078    0.6923   -1.5443 C.3     1  UNL1       -0.0338
      7 C           1.7325    0.0382   -0.5169 C.3     1  UNL1        0.0246
      8 N           0.5123   -0.4847   -1.0166 N.am    1  UNL1       -0.2963
      9 C          -0.7747   -0.0392   -0.5342 C.2     1  UNL1        0.3041
     10 O          -0.7189    0.8321    0.3467 O.2     1  UNL1       -0.2525
     11 N          -1.9692   -0.5842   -1.0570 N.am    1  UNL1       -0.2695
     12 C          -3.2497   -0.2038   -0.6407 C.ar    1  UNL1        0.0350
     13 C          -3.5377    0.7259    0.3076 C.ar    1  UNL1       -0.0370
     14 C          -4.8699    1.0434    0.6614 C.ar    1  UNL1       -0.0179
     15 C          -5.8955    0.3858    0.0205 C.ar    1  UNL1        0.1301
     16 O          -7.1954    0.7202    0.3907 O.3     1  UNL1       -0.4057
     17 C          -7.7922   -0.0041    1.4391 C.3     1  UNL1        0.5752
     18 F          -9.0610    0.4955    1.6272 F       1  UNL1       -0.1328
     19 F          -7.0499    0.1518    2.6096 F       1  UNL1       -0.1328
     20 F          -7.8566   -1.3599    1.1839 F       1  UNL1       -0.1328
     21 C          -5.6379   -0.5575   -0.9407 C.ar    1  UNL1       -0.0179
     22 C          -4.3310   -0.8316   -1.2500 C.ar    1  UNL1       -0.0370
     23 C           2.5038   -1.0653    0.1756 C.3     1  UNL1       -0.0338
     24 C           3.6247   -0.3909    0.9377 C.3     1  UNL1       -0.0418
     25 H           6.2409   -1.3012    1.1205 H       1  UNL1        0.0306
     26 H           6.6944   -0.0548    2.2996 H       1  UNL1        0.0306
     27 H           7.6429   -0.1923    0.7902 H       1  UNL1        0.0306
     28 H           4.7185   -0.5315   -0.8774 H       1  UNL1        0.0377
     29 H           4.4254    1.9199   -1.4617 H       1  UNL1        0.0273
     30 H           3.3259    2.0284    0.0247 H       1  UNL1        0.0273
     31 H           2.0654    1.4980   -2.0501 H       1  UNL1        0.0283
     32 H           3.1007   -0.0276   -2.2258 H       1  UNL1        0.0283
     33 H           1.5129    0.8042    0.2640 H       1  UNL1        0.0499
     34 H           0.5322   -1.2112   -1.7527 H       1  UNL1        0.1505
     35 H          -1.8638   -1.3364   -1.8212 H       1  UNL1        0.1564
     36 H          -2.7524    1.2558    0.8250 H       1  UNL1        0.0637
     37 H          -5.0847    1.7774    1.4098 H       1  UNL1        0.0655
     38 H          -6.4552   -1.0547   -1.4242 H       1  UNL1        0.0655
     39 H          -4.1493   -1.5823   -2.0144 H       1  UNL1        0.0637
     40 H           1.8535   -1.6709    0.8287 H       1  UNL1        0.0283
     41 H           2.9920   -1.7339   -0.5912 H       1  UNL1        0.0283
     42 H           4.1932   -1.1004    1.5688 H       1  UNL1        0.0273
     43 H           3.1521    0.4282    1.5265 H       1  UNL1        0.0273
@<TRIPOS>BOND
     1     1     2    1
     2     2     3    2
     3     2     4    1
     4     4     5    1
     5     5     6    1
     6     6     7    1
     7     7     8    1
     8     8     9   am
     9     9    10    2
    10     9    11   am
    11    11    12    1
    12    12    13   ar
    13    13    14   ar
    14    14    15   ar
    15    15    16    1
    16    16    17    1
    17    17    18    1
    18    17    19    1
    19    17    20    1
    20    15    21   ar
    21    21    22   ar
    22     7    23    1
    23    23    24    1
    24    24     4    1
    25    22    12   ar
    26     1    25    1
    27     1    26    1
    28     1    27    1
    29     4    28    1
    30     5    29    1
    31     5    30    1
    32     6    31    1
    33     6    32    1
    34     7    33    1
    35     8    34    1
    36    11    35    1
    37    13    36    1
    38    14    37    1
    39    21    38    1
    40    22    39    1
    41    23    40    1
    42    23    41    1
    43    24    42    1
    44    24    43    1
