
     RDKit          3D

 36 38  0  0  0  0  0  0  0  0999 V2000
   -4.8785    3.0071    0.4180 C   0  0  0  0  0  0  0  0  0  0  0  0
   -4.2725    1.8803    1.0289 O   0  0  0  0  0  0  0  0  0  0  0  0
   -3.0143    1.4446    0.6152 C   0  0  0  0  0  0  0  0  0  0  0  0
   -2.3599    2.1146   -0.3915 C   0  0  0  0  0  0  0  0  0  0  0  0
   -1.1105    1.6838   -0.8043 C   0  0  0  0  0  0  0  0  0  0  0  0
   -0.4865    2.3637   -1.7989 N   0  0  0  0  0  0  0  0  0  0  0  0
    0.7203    1.9383   -2.1892 C   0  0  0  0  0  0  0  0  0  0  0  0
    1.2822    0.8816   -1.6144 N   0  0  0  0  0  0  0  0  0  0  0  0
    0.7103    0.1751   -0.6293 C   0  0  0  0  0  0  0  0  0  0  0  0
    1.3735   -0.9301   -0.0738 N   0  0  0  0  0  0  0  0  0  0  0  0
    2.6168   -1.3805   -0.5527 C   0  0  0  0  0  0  0  0  0  0  0  0
    3.1340   -1.1933   -1.8054 C   0  0  0  0  0  0  0  0  0  0  0  0
    4.4052   -1.6846   -2.1421 C   0  0  0  0  0  0  0  0  0  0  0  0
    5.1895   -2.3716   -1.2438 C   0  0  0  0  0  0  0  0  0  0  0  0
    4.6537   -2.5520    0.0127 C   0  0  0  0  0  0  0  0  0  0  0  0
    5.7024   -3.5023    1.2929 Br  0  0  0  0  0  0  0  0  0  0  0  0
    3.4220   -2.0856    0.3670 C   0  0  0  0  0  0  0  0  0  0  0  0
   -0.5435    0.5870   -0.1971 C   0  0  0  0  0  0  0  0  0  0  0  0
   -1.2010   -0.0854    0.8134 C   0  0  0  0  0  0  0  0  0  0  0  0
   -2.4594    0.3503    1.2281 C   0  0  0  0  0  0  0  0  0  0  0  0
   -3.1270   -0.3298    2.2532 O   0  0  0  0  0  0  0  0  0  0  0  0
   -2.6133   -1.4409    2.9164 C   0  0  0  0  0  0  0  0  0  0  0  0
   -5.7824    3.3334    0.9458 H   0  0  0  0  0  0  0  0  0  0  0  0
   -4.1805    3.8768    0.3865 H   0  0  0  0  0  0  0  0  0  0  0  0
   -5.0887    2.6818   -0.6451 H   0  0  0  0  0  0  0  0  0  0  0  0
   -2.8079    2.9843   -0.8763 H   0  0  0  0  0  0  0  0  0  0  0  0
    1.2958    2.4263   -2.9828 H   0  0  0  0  0  0  0  0  0  0  0  0
    0.9239   -1.4374    0.7293 H   0  0  0  0  0  0  0  0  0  0  0  0
    2.5622   -0.6743   -2.5662 H   0  0  0  0  0  0  0  0  0  0  0  0
    4.7955   -1.5244   -3.1388 H   0  0  0  0  0  0  0  0  0  0  0  0
    6.1685   -2.7492   -1.5061 H   0  0  0  0  0  0  0  0  0  0  0  0
    3.0661   -2.2668    1.3781 H   0  0  0  0  0  0  0  0  0  0  0  0
   -0.7623   -0.9361    1.2813 H   0  0  0  0  0  0  0  0  0  0  0  0
   -1.5164   -1.2917    3.1336 H   0  0  0  0  0  0  0  0  0  0  0  0
   -2.7575   -2.3967    2.4091 H   0  0  0  0  0  0  0  0  0  0  0  0
   -3.0599   -1.5567    3.9482 H   0  0  0  0  0  0  0  0  0  0  0  0
  1  2  1  0
  2  3  1  0
  3  4  2  0
  4  5  1  0
  5  6  2  0
  6  7  1  0
  7  8  2  0
  8  9  1  0
  9 10  1  0
 10 11  1  0
 11 12  2  0
 12 13  1  0
 13 14  2  0
 14 15  1  0
 15 16  1  0
 15 17  2  0
  9 18  2  0
 18 19  1  0
 19 20  2  0
 20 21  1  0
 21 22  1  0
 20  3  1  0
 18  5  1  0
 17 11  1  0
  1 23  1  0
  1 24  1  0
  1 25  1  0
  4 26  1  0
  7 27  1  0
 10 28  1  0
 12 29  1  0
 13 30  1  0
 14 31  1  0
 17 32  1  0
 19 33  1  0
 22 34  1  0
 22 35  1  0
 22 36  1  0
M  END
$$$$
