@<TRIPOS>MOLECULE
*****
 36 38 0 0 0
SMALL
GASTEIGER

@<TRIPOS>ATOM
      1 C          -4.8785    3.0071    0.4180 C.3     1  UNL1        0.0790
      2 O          -4.2725    1.8803    1.0289 O.3     1  UNL1       -0.4914
      3 C          -3.0143    1.4446    0.6152 C.ar    1  UNL1        0.1635
      4 C          -2.3599    2.1146   -0.3915 C.ar    1  UNL1        0.0098
      5 C          -1.1105    1.6838   -0.8043 C.ar    1  UNL1        0.0797
      6 N          -0.4865    2.3637   -1.7989 N.ar    1  UNL1       -0.2352
      7 C           0.7203    1.9383   -2.1892 C.ar    1  UNL1        0.1187
      8 N           1.2822    0.8816   -1.6144 N.ar    1  UNL1       -0.2200
      9 C           0.7103    0.1751   -0.6293 C.ar    1  UNL1        0.1340
     10 N           1.3735   -0.9301   -0.0738 N.pl3   1  UNL1       -0.2988
     11 C           2.6168   -1.3805   -0.5527 C.ar    1  UNL1        0.0334
     12 C           3.1340   -1.1933   -1.8054 C.ar    1  UNL1       -0.0404
     13 C           4.4052   -1.6846   -2.1421 C.ar    1  UNL1       -0.0590
     14 C           5.1895   -2.3716   -1.2438 C.ar    1  UNL1       -0.0476
     15 C           4.6537   -2.5520    0.0127 C.ar    1  UNL1        0.0196
     16 BR          5.7024   -3.5023    1.2929 Br      1  UNL1       -0.0502
     17 C           3.4220   -2.0856    0.3670 C.ar    1  UNL1       -0.0265
     18 C          -0.5435    0.5870   -0.1971 C.ar    1  UNL1        0.0441
     19 C          -1.2010   -0.0854    0.8134 C.ar    1  UNL1       -0.0038
     20 C          -2.4594    0.3503    1.2281 C.ar    1  UNL1        0.1623
     21 O          -3.1270   -0.3298    2.2532 O.3     1  UNL1       -0.4914
     22 C          -2.6133   -1.4409    2.9164 C.3     1  UNL1        0.0790
     23 H          -5.7824    3.3334    0.9458 H       1  UNL1        0.0660
     24 H          -4.1805    3.8768    0.3865 H       1  UNL1        0.0660
     25 H          -5.0887    2.6818   -0.6451 H       1  UNL1        0.0660
     26 H          -2.8079    2.9843   -0.8763 H       1  UNL1        0.0677
     27 H           1.2958    2.4263   -2.9828 H       1  UNL1        0.1048
     28 H           0.9239   -1.4374    0.7293 H       1  UNL1        0.1536
     29 H           2.5622   -0.6743   -2.5662 H       1  UNL1        0.0636
     30 H           4.7955   -1.5244   -3.1388 H       1  UNL1        0.0618
     31 H           6.1685   -2.7492   -1.5061 H       1  UNL1        0.0629
     32 H           3.0661   -2.2668    1.3781 H       1  UNL1        0.0647
     33 H          -0.7623   -0.9361    1.2813 H       1  UNL1        0.0663
     34 H          -1.5164   -1.2917    3.1336 H       1  UNL1        0.0660
     35 H          -2.7575   -2.3967    2.4091 H       1  UNL1        0.0660
     36 H          -3.0599   -1.5567    3.9482 H       1  UNL1        0.0660
@<TRIPOS>BOND
     1     1     2    1
     2     2     3    1
     3     3     4   ar
     4     4     5   ar
     5     5     6   ar
     6     6     7   ar
     7     7     8   ar
     8     8     9   ar
     9     9    10    1
    10    10    11    1
    11    11    12   ar
    12    12    13   ar
    13    13    14   ar
    14    14    15   ar
    15    15    16    1
    16    15    17   ar
    17     9    18   ar
    18    18    19   ar
    19    19    20   ar
    20    20    21    1
    21    21    22    1
    22    20     3   ar
    23    18     5   ar
    24    17    11   ar
    25     1    23    1
    26     1    24    1
    27     1    25    1
    28     4    26    1
    29     7    27    1
    30    10    28    1
    31    12    29    1
    32    13    30    1
    33    14    31    1
    34    17    32    1
    35    19    33    1
    36    22    34    1
    37    22    35    1
    38    22    36    1
