@<TRIPOS>MOLECULE
*****
 19 19 0 0 0
SMALL
GASTEIGER

@<TRIPOS>ATOM
      1 C          -2.0660    0.8333    0.0877 C.3     1  UNL1        0.0117
      2 N          -0.6220    0.6707    0.0363 N.ar    1  UNL1       -0.3506
      3 C           0.1169    1.7889   -0.0554 C.ar    1  UNL1        0.0083
      4 C           1.4886    1.7001   -0.1078 C.ar    1  UNL1        0.0049
      5 C           2.1308    0.4803   -0.0682 C.ar    1  UNL1        0.2231
      6 O           3.3779    0.3757   -0.1146 O.2     1  UNL1       -0.2839
      7 C           1.3703   -0.6622    0.0256 C.ar    1  UNL1        0.1831
      8 O           1.9086   -1.9585    0.0737 O.3     1  UNL1       -0.5021
      9 C          -0.0101   -0.5280    0.0759 C.ar    1  UNL1        0.0610
     10 C          -0.8396   -1.7373    0.1763 C.3     1  UNL1       -0.0206
     11 H          -2.3458    1.8077    0.5147 H       1  UNL1        0.0456
     12 H          -2.5631   -0.0180    0.6058 H       1  UNL1        0.0456
     13 H          -2.4004    0.7289   -0.9767 H       1  UNL1        0.0456
     14 H          -0.2899    2.7711   -0.0918 H       1  UNL1        0.0810
     15 H           2.1190    2.5663   -0.1811 H       1  UNL1        0.0671
     16 H           1.9002   -2.5655   -0.7469 H       1  UNL1        0.2924
     17 H          -1.5229   -1.8953   -0.6817 H       1  UNL1        0.0293
     18 H          -0.2312   -2.6505    0.3504 H       1  UNL1        0.0293
     19 H          -1.5215   -1.7077    1.0778 H       1  UNL1        0.0293
@<TRIPOS>BOND
     1     1     2    1
     2     2     3   ar
     3     3     4   ar
     4     4     5   ar
     5     5     6    2
     6     5     7   ar
     7     7     8    1
     8     7     9   ar
     9     9    10    1
    10     9     2   ar
    11     1    11    1
    12     1    12    1
    13     1    13    1
    14     3    14    1
    15     4    15    1
    16     8    16    1
    17    10    17    1
    18    10    18    1
    19    10    19    1
