
     RDKit          3D

 31 33  0  0  0  0  0  0  0  0999 V2000
   -3.8716    0.3337   -1.9154 N   0  0  0  0  0  0  0  0  0  0  0  0
   -3.3764   -0.0178   -0.6295 C   0  0  0  0  0  0  0  0  0  0  0  0
   -4.2983   -0.3297    0.3471 C   0  0  0  0  0  0  0  0  0  0  0  0
   -3.8318   -0.6782    1.6190 C   0  0  0  0  0  0  0  0  0  0  0  0
   -2.4794   -0.7115    1.8979 C   0  0  0  0  0  0  0  0  0  0  0  0
   -1.5411   -0.3983    0.9185 C   0  0  0  0  0  0  0  0  0  0  0  0
   -2.0168   -0.0567   -0.3300 C   0  0  0  0  0  0  0  0  0  0  0  0
   -0.9298    0.2476   -1.2604 C   0  0  0  0  0  0  0  0  0  0  0  0
   -0.9257    0.5901   -2.4544 O   0  0  0  0  0  0  0  0  0  0  0  0
    0.2713    0.0664   -0.4837 N   0  0  0  0  0  0  0  0  0  0  0  0
    1.6729    0.2190   -0.8469 C   0  0  0  0  0  0  0  0  0  0  0  0
    2.2570    1.2997   -0.0001 C   0  0  0  0  0  0  0  0  0  0  0  0
    3.7499    1.1847    0.1896 C   0  0  0  0  0  0  0  0  0  0  0  0
    4.1558   -0.1345    0.7162 C   0  0  0  0  0  0  0  0  0  0  0  0
    5.0630   -0.2183    1.5980 O   0  0  0  0  0  0  0  0  0  0  0  0
    3.4712   -1.2637    0.1735 N   0  0  0  0  0  0  0  0  0  0  0  0
    2.3979   -1.0706   -0.7289 C   0  0  0  0  0  0  0  0  0  0  0  0
    2.0060   -2.0005   -1.4826 O   0  0  0  0  0  0  0  0  0  0  0  0
   -0.0718   -0.3264    0.8448 C   0  0  0  0  0  0  0  0  0  0  0  0
    0.6033   -0.5946    1.8616 O   0  0  0  0  0  0  0  0  0  0  0  0
   -3.5381   -0.3070   -2.6884 H   0  0  0  0  0  0  0  0  0  0  0  0
   -4.4986    1.1721   -1.9487 H   0  0  0  0  0  0  0  0  0  0  0  0
   -5.3424   -0.3038    0.1309 H   0  0  0  0  0  0  0  0  0  0  0  0
   -4.5529   -0.9304    2.4116 H   0  0  0  0  0  0  0  0  0  0  0  0
   -2.0914   -0.9816    2.8868 H   0  0  0  0  0  0  0  0  0  0  0  0
    1.7662    0.5272   -1.9104 H   0  0  0  0  0  0  0  0  0  0  0  0
    2.0991    2.2689   -0.5181 H   0  0  0  0  0  0  0  0  0  0  0  0
    1.7761    1.2702    1.0144 H   0  0  0  0  0  0  0  0  0  0  0  0
    4.2552    1.4017   -0.7932 H   0  0  0  0  0  0  0  0  0  0  0  0
    4.0400    1.9666    0.9227 H   0  0  0  0  0  0  0  0  0  0  0  0
    3.7813   -2.2245    0.4579 H   0  0  0  0  0  0  0  0  0  0  0  0
  1  2  1  0
  2  3  2  0
  3  4  1  0
  4  5  2  0
  5  6  1  0
  6  7  2  0
  7  8  1  0
  8  9  2  0
  8 10  1  0
 10 11  1  0
 11 12  1  0
 12 13  1  0
 13 14  1  0
 14 15  2  0
 14 16  1  0
 16 17  1  0
 17 18  2  0
 10 19  1  0
 19 20  2  0
  7  2  1  0
 17 11  1  0
 19  6  1  0
  1 21  1  0
  1 22  1  0
  3 23  1  0
  4 24  1  0
  5 25  1  0
 11 26  1  0
 12 27  1  0
 12 28  1  0
 13 29  1  0
 13 30  1  0
 16 31  1  0
M  END
$$$$
