
     RDKit          3D

 68 73  0  0  0  0  0  0  0  0999 V2000
    1.7434   -0.9065    1.6496 C   0  0  0  0  0  0  0  0  0  0  0  0
    0.7767   -0.1240    0.8105 C   0  0  0  0  0  0  0  0  0  0  0  0
    0.9328    1.3800    0.9845 C   0  0  0  0  0  0  0  0  0  0  0  0
   -0.5903   -0.4299    1.3283 C   0  0  0  0  0  0  0  0  0  0  0  0
   -0.8246   -0.7164    2.5236 O   0  0  0  0  0  0  0  0  0  0  0  0
   -1.5060   -0.3265    0.2196 N   0  0  0  0  0  0  0  0  0  0  0  0
   -2.9140   -0.3297    0.3987 C   0  0  1  0  0  0  0  0  0  0  0  0
   -3.5595    0.9978    0.0315 C   0  0  0  0  0  0  0  0  0  0  0  0
   -3.8599    1.1224   -1.4286 C   0  0  0  0  0  0  0  0  0  0  0  0
   -4.7520    0.0196   -1.8927 C   0  0  0  0  0  0  0  0  0  0  0  0
   -4.0371   -1.2951   -1.6583 C   0  0  0  0  0  0  0  0  0  0  0  0
   -3.6822   -1.4401   -0.2209 C   0  0  0  0  0  0  0  0  0  0  0  0
   -5.0350   -1.4679    0.5247 C   0  0  0  0  0  0  0  0  0  0  0  0
   -5.7135   -0.1320    0.3630 C   0  0  2  0  0  0  0  0  0  0  0  0
   -6.9454   -0.1110    1.1714 C   0  0  0  0  0  0  0  0  0  0  0  0
   -7.7508    1.0467    1.1757 N   0  0  0  0  0  0  0  0  0  0  0  0
   -7.2848   -1.0984    1.8491 O   0  0  0  0  0  0  0  0  0  0  0  0
   -6.0345    0.0521   -1.1049 C   0  0  0  0  0  0  0  0  0  0  0  0
   -4.8719    1.0397    0.7899 C   0  0  0  0  0  0  0  0  0  0  0  0
   -0.7224   -0.2193   -1.0155 C   0  0  0  0  0  0  0  0  0  0  0  0
    0.7034   -0.5354   -0.6059 C   0  0  0  0  0  0  0  0  0  0  0  0
    1.6851    0.1590   -1.5378 C   0  0  0  0  0  0  0  0  0  0  0  0
    2.9673    0.0401   -1.3524 O   0  0  0  0  0  0  0  0  0  0  0  0
    4.1547    0.0938   -0.8256 C   0  0  0  0  0  0  0  0  0  0  0  0
    4.5117    0.6166    0.4075 C   0  0  0  0  0  0  0  0  0  0  0  0
    5.8168    0.6025    0.8350 C   0  0  0  0  0  0  0  0  0  0  0  0
    6.8343    0.0783    0.0799 C   0  0  0  0  0  0  0  0  0  0  0  0
    8.1844    0.0504    0.4955 N   0  0  0  0  0  0  0  0  0  0  0  0
    9.2704   -0.0153   -0.2938 C   0  0  0  0  0  0  0  0  0  0  0  0
   10.3970   -0.0225    0.4741 C   0  0  0  0  0  0  0  0  0  0  0  0
    9.9867    0.0399    1.7508 N   0  0  0  0  0  0  0  0  0  0  0  0
    8.6492    0.0843    1.7716 C   0  0  0  0  0  0  0  0  0  0  0  0
    6.4980   -0.4445   -1.1468 C   0  0  0  0  0  0  0  0  0  0  0  0
    5.2166   -0.4407   -1.5875 C   0  0  0  0  0  0  0  0  0  0  0  0
    1.2084   -1.6811    2.2325 H   0  0  0  0  0  0  0  0  0  0  0  0
    2.1642   -0.1956    2.4085 H   0  0  0  0  0  0  0  0  0  0  0  0
    2.5360   -1.4000    1.0554 H   0  0  0  0  0  0  0  0  0  0  0  0
   -0.0640    1.8407    0.7717 H   0  0  0  0  0  0  0  0  0  0  0  0
    1.1998    1.6545    2.0062 H   0  0  0  0  0  0  0  0  0  0  0  0
    1.6098    1.7564    0.2183 H   0  0  0  0  0  0  0  0  0  0  0  0
   -3.1256   -0.4201    1.5095 H   0  0  0  0  0  0  0  0  0  0  0  0
   -2.8640    1.7848    0.3406 H   0  0  0  0  0  0  0  0  0  0  0  0
   -2.9793    1.1814   -2.0740 H   0  0  0  0  0  0  0  0  0  0  0  0
   -4.3977    2.1008   -1.5516 H   0  0  0  0  0  0  0  0  0  0  0  0
   -4.9927    0.1543   -2.9492 H   0  0  0  0  0  0  0  0  0  0  0  0
   -3.2568   -1.4691   -2.3892 H   0  0  0  0  0  0  0  0  0  0  0  0
   -4.8124   -2.0987   -1.8639 H   0  0  0  0  0  0  0  0  0  0  0  0
   -3.1947   -2.4199   -0.0523 H   0  0  0  0  0  0  0  0  0  0  0  0
   -5.6651   -2.2155    0.0083 H   0  0  0  0  0  0  0  0  0  0  0  0
   -4.8761   -1.7535    1.5738 H   0  0  0  0  0  0  0  0  0  0  0  0
   -7.5925    1.8640    1.8188 H   0  0  0  0  0  0  0  0  0  0  0  0
   -8.5521    1.1349    0.5244 H   0  0  0  0  0  0  0  0  0  0  0  0
   -6.4922    1.0668   -1.1983 H   0  0  0  0  0  0  0  0  0  0  0  0
   -6.7360   -0.7296   -1.4132 H   0  0  0  0  0  0  0  0  0  0  0  0
   -5.4032    1.9526    0.5290 H   0  0  0  0  0  0  0  0  0  0  0  0
   -4.6124    0.9956    1.8728 H   0  0  0  0  0  0  0  0  0  0  0  0
   -0.7074    0.8169   -1.4042 H   0  0  0  0  0  0  0  0  0  0  0  0
   -1.0461   -0.8970   -1.8023 H   0  0  0  0  0  0  0  0  0  0  0  0
    0.8775   -1.6419   -0.7143 H   0  0  0  0  0  0  0  0  0  0  0  0
    1.3054    1.2259   -1.7228 H   0  0  0  0  0  0  0  0  0  0  0  0
    1.4063   -0.3041   -2.5638 H   0  0  0  0  0  0  0  0  0  0  0  0
    3.7472    1.0384    1.0195 H   0  0  0  0  0  0  0  0  0  0  0  0
    6.1043    1.0132    1.8066 H   0  0  0  0  0  0  0  0  0  0  0  0
    9.2433   -0.0566   -1.3913 H   0  0  0  0  0  0  0  0  0  0  0  0
   11.4214   -0.0694    0.1211 H   0  0  0  0  0  0  0  0  0  0  0  0
    7.9899    0.1382    2.6163 H   0  0  0  0  0  0  0  0  0  0  0  0
    7.3003   -0.8670   -1.7620 H   0  0  0  0  0  0  0  0  0  0  0  0
    5.0121   -0.8676   -2.5647 H   0  0  0  0  0  0  0  0  0  0  0  0
  1  2  1  0
  2  3  1  0
  2  4  1  0
  4  5  2  0
  4  6  1  0
  6  7  1  0
  7  8  1  0
  8  9  1  0
  9 10  1  0
 10 11  1  0
 11 12  1  0
 12 13  1  0
 13 14  1  0
 14 15  1  1
 15 16  1  0
 15 17  2  0
 14 18  1  0
 14 19  1  0
  6 20  1  0
 20 21  1  0
 21 22  1  0
 22 23  1  0
 23 24  1  0
 24 25  2  0
 25 26  1  0
 26 27  2  0
 27 28  1  0
 28 29  1  0
 29 30  2  0
 30 31  1  0
 31 32  2  0
 27 33  1  0
 33 34  2  0
 21  2  1  0
 34 24  1  0
 12  7  1  0
 32 28  1  0
 19  8  1  0
 18 10  1  0
  1 35  1  0
  1 36  1  0
  1 37  1  0
  3 38  1  0
  3 39  1  0
  3 40  1  0
  7 41  1  1
  8 42  1  0
  9 43  1  0
  9 44  1  0
 10 45  1  0
 11 46  1  0
 11 47  1  0
 12 48  1  0
 13 49  1  0
 13 50  1  0
 16 51  1  0
 16 52  1  0
 18 53  1  0
 18 54  1  0
 19 55  1  0
 19 56  1  0
 20 57  1  0
 20 58  1  0
 21 59  1  0
 22 60  1  0
 22 61  1  0
 25 62  1  0
 26 63  1  0
 29 64  1  0
 30 65  1  0
 32 66  1  0
 33 67  1  0
 34 68  1  0
M  END
$$$$
