@<TRIPOS>MOLECULE
*****
 68 73 0 0 0
SMALL
GASTEIGER

@<TRIPOS>ATOM
      1 C           1.7434   -0.9065    1.6496 C.3     1  UNL1       -0.0511
      2 C           0.7767   -0.1240    0.8105 C.3     1  UNL1        0.0489
      3 C           0.9328    1.3800    0.9845 C.3     1  UNL1       -0.0511
      4 C          -0.5903   -0.4299    1.3283 C.2     1  UNL1        0.2219
      5 O          -0.8246   -0.7164    2.5236 O.2     1  UNL1       -0.2750
      6 N          -1.5060   -0.3265    0.2196 N.am    1  UNL1       -0.2970
      7 C          -2.9140   -0.3297    0.3987 C.3     1  UNL1        0.0317
      8 C          -3.5595    0.9978    0.0315 C.3     1  UNL1       -0.0209
      9 C          -3.8599    1.1224   -1.4286 C.3     1  UNL1       -0.0456
     10 C          -4.7520    0.0196   -1.8927 C.3     1  UNL1       -0.0395
     11 C          -4.0371   -1.2951   -1.6583 C.3     1  UNL1       -0.0456
     12 C          -3.6822   -1.4401   -0.2209 C.3     1  UNL1       -0.0209
     13 C          -5.0350   -1.4679    0.5247 C.3     1  UNL1       -0.0345
     14 C          -5.7135   -0.1320    0.3630 C.3     1  UNL1        0.0476
     15 C          -6.9454   -0.1110    1.1714 C.2     1  UNL1        0.2167
     16 N          -7.7508    1.0467    1.1757 N.am    1  UNL1       -0.3289
     17 O          -7.2848   -1.0984    1.8491 O.2     1  UNL1       -0.2754
     18 C          -6.0345    0.0521   -1.1049 C.3     1  UNL1       -0.0362
     19 C          -4.8719    1.0397    0.7899 C.3     1  UNL1       -0.0345
     20 C          -0.7224   -0.2193   -1.0155 C.3     1  UNL1        0.0219
     21 C           0.7034   -0.5354   -0.6059 C.3     1  UNL1        0.0224
     22 C           1.6851    0.1590   -1.5378 C.3     1  UNL1        0.0948
     23 O           2.9673    0.0401   -1.3524 O.3     1  UNL1       -0.4916
     24 C           4.1547    0.0938   -0.8256 C.ar    1  UNL1        0.1206
     25 C           4.5117    0.6166    0.4075 C.ar    1  UNL1       -0.0180
     26 C           5.8168    0.6025    0.8350 C.ar    1  UNL1       -0.0344
     27 C           6.8343    0.0783    0.0799 C.ar    1  UNL1        0.0477
     28 N           8.1844    0.0504    0.4955 N.ar    1  UNL1       -0.3058
     29 C           9.2704   -0.0153   -0.2938 C.ar    1  UNL1        0.0293
     30 C          10.3970   -0.0225    0.4741 C.ar    1  UNL1        0.0458
     31 N           9.9867    0.0399    1.7508 N.ar    1  UNL1       -0.2437
     32 C           8.6492    0.0843    1.7716 C.ar    1  UNL1        0.1004
     33 C           6.4980   -0.4445   -1.1468 C.ar    1  UNL1       -0.0344
     34 C           5.2166   -0.4407   -1.5875 C.ar    1  UNL1       -0.0180
     35 H           1.2084   -1.6811    2.2325 H       1  UNL1        0.0240
     36 H           2.1642   -0.1956    2.4085 H       1  UNL1        0.0240
     37 H           2.5360   -1.4000    1.0554 H       1  UNL1        0.0240
     38 H          -0.0640    1.8407    0.7717 H       1  UNL1        0.0240
     39 H           1.1998    1.6545    2.0062 H       1  UNL1        0.0240
     40 H           1.6098    1.7564    0.2183 H       1  UNL1        0.0240
     41 H          -3.1256   -0.4201    1.5095 H       1  UNL1        0.0506
     42 H          -2.8640    1.7848    0.3406 H       1  UNL1        0.0319
     43 H          -2.9793    1.1814   -2.0740 H       1  UNL1        0.0271
     44 H          -4.3977    2.1008   -1.5516 H       1  UNL1        0.0271
     45 H          -4.9927    0.1543   -2.9492 H       1  UNL1        0.0301
     46 H          -3.2568   -1.4691   -2.3892 H       1  UNL1        0.0271
     47 H          -4.8124   -2.0987   -1.8639 H       1  UNL1        0.0271
     48 H          -3.1947   -2.4199   -0.0523 H       1  UNL1        0.0319
     49 H          -5.6651   -2.2155    0.0083 H       1  UNL1        0.0278
     50 H          -4.8761   -1.7535    1.5738 H       1  UNL1        0.0278
     51 H          -7.5925    1.8640    1.8188 H       1  UNL1        0.1449
     52 H          -8.5521    1.1349    0.5244 H       1  UNL1        0.1449
     53 H          -6.4922    1.0668   -1.1983 H       1  UNL1        0.0278
     54 H          -6.7360   -0.7296   -1.4132 H       1  UNL1        0.0278
     55 H          -5.4032    1.9526    0.5290 H       1  UNL1        0.0278
     56 H          -4.6124    0.9956    1.8728 H       1  UNL1        0.0278
     57 H          -0.7074    0.8169   -1.4042 H       1  UNL1        0.0469
     58 H          -1.0461   -0.8970   -1.8023 H       1  UNL1        0.0469
     59 H           0.8775   -1.6419   -0.7143 H       1  UNL1        0.0359
     60 H           1.3054    1.2259   -1.7228 H       1  UNL1        0.0700
     61 H           1.4063   -0.3041   -2.5638 H       1  UNL1        0.0700
     62 H           3.7472    1.0384    1.0195 H       1  UNL1        0.0655
     63 H           6.1043    1.0132    1.8066 H       1  UNL1        0.0639
     64 H           9.2433   -0.0566   -1.3913 H       1  UNL1        0.0829
     65 H          11.4214   -0.0694    0.1211 H       1  UNL1        0.0845
     66 H           7.9899    0.1382    2.6163 H       1  UNL1        0.1032
     67 H           7.3003   -0.8670   -1.7620 H       1  UNL1        0.0639
     68 H           5.0121   -0.8676   -2.5647 H       1  UNL1        0.0655
@<TRIPOS>BOND
     1     1     2    1
     2     2     3    1
     3     2     4    1
     4     4     5    2
     5     4     6   am
     6     6     7    1
     7     7     8    1
     8     8     9    1
     9     9    10    1
    10    10    11    1
    11    11    12    1
    12    12    13    1
    13    13    14    1
    14    14    15    1
    15    15    16   am
    16    15    17    2
    17    14    18    1
    18    14    19    1
    19     6    20    1
    20    20    21    1
    21    21    22    1
    22    22    23    1
    23    23    24    1
    24    24    25   ar
    25    25    26   ar
    26    26    27   ar
    27    27    28    1
    28    28    29   ar
    29    29    30   ar
    30    30    31   ar
    31    31    32   ar
    32    27    33   ar
    33    33    34   ar
    34    21     2    1
    35    34    24   ar
    36    12     7    1
    37    32    28   ar
    38    19     8    1
    39    18    10    1
    40     1    35    1
    41     1    36    1
    42     1    37    1
    43     3    38    1
    44     3    39    1
    45     3    40    1
    46     7    41    1
    47     8    42    1
    48     9    43    1
    49     9    44    1
    50    10    45    1
    51    11    46    1
    52    11    47    1
    53    12    48    1
    54    13    49    1
    55    13    50    1
    56    16    51    1
    57    16    52    1
    58    18    53    1
    59    18    54    1
    60    19    55    1
    61    19    56    1
    62    20    57    1
    63    20    58    1
    64    21    59    1
    65    22    60    1
    66    22    61    1
    67    25    62    1
    68    26    63    1
    69    29    64    1
    70    30    65    1
    71    32    66    1
    72    33    67    1
    73    34    68    1
