@<TRIPOS>MOLECULE
*****
 38 37 0 0 0
SMALL
GASTEIGER

@<TRIPOS>ATOM
      1 C          -2.8897    3.6711    1.1858 C.3     1  UNL1       -0.0306
      2 C          -3.6946    2.7707    0.2503 C.3     1  UNL1        0.0896
      3 O          -3.0061    1.5849   -0.0409 O.3     1  UNL1       -0.4649
      4 C          -1.7509    1.5154   -0.6321 C.2     1  UNL1        0.3087
      5 O          -1.4026    2.6782   -0.8292 O.2     1  UNL1       -0.2508
      6 C          -1.1831    0.1421   -0.8590 C.3     1  UNL1        0.0674
      7 C          -0.7053   -0.4168    0.4466 C.3     1  UNL1        0.1206
      8 S           0.5681    0.5303    1.2687 S.3     1  UNL1       -0.0586
      9 P           2.3997    0.5987    0.2841 P.3     1  UNL1        0.2294
     10 S           3.6427    0.5525    1.5149 S.2     1  UNL1        0.0032
     11 O           2.6371    1.9711   -0.6364 O.3     1  UNL1       -0.3267
     12 C           3.7143    2.7069   -0.1723 C.3     1  UNL1        0.0441
     13 O           2.6715   -0.7938   -0.6617 O.3     1  UNL1       -0.3267
     14 C           4.0400   -0.9310   -0.9277 C.3     1  UNL1        0.0441
     15 C          -0.3065   -1.8535    0.2837 C.2     1  UNL1        0.3212
     16 O           0.6691   -2.6263    0.4129 O.2     1  UNL1       -0.2496
     17 O          -1.4218   -2.5604   -0.1728 O.3     1  UNL1       -0.4641
     18 C          -1.3916   -3.9662   -0.4304 C.3     1  UNL1        0.0897
     19 C          -1.0642   -4.7503    0.7999 C.3     1  UNL1       -0.0306
     20 H          -1.9095    3.2055    1.3687 H       1  UNL1        0.0262
     21 H          -2.7434    4.6852    0.7085 H       1  UNL1        0.0262
     22 H          -3.4267    3.9035    2.1283 H       1  UNL1        0.0262
     23 H          -4.1171    3.2991   -0.6147 H       1  UNL1        0.0694
     24 H          -4.5733    2.4437    0.8909 H       1  UNL1        0.0694
     25 H          -2.0236   -0.4823   -1.2144 H       1  UNL1        0.0394
     26 H          -0.4218    0.1453   -1.6565 H       1  UNL1        0.0394
     27 H          -1.5902   -0.4169    1.1521 H       1  UNL1        0.0537
     28 H           3.6641    2.7796    0.9462 H       1  UNL1        0.0528
     29 H           4.6882    2.2442   -0.4327 H       1  UNL1        0.0528
     30 H           3.7459    3.7423   -0.5392 H       1  UNL1        0.0528
     31 H           4.4107   -0.2024   -1.6718 H       1  UNL1        0.0528
     32 H           4.5825   -0.7796    0.0287 H       1  UNL1        0.0528
     33 H           4.3089   -1.9442   -1.2806 H       1  UNL1        0.0528
     34 H          -0.7671   -4.1850   -1.3079 H       1  UNL1        0.0694
     35 H          -2.4472   -4.2170   -0.7132 H       1  UNL1        0.0694
     36 H          -0.3743   -5.5774    0.4843 H       1  UNL1        0.0262
     37 H          -1.9771   -5.2825    1.2042 H       1  UNL1        0.0262
     38 H          -0.5553   -4.1847    1.6021 H       1  UNL1        0.0262
@<TRIPOS>BOND
     1     1     2    1
     2     2     3    1
     3     3     4    1
     4     4     5    2
     5     4     6    1
     6     6     7    1
     7     7     8    1
     8     8     9    1
     9     9    10    2
    10     9    11    1
    11    11    12    1
    12     9    13    1
    13    13    14    1
    14     7    15    1
    15    15    16    2
    16    15    17    1
    17    17    18    1
    18    18    19    1
    19     1    20    1
    20     1    21    1
    21     1    22    1
    22     2    23    1
    23     2    24    1
    24     6    25    1
    25     6    26    1
    26     7    27    1
    27    12    28    1
    28    12    29    1
    29    12    30    1
    30    14    31    1
    31    14    32    1
    32    14    33    1
    33    18    34    1
    34    18    35    1
    35    19    36    1
    36    19    37    1
    37    19    38    1
