@<TRIPOS>MOLECULE
*****
 47 49 0 0 0
SMALL
GASTEIGER

@<TRIPOS>ATOM
      1 C           5.9955    3.7894    0.1387 C.3     1  UNL1       -0.0155
      2 N           4.9329    2.8310    0.0504 N.3     1  UNL1       -0.3150
      3 C           5.3617    1.4692    0.1872 C.3     1  UNL1        0.0210
      4 C           4.1308    0.6122    0.0703 C.ar    1  UNL1       -0.0335
      5 C           3.7341    0.1558   -1.1680 C.ar    1  UNL1       -0.0566
      6 C           2.6049   -0.6227   -1.2241 C.ar    1  UNL1       -0.0493
      7 C           1.8470   -0.9708   -0.0996 C.ar    1  UNL1        0.0370
      8 C           0.6720   -1.7984   -0.2745 C.2     1  UNL1        0.2483
      9 O           0.3499   -2.1932   -1.4410 O.2     1  UNL1       -0.2699
     10 N          -0.1426   -2.1913    0.8089 N.am    1  UNL1       -0.2808
     11 C          -1.3020   -3.0172    0.5741 C.ar    1  UNL1        0.0459
     12 C          -1.1865   -4.3784    0.6092 C.ar    1  UNL1       -0.0384
     13 C          -2.2529   -5.2264    0.3939 C.ar    1  UNL1       -0.0416
     14 C          -3.4639   -4.6287    0.1368 C.ar    1  UNL1        0.0418
     15 CL         -4.8430   -5.6688   -0.1421 Cl      1  UNL1       -0.0835
     16 C          -3.6052   -3.2472    0.0961 C.ar    1  UNL1       -0.0295
     17 C          -2.5287   -2.4381    0.3138 C.ar    1  UNL1        0.0596
     18 C          -2.6407   -0.9708    0.2786 C.2     1  UNL1        0.2511
     19 O          -1.5959   -0.2698    0.4905 O.2     1  UNL1       -0.2697
     20 N          -3.8587   -0.3310    0.0197 N.am    1  UNL1       -0.2663
     21 C          -4.0704    1.0679   -0.0358 C.ar    1  UNL1        0.1252
     22 C          -3.1296    2.0170    0.1525 C.ar    1  UNL1       -0.0201
     23 C          -3.4505    3.3786    0.0746 C.ar    1  UNL1       -0.0387
     24 C          -4.7428    3.7662   -0.1977 C.ar    1  UNL1        0.0592
     25 CL         -5.2040    5.4669   -0.3075 Cl      1  UNL1       -0.0820
     26 C          -5.6754    2.7893   -0.3840 C.ar    1  UNL1        0.0480
     27 N          -5.3300    1.5131   -0.3017 N.ar    1  UNL1       -0.2387
     28 C           2.2677   -0.5031    1.1047 C.ar    1  UNL1       -0.0493
     29 C           3.4146    0.2919    1.1904 C.ar    1  UNL1       -0.0566
     30 H           7.0017    3.3475    0.0420 H       1  UNL1        0.0388
     31 H           5.9346    4.3586    1.1066 H       1  UNL1        0.0388
     32 H           5.8495    4.5435   -0.6613 H       1  UNL1        0.0388
     33 H           4.1007    3.0698    0.6061 H       1  UNL1        0.1219
     34 H           5.7968    1.2398    1.1747 H       1  UNL1        0.0473
     35 H           6.0441    1.2193   -0.6325 H       1  UNL1        0.0473
     36 H           4.3250    0.4325   -2.0095 H       1  UNL1        0.0621
     37 H           2.2871   -0.9844   -2.1897 H       1  UNL1        0.0625
     38 H           0.1058   -1.8778    1.7687 H       1  UNL1        0.1552
     39 H          -0.2112   -4.8396    0.8161 H       1  UNL1        0.0637
     40 H          -2.1443   -6.2949    0.4252 H       1  UNL1        0.0633
     41 H          -4.5971   -2.8834   -0.1135 H       1  UNL1        0.0640
     42 H          -4.7088   -0.9692   -0.1522 H       1  UNL1        0.1566
     43 H          -2.0963    1.8240    0.3693 H       1  UNL1        0.0652
     44 H          -2.6888    4.1277    0.2272 H       1  UNL1        0.0634
     45 H          -6.7049    3.0993   -0.6010 H       1  UNL1        0.0845
     46 H           1.7228   -0.7364    2.0263 H       1  UNL1        0.0625
     47 H           3.6948    0.6313    2.1783 H       1  UNL1        0.0621
@<TRIPOS>BOND
     1     1     2    1
     2     2     3    1
     3     3     4    1
     4     4     5   ar
     5     5     6   ar
     6     6     7   ar
     7     7     8    1
     8     8     9    2
     9     8    10   am
    10    10    11    1
    11    11    12   ar
    12    12    13   ar
    13    13    14   ar
    14    14    15    1
    15    14    16   ar
    16    16    17   ar
    17    17    18    1
    18    18    19    2
    19    18    20   am
    20    20    21    1
    21    21    22   ar
    22    22    23   ar
    23    23    24   ar
    24    24    25    1
    25    24    26   ar
    26    26    27   ar
    27     7    28   ar
    28    28    29   ar
    29    29     4   ar
    30    17    11   ar
    31    27    21   ar
    32     1    30    1
    33     1    31    1
    34     1    32    1
    35     2    33    1
    36     3    34    1
    37     3    35    1
    38     5    36    1
    39     6    37    1
    40    10    38    1
    41    12    39    1
    42    13    40    1
    43    16    41    1
    44    20    42    1
    45    22    43    1
    46    23    44    1
    47    26    45    1
    48    28    46    1
    49    29    47    1
