
     RDKit          3D

 47 49  0  0  0  0  0  0  0  0999 V2000
    5.9955    3.7894    0.1387 C   0  0  0  0  0  0  0  0  0  0  0  0
    4.9329    2.8310    0.0504 N   0  0  0  0  0  0  0  0  0  0  0  0
    5.3617    1.4692    0.1872 C   0  0  0  0  0  0  0  0  0  0  0  0
    4.1308    0.6122    0.0703 C   0  0  0  0  0  0  0  0  0  0  0  0
    3.7341    0.1558   -1.1680 C   0  0  0  0  0  0  0  0  0  0  0  0
    2.6049   -0.6227   -1.2241 C   0  0  0  0  0  0  0  0  0  0  0  0
    1.8470   -0.9708   -0.0996 C   0  0  0  0  0  0  0  0  0  0  0  0
    0.6720   -1.7984   -0.2745 C   0  0  0  0  0  0  0  0  0  0  0  0
    0.3499   -2.1932   -1.4410 O   0  0  0  0  0  0  0  0  0  0  0  0
   -0.1426   -2.1913    0.8089 N   0  0  0  0  0  0  0  0  0  0  0  0
   -1.3020   -3.0172    0.5741 C   0  0  0  0  0  0  0  0  0  0  0  0
   -1.1865   -4.3784    0.6092 C   0  0  0  0  0  0  0  0  0  0  0  0
   -2.2529   -5.2264    0.3939 C   0  0  0  0  0  0  0  0  0  0  0  0
   -3.4639   -4.6287    0.1368 C   0  0  0  0  0  0  0  0  0  0  0  0
   -4.8430   -5.6688   -0.1421 Cl  0  0  0  0  0  0  0  0  0  0  0  0
   -3.6052   -3.2472    0.0961 C   0  0  0  0  0  0  0  0  0  0  0  0
   -2.5287   -2.4381    0.3138 C   0  0  0  0  0  0  0  0  0  0  0  0
   -2.6407   -0.9708    0.2786 C   0  0  0  0  0  0  0  0  0  0  0  0
   -1.5959   -0.2698    0.4905 O   0  0  0  0  0  0  0  0  0  0  0  0
   -3.8587   -0.3310    0.0197 N   0  0  0  0  0  0  0  0  0  0  0  0
   -4.0704    1.0679   -0.0358 C   0  0  0  0  0  0  0  0  0  0  0  0
   -3.1296    2.0170    0.1525 C   0  0  0  0  0  0  0  0  0  0  0  0
   -3.4505    3.3786    0.0746 C   0  0  0  0  0  0  0  0  0  0  0  0
   -4.7428    3.7662   -0.1977 C   0  0  0  0  0  0  0  0  0  0  0  0
   -5.2040    5.4669   -0.3075 Cl  0  0  0  0  0  0  0  0  0  0  0  0
   -5.6754    2.7893   -0.3840 C   0  0  0  0  0  0  0  0  0  0  0  0
   -5.3300    1.5131   -0.3017 N   0  0  0  0  0  0  0  0  0  0  0  0
    2.2677   -0.5031    1.1047 C   0  0  0  0  0  0  0  0  0  0  0  0
    3.4146    0.2919    1.1904 C   0  0  0  0  0  0  0  0  0  0  0  0
    7.0017    3.3475    0.0420 H   0  0  0  0  0  0  0  0  0  0  0  0
    5.9346    4.3586    1.1066 H   0  0  0  0  0  0  0  0  0  0  0  0
    5.8495    4.5435   -0.6613 H   0  0  0  0  0  0  0  0  0  0  0  0
    4.1007    3.0698    0.6061 H   0  0  0  0  0  0  0  0  0  0  0  0
    5.7968    1.2398    1.1747 H   0  0  0  0  0  0  0  0  0  0  0  0
    6.0441    1.2193   -0.6325 H   0  0  0  0  0  0  0  0  0  0  0  0
    4.3250    0.4325   -2.0095 H   0  0  0  0  0  0  0  0  0  0  0  0
    2.2871   -0.9844   -2.1897 H   0  0  0  0  0  0  0  0  0  0  0  0
    0.1058   -1.8778    1.7687 H   0  0  0  0  0  0  0  0  0  0  0  0
   -0.2112   -4.8396    0.8161 H   0  0  0  0  0  0  0  0  0  0  0  0
   -2.1443   -6.2949    0.4252 H   0  0  0  0  0  0  0  0  0  0  0  0
   -4.5971   -2.8834   -0.1135 H   0  0  0  0  0  0  0  0  0  0  0  0
   -4.7088   -0.9692   -0.1522 H   0  0  0  0  0  0  0  0  0  0  0  0
   -2.0963    1.8240    0.3693 H   0  0  0  0  0  0  0  0  0  0  0  0
   -2.6888    4.1277    0.2272 H   0  0  0  0  0  0  0  0  0  0  0  0
   -6.7049    3.0993   -0.6010 H   0  0  0  0  0  0  0  0  0  0  0  0
    1.7228   -0.7364    2.0263 H   0  0  0  0  0  0  0  0  0  0  0  0
    3.6948    0.6313    2.1783 H   0  0  0  0  0  0  0  0  0  0  0  0
  1  2  1  0
  2  3  1  0
  3  4  1  0
  4  5  2  0
  5  6  1  0
  6  7  2  0
  7  8  1  0
  8  9  2  0
  8 10  1  0
 10 11  1  0
 11 12  2  0
 12 13  1  0
 13 14  2  0
 14 15  1  0
 14 16  1  0
 16 17  2  0
 17 18  1  0
 18 19  2  0
 18 20  1  0
 20 21  1  0
 21 22  2  0
 22 23  1  0
 23 24  2  0
 24 25  1  0
 24 26  1  0
 26 27  2  0
  7 28  1  0
 28 29  2  0
 29  4  1  0
 17 11  1  0
 27 21  1  0
  1 30  1  0
  1 31  1  0
  1 32  1  0
  2 33  1  0
  3 34  1  0
  3 35  1  0
  5 36  1  0
  6 37  1  0
 10 38  1  0
 12 39  1  0
 13 40  1  0
 16 41  1  0
 20 42  1  0
 22 43  1  0
 23 44  1  0
 26 45  1  0
 28 46  1  0
 29 47  1  0
M  END
$$$$
