@<TRIPOS>MOLECULE
*****
 51 55 0 0 0
SMALL
GASTEIGER

@<TRIPOS>ATOM
      1 N           5.6722   -2.5575    1.6100 N.am    1  UNL1       -0.3241
      2 C           4.4428   -1.9388    1.2773 C.2     1  UNL1        0.2599
      3 O           3.4957   -1.9050    2.0936 O.2     1  UNL1       -0.2687
      4 C           4.2764   -1.3334   -0.0301 C.ar    1  UNL1        0.1280
      5 C           5.2338   -1.2921   -1.0482 C.ar    1  UNL1        0.0588
      6 N           4.6885   -0.6465   -2.0899 N.ar    1  UNL1       -0.2353
      7 C           3.4492   -0.2969   -1.7475 C.ar    1  UNL1        0.1381
      8 C           2.4951    0.3783   -2.4633 C.ar    1  UNL1       -0.0182
      9 C           1.2502    0.6529   -1.9301 C.ar    1  UNL1       -0.0477
     10 C           0.9822    0.2313   -0.6528 C.ar    1  UNL1        0.0173
     11 C          -0.3192    0.4906   -0.0248 C.ar    1  UNL1        0.0781
     12 C          -0.8717    1.7184    0.2798 C.ar    1  UNL1        0.0971
     13 C          -0.2481    3.0208    0.0311 C.ar    1  UNL1        0.0026
     14 C          -0.4896    3.7573   -1.1061 C.ar    1  UNL1       -0.0498
     15 C           0.0916    4.9857   -1.3502 C.ar    1  UNL1       -0.0258
     16 C           0.9561    5.5095   -0.4181 C.ar    1  UNL1        0.1234
     17 F           1.5374    6.7154   -0.6385 F       1  UNL1       -0.2055
     18 C           1.2296    4.7983    0.7471 C.ar    1  UNL1       -0.0258
     19 C           0.6341    3.5717    0.9652 C.ar    1  UNL1       -0.0498
     20 N          -2.0681    1.4466    0.8358 N.ar    1  UNL1       -0.2303
     21 C          -2.2839    0.1205    0.8913 C.ar    1  UNL1        0.1250
     22 N          -1.1823   -0.4676    0.3497 N.ar    1  UNL1       -0.3247
     23 C          -1.1701   -1.9337    0.2886 C.3     1  UNL1        0.0378
     24 C          -2.5807   -2.3779   -0.0986 C.3     1  UNL1        0.0176
     25 N          -3.4779   -1.9871    0.9041 N.3     1  UNL1       -0.2882
     26 C          -4.6971   -2.6855    1.0260 C.3     1  UNL1        0.0600
     27 C          -5.6558   -2.4852   -0.1124 C.3     1  UNL1        0.2518
     28 F          -5.1476   -2.8859   -1.3229 F       1  UNL1       -0.2079
     29 F          -6.7941   -3.2362    0.1306 F       1  UNL1       -0.2079
     30 C          -3.4222   -0.6732    1.4039 C.3     1  UNL1        0.0574
     31 C           1.9659   -0.4516    0.0533 C.ar    1  UNL1        0.0211
     32 N           3.1760   -0.7069   -0.4926 N.ar    1  UNL1       -0.2949
     33 H           5.8817   -3.4700    1.1150 H       1  UNL1        0.1453
     34 H           6.3278   -2.1419    2.2973 H       1  UNL1        0.1453
     35 H           6.2402   -1.7145   -0.9893 H       1  UNL1        0.0853
     36 H           2.7117    0.7036   -3.4576 H       1  UNL1        0.0654
     37 H           0.5262    1.1819   -2.5171 H       1  UNL1        0.0626
     38 H          -1.1850    3.3303   -1.8461 H       1  UNL1        0.0625
     39 H          -0.1556    5.5007   -2.2721 H       1  UNL1        0.0646
     40 H           1.9193    5.2601    1.4426 H       1  UNL1        0.0646
     41 H           0.8673    3.0367    1.8845 H       1  UNL1        0.0625
     42 H          -0.8894   -2.3762    1.2609 H       1  UNL1        0.0505
     43 H          -0.5126   -2.2759   -0.5424 H       1  UNL1        0.0505
     44 H          -2.5715   -3.4781   -0.1929 H       1  UNL1        0.0444
     45 H          -2.8115   -1.8652   -1.0542 H       1  UNL1        0.0444
     46 H          -5.2150   -2.3565    1.9492 H       1  UNL1        0.0482
     47 H          -4.4831   -3.7821    1.0872 H       1  UNL1        0.0482
     48 H          -5.8815   -1.4062   -0.2017 H       1  UNL1        0.1031
     49 H          -4.3900   -0.1646    1.2336 H       1  UNL1        0.0506
     50 H          -3.3050   -0.7353    2.5257 H       1  UNL1        0.0506
     51 H           1.7576   -0.7836    1.0589 H       1  UNL1        0.0820
@<TRIPOS>BOND
     1     1     2   am
     2     2     3    2
     3     2     4    1
     4     4     5   ar
     5     5     6   ar
     6     6     7   ar
     7     7     8   ar
     8     8     9   ar
     9     9    10   ar
    10    10    11    1
    11    11    12   ar
    12    12    13    1
    13    13    14   ar
    14    14    15   ar
    15    15    16   ar
    16    16    17    1
    17    16    18   ar
    18    18    19   ar
    19    12    20   ar
    20    20    21   ar
    21    21    22   ar
    22    22    23    1
    23    23    24    1
    24    24    25    1
    25    25    26    1
    26    26    27    1
    27    27    28    1
    28    27    29    1
    29    25    30    1
    30    10    31   ar
    31    31    32   ar
    32    32     4   ar
    33    32     7   ar
    34    22    11   ar
    35    19    13   ar
    36    30    21    1
    37     1    33    1
    38     1    34    1
    39     5    35    1
    40     8    36    1
    41     9    37    1
    42    14    38    1
    43    15    39    1
    44    18    40    1
    45    19    41    1
    46    23    42    1
    47    23    43    1
    48    24    44    1
    49    24    45    1
    50    26    46    1
    51    26    47    1
    52    27    48    1
    53    30    49    1
    54    30    50    1
    55    31    51    1
