
     RDKit          3D

 47 49  0  0  0  0  0  0  0  0999 V2000
    1.0503    0.3660   -1.2329 C   0  0  0  0  0  0  0  0  0  0  0  0
    1.1183   -0.2026    0.1682 C   0  0  2  0  0  0  0  0  0  0  0  0
    2.2187   -1.2673    0.1544 C   0  0  0  0  0  0  0  0  0  0  0  0
    3.5289   -0.7029   -0.2174 C   0  0  0  0  0  0  0  0  0  0  0  0
    4.3634   -0.2147    0.7863 C   0  0  0  0  0  0  0  0  0  0  0  0
    5.6008    0.3269    0.5206 C   0  0  0  0  0  0  0  0  0  0  0  0
    5.9887    0.3676   -0.8055 C   0  0  0  0  0  0  0  0  0  0  0  0
    7.3155    0.9447   -1.1253 C   0  0  0  0  0  0  0  0  0  0  0  0
    8.2337    0.7422   -0.1266 F   0  0  0  0  0  0  0  0  0  0  0  0
    7.7621    0.3521   -2.3100 F   0  0  0  0  0  0  0  0  0  0  0  0
    7.1648    2.3086   -1.3724 F   0  0  0  0  0  0  0  0  0  0  0  0
    5.1826   -0.1081   -1.8143 C   0  0  0  0  0  0  0  0  0  0  0  0
    3.9581   -0.6412   -1.5238 C   0  0  0  0  0  0  0  0  0  0  0  0
   -0.1429   -0.8894    0.5442 C   0  0  0  0  0  0  0  0  0  0  0  0
   -0.1804   -2.1184    0.8566 O   0  0  0  0  0  0  0  0  0  0  0  0
   -1.3982   -0.2093    0.5787 N   0  0  0  0  0  0  0  0  0  0  0  0
   -2.6294   -0.8958    0.9498 C   0  0  0  0  0  0  0  0  0  0  0  0
   -3.7435    0.1121    0.8796 C   0  0  1  0  0  0  0  0  0  0  0  0
   -5.0613   -0.5257    1.2525 C   0  0  0  0  0  0  0  0  0  0  0  0
   -5.4594   -1.6848    0.3422 C   0  0  0  0  0  0  0  0  0  0  0  0
   -6.2093   -0.3991    0.3400 C   0  0  0  0  0  0  0  0  0  0  0  0
   -3.4295    1.2554    1.6797 N   0  0  0  0  0  0  0  0  0  0  0  0
   -3.9075    2.3882    0.9627 C   0  0  0  0  0  0  0  0  0  0  0  0
   -4.1106    3.5369    1.4547 O   0  0  0  0  0  0  0  0  0  0  0  0
   -4.1231    2.0214   -0.4087 N   0  0  0  0  0  0  0  0  0  0  0  0
   -3.7677    0.6501   -0.5071 C   0  0  0  0  0  0  0  0  0  0  0  0
   -3.5243    0.0366   -1.5945 O   0  0  0  0  0  0  0  0  0  0  0  0
    1.0529   -0.4272   -2.0067 H   0  0  0  0  0  0  0  0  0  0  0  0
    1.8261    1.0971   -1.4384 H   0  0  0  0  0  0  0  0  0  0  0  0
    0.0534    0.8840   -1.3511 H   0  0  0  0  0  0  0  0  0  0  0  0
    1.3471    0.5981    0.8793 H   0  0  0  0  0  0  0  0  0  0  0  0
    2.3328   -1.7035    1.1900 H   0  0  0  0  0  0  0  0  0  0  0  0
    1.9093   -2.1258   -0.4771 H   0  0  0  0  0  0  0  0  0  0  0  0
    4.0030   -0.2748    1.8041 H   0  0  0  0  0  0  0  0  0  0  0  0
    6.2096    0.6911    1.3306 H   0  0  0  0  0  0  0  0  0  0  0  0
    5.5394   -0.0491   -2.8268 H   0  0  0  0  0  0  0  0  0  0  0  0
    3.3591   -1.0007   -2.3296 H   0  0  0  0  0  0  0  0  0  0  0  0
   -1.3725    0.8066    0.3214 H   0  0  0  0  0  0  0  0  0  0  0  0
   -2.5571   -1.4102    1.9145 H   0  0  0  0  0  0  0  0  0  0  0  0
   -2.8724   -1.6975    0.1924 H   0  0  0  0  0  0  0  0  0  0  0  0
   -5.1962   -0.6660    2.3387 H   0  0  0  0  0  0  0  0  0  0  0  0
   -5.9014   -2.5847    0.8367 H   0  0  0  0  0  0  0  0  0  0  0  0
   -4.8163   -1.9028   -0.5418 H   0  0  0  0  0  0  0  0  0  0  0  0
   -6.0757    0.2784   -0.5213 H   0  0  0  0  0  0  0  0  0  0  0  0
   -7.2163   -0.4202    0.8261 H   0  0  0  0  0  0  0  0  0  0  0  0
   -2.9513    1.3127    2.6044 H   0  0  0  0  0  0  0  0  0  0  0  0
   -4.4726    2.6451   -1.1769 H   0  0  0  0  0  0  0  0  0  0  0  0
  1  2  1  0
  2  3  1  0
  3  4  1  0
  4  5  2  0
  5  6  1  0
  6  7  2  0
  7  8  1  0
  8  9  1  0
  8 10  1  0
  8 11  1  0
  7 12  1  0
 12 13  2  0
  2 14  1  0
 14 15  2  0
 14 16  1  0
 16 17  1  0
 18 17  1  6
 18 19  1  0
 19 20  1  0
 20 21  1  0
 18 22  1  0
 22 23  1  0
 23 24  2  0
 23 25  1  0
 25 26  1  0
 26 27  2  0
 13  4  1  0
 26 18  1  0
 21 19  1  0
  1 28  1  0
  1 29  1  0
  1 30  1  0
  2 31  1  1
  3 32  1  0
  3 33  1  0
  5 34  1  0
  6 35  1  0
 12 36  1  0
 13 37  1  0
 16 38  1  0
 17 39  1  0
 17 40  1  0
 19 41  1  0
 20 42  1  0
 20 43  1  0
 21 44  1  0
 21 45  1  0
 22 46  1  0
 25 47  1  0
M  END
$$$$
