@<TRIPOS>MOLECULE
*****
 47 49 0 0 0
SMALL
GASTEIGER

@<TRIPOS>ATOM
      1 C           1.0503    0.3660   -1.2329 C.3     1  UNL1       -0.0538
      2 C           1.1183   -0.2026    0.1682 C.3     1  UNL1        0.0367
      3 C           2.2187   -1.2673    0.1544 C.3     1  UNL1       -0.0168
      4 C           3.5289   -0.7029   -0.2174 C.ar    1  UNL1       -0.0466
      5 C           4.3634   -0.2147    0.7863 C.ar    1  UNL1       -0.0580
      6 C           5.6008    0.3269    0.5206 C.ar    1  UNL1       -0.0499
      7 C           5.9887    0.3676   -0.8055 C.ar    1  UNL1        0.0548
      8 C           7.3155    0.9447   -1.1253 C.3     1  UNL1        0.4174
      9 F           8.2337    0.7422   -0.1266 F       1  UNL1       -0.1659
     10 F           7.7621    0.3521   -2.3100 F       1  UNL1       -0.1659
     11 F           7.1648    2.3086   -1.3724 F       1  UNL1       -0.1659
     12 C           5.1826   -0.1081   -1.8143 C.ar    1  UNL1       -0.0499
     13 C           3.9581   -0.6412   -1.5238 C.ar    1  UNL1       -0.0580
     14 C          -0.1429   -0.8894    0.5442 C.2     1  UNL1        0.2162
     15 O          -0.1804   -2.1184    0.8566 O.2     1  UNL1       -0.2755
     16 N          -1.3982   -0.2093    0.5787 N.am    1  UNL1       -0.3125
     17 C          -2.6294   -0.8958    0.9498 C.3     1  UNL1        0.0418
     18 C          -3.7435    0.1121    0.8796 C.3     1  UNL1        0.1305
     19 C          -5.0613   -0.5257    1.2525 C.3     1  UNL1       -0.0096
     20 C          -5.4594   -1.6848    0.3422 C.3     1  UNL1       -0.0474
     21 C          -6.2093   -0.3991    0.3400 C.3     1  UNL1       -0.0474
     22 N          -3.4295    1.2554    1.6797 N.am    1  UNL1       -0.2834
     23 C          -3.9075    2.3882    0.9627 C.2     1  UNL1        0.3068
     24 O          -4.1106    3.5369    1.4547 O.2     1  UNL1       -0.2524
     25 N          -4.1231    2.0214   -0.4087 N.am    1  UNL1       -0.2383
     26 C          -3.7677    0.6501   -0.5071 C.2     1  UNL1        0.2457
     27 O          -3.5243    0.0366   -1.5945 O.2     1  UNL1       -0.2729
     28 H           1.0529   -0.4272   -2.0067 H       1  UNL1        0.0237
     29 H           1.8261    1.0971   -1.4384 H       1  UNL1        0.0237
     30 H           0.0534    0.8840   -1.3511 H       1  UNL1        0.0237
     31 H           1.3471    0.5981    0.8793 H       1  UNL1        0.0395
     32 H           2.3328   -1.7035    1.1900 H       1  UNL1        0.0320
     33 H           1.9093   -2.1258   -0.4771 H       1  UNL1        0.0320
     34 H           4.0030   -0.2748    1.8041 H       1  UNL1        0.0620
     35 H           6.2096    0.6911    1.3306 H       1  UNL1        0.0623
     36 H           5.5394   -0.0491   -2.8268 H       1  UNL1        0.0623
     37 H           3.3591   -1.0007   -2.3296 H       1  UNL1        0.0620
     38 H          -1.3725    0.8066    0.3214 H       1  UNL1        0.1488
     39 H          -2.5571   -1.4102    1.9145 H       1  UNL1        0.0488
     40 H          -2.8724   -1.6975    0.1924 H       1  UNL1        0.0488
     41 H          -5.1962   -0.6660    2.3387 H       1  UNL1        0.0327
     42 H          -5.9014   -2.5847    0.8367 H       1  UNL1        0.0269
     43 H          -4.8163   -1.9028   -0.5418 H       1  UNL1        0.0269
     44 H          -6.0757    0.2784   -0.5213 H       1  UNL1        0.0269
     45 H          -7.2163   -0.4202    0.8261 H       1  UNL1        0.0269
     46 H          -2.9513    1.3127    2.6044 H       1  UNL1        0.1513
     47 H          -4.4726    2.6451   -1.1769 H       1  UNL1        0.1591
@<TRIPOS>BOND
     1     1     2    1
     2     2     3    1
     3     3     4    1
     4     4     5   ar
     5     5     6   ar
     6     6     7   ar
     7     7     8    1
     8     8     9    1
     9     8    10    1
    10     8    11    1
    11     7    12   ar
    12    12    13   ar
    13     2    14    1
    14    14    15    2
    15    14    16   am
    16    16    17    1
    17    18    17    1
    18    18    19    1
    19    19    20    1
    20    20    21    1
    21    18    22    1
    22    22    23   am
    23    23    24    2
    24    23    25   am
    25    25    26   am
    26    26    27    2
    27    13     4   ar
    28    26    18    1
    29    21    19    1
    30     1    28    1
    31     1    29    1
    32     1    30    1
    33     2    31    1
    34     3    32    1
    35     3    33    1
    36     5    34    1
    37     6    35    1
    38    12    36    1
    39    13    37    1
    40    16    38    1
    41    17    39    1
    42    17    40    1
    43    19    41    1
    44    20    42    1
    45    20    43    1
    46    21    44    1
    47    21    45    1
    48    22    46    1
    49    25    47    1
