@<TRIPOS>MOLECULE
*****
 30 30 0 0 0
SMALL
GASTEIGER

@<TRIPOS>ATOM
      1 C          -2.5742   -0.2524    0.5037 C.3     1  UNL1        0.1225
      2 C          -2.6054   -0.0650   -1.0054 C.3     1  UNL1       -0.0377
      3 N          -2.0591    0.9273    1.1178 N.3     1  UNL1       -0.1764
      4 S          -0.6307    0.6512    2.0294 S.O2    1  UNL1        0.0591
      5 O          -0.9295   -0.4430    3.0144 O.2     1  UNL1       -0.1530
      6 O          -0.1796    1.8508    2.7695 O.2     1  UNL1       -0.1530
      7 C           0.6071    0.0604    0.9450 C.ar    1  UNL1        0.1055
      8 C           1.3515    1.0749    0.3736 C.ar    1  UNL1       -0.0319
      9 C           2.3775    0.7687   -0.5133 C.ar    1  UNL1       -0.0181
     10 C           2.6896   -0.5167   -0.8526 C.ar    1  UNL1        0.1202
     11 O           3.6586   -0.9593   -1.6991 O.3     1  UNL1       -0.4951
     12 C           4.5807   -0.2192   -2.4371 C.3     1  UNL1        0.0788
     13 C           1.9285   -1.5099   -0.2658 C.ar    1  UNL1       -0.0181
     14 C           0.9046   -1.2377    0.6173 C.ar    1  UNL1       -0.0319
     15 C          -3.9703   -0.5607    0.9310 C.2     1  UNL1        0.3233
     16 O          -5.2713   -0.8602    1.3201 O.3     1  UNL1       -0.4795
     17 O          -3.7462    0.4962    1.5915 O.2     1  UNL1       -0.2492
     18 H          -1.9303   -1.1067    0.7531 H       1  UNL1        0.0590
     19 H          -1.5969   -0.1992   -1.4488 H       1  UNL1        0.0250
     20 H          -3.2854   -0.8173   -1.4709 H       1  UNL1        0.0250
     21 H          -3.0400    0.9430   -1.2245 H       1  UNL1        0.0250
     22 H          -2.0482    1.7802    0.5433 H       1  UNL1        0.1489
     23 H           1.2222    2.1228    0.5443 H       1  UNL1        0.0638
     24 H           2.9861    1.5424   -0.9837 H       1  UNL1        0.0655
     25 H           4.7074   -0.7465   -3.4276 H       1  UNL1        0.0660
     26 H           5.5643   -0.3312   -1.9331 H       1  UNL1        0.0660
     27 H           4.2960    0.8162   -2.6350 H       1  UNL1        0.0660
     28 H           2.0903   -2.5777   -0.4651 H       1  UNL1        0.0655
     29 H           0.2770   -1.9648    1.1075 H       1  UNL1        0.0638
     30 H          -5.3742   -1.3809    2.2003 H       1  UNL1        0.2951
@<TRIPOS>BOND
     1     1     2    1
     2     1     3    1
     3     3     4    1
     4     4     5    2
     5     4     6    2
     6     4     7    1
     7     7     8   ar
     8     8     9   ar
     9     9    10   ar
    10    10    11    1
    11    11    12    1
    12    10    13   ar
    13    13    14   ar
    14     1    15    1
    15    15    16    1
    16    15    17    2
    17    14     7   ar
    18     1    18    1
    19     2    19    1
    20     2    20    1
    21     2    21    1
    22     3    22    1
    23     8    23    1
    24     9    24    1
    25    12    25    1
    26    12    26    1
    27    12    27    1
    28    13    28    1
    29    14    29    1
    30    16    30    1
