
     RDKit          3D

 30 30  0  0  0  0  0  0  0  0999 V2000
   -2.5742   -0.2524    0.5037 C   0  0  1  0  0  0  0  0  0  0  0  0
   -2.6054   -0.0650   -1.0054 C   0  0  0  0  0  0  0  0  0  0  0  0
   -2.0591    0.9273    1.1178 N   0  0  0  0  0  0  0  0  0  0  0  0
   -0.6307    0.6512    2.0294 S   0  0  0  0  0  0  0  0  0  0  0  0
   -0.9295   -0.4430    3.0144 O   0  0  0  0  0  0  0  0  0  0  0  0
   -0.1796    1.8508    2.7695 O   0  0  0  0  0  0  0  0  0  0  0  0
    0.6071    0.0604    0.9450 C   0  0  0  0  0  0  0  0  0  0  0  0
    1.3515    1.0749    0.3736 C   0  0  0  0  0  0  0  0  0  0  0  0
    2.3775    0.7687   -0.5133 C   0  0  0  0  0  0  0  0  0  0  0  0
    2.6896   -0.5167   -0.8526 C   0  0  0  0  0  0  0  0  0  0  0  0
    3.6586   -0.9593   -1.6991 O   0  0  0  0  0  0  0  0  0  0  0  0
    4.5807   -0.2192   -2.4371 C   0  0  0  0  0  0  0  0  0  0  0  0
    1.9285   -1.5099   -0.2658 C   0  0  0  0  0  0  0  0  0  0  0  0
    0.9046   -1.2377    0.6173 C   0  0  0  0  0  0  0  0  0  0  0  0
   -3.9703   -0.5607    0.9310 C   0  0  0  0  0  0  0  0  0  0  0  0
   -5.2713   -0.8602    1.3201 O   0  0  0  0  0  0  0  0  0  0  0  0
   -3.7462    0.4962    1.5915 O   0  0  0  0  0  0  0  0  0  0  0  0
   -1.9303   -1.1067    0.7531 H   0  0  0  0  0  0  0  0  0  0  0  0
   -1.5969   -0.1992   -1.4488 H   0  0  0  0  0  0  0  0  0  0  0  0
   -3.2854   -0.8173   -1.4709 H   0  0  0  0  0  0  0  0  0  0  0  0
   -3.0400    0.9430   -1.2245 H   0  0  0  0  0  0  0  0  0  0  0  0
   -2.0482    1.7802    0.5433 H   0  0  0  0  0  0  0  0  0  0  0  0
    1.2222    2.1228    0.5443 H   0  0  0  0  0  0  0  0  0  0  0  0
    2.9861    1.5424   -0.9837 H   0  0  0  0  0  0  0  0  0  0  0  0
    4.7074   -0.7465   -3.4276 H   0  0  0  0  0  0  0  0  0  0  0  0
    5.5643   -0.3312   -1.9331 H   0  0  0  0  0  0  0  0  0  0  0  0
    4.2960    0.8162   -2.6350 H   0  0  0  0  0  0  0  0  0  0  0  0
    2.0903   -2.5777   -0.4651 H   0  0  0  0  0  0  0  0  0  0  0  0
    0.2770   -1.9648    1.1075 H   0  0  0  0  0  0  0  0  0  0  0  0
   -5.3742   -1.3809    2.2003 H   0  0  0  0  0  0  0  0  0  0  0  0
  1  2  1  0
  1  3  1  0
  3  4  1  0
  4  5  2  0
  4  6  2  0
  4  7  1  0
  7  8  2  0
  8  9  1  0
  9 10  2  0
 10 11  1  0
 11 12  1  0
 10 13  1  0
 13 14  2  0
  1 15  1  0
 15 16  1  0
 15 17  2  0
 14  7  1  0
  1 18  1  6
  2 19  1  0
  2 20  1  0
  2 21  1  0
  3 22  1  0
  8 23  1  0
  9 24  1  0
 12 25  1  0
 12 26  1  0
 12 27  1  0
 13 28  1  0
 14 29  1  0
 16 30  1  0
M  END
$$$$
