
     RDKit          3D

 46 47  0  0  0  0  0  0  0  0999 V2000
    3.2952    3.0646   -0.0431 C   0  0  0  0  0  0  0  0  0  0  0  0
    2.7905    1.7925    0.6064 C   0  0  0  0  0  0  0  0  0  0  0  0
    2.2765    0.8956   -0.4895 C   0  0  0  0  0  0  0  0  0  0  0  0
    1.7647   -0.3495   -0.0440 N   0  0  0  0  0  0  0  0  0  0  0  0
    2.7183   -1.2561    0.4905 C   0  0  0  0  0  0  0  0  0  0  0  0
    3.0706   -2.3827   -0.4655 C   0  0  0  0  0  0  0  0  0  0  0  0
    1.8195   -3.1591   -0.6887 C   0  0  0  0  0  0  0  0  0  0  0  0
    0.6953   -2.3093   -1.1418 C   0  0  0  0  0  0  0  0  0  0  0  0
    0.7813   -0.8548   -0.9145 C   0  0  1  0  0  0  0  0  0  0  0  0
   -0.5555   -0.3620   -0.4107 C   0  0  0  0  0  0  0  0  0  0  0  0
   -1.4879   -0.8148   -1.1578 O   0  0  0  0  0  0  0  0  0  0  0  0
   -0.8972    0.4797    0.7055 N   0  0  0  0  0  0  0  0  0  0  0  0
   -2.3344    0.5557    0.6250 C   0  0  0  0  0  0  0  0  0  0  0  0
   -2.9577    1.5362   -0.1011 C   0  0  0  0  0  0  0  0  0  0  0  0
   -2.1751    2.5623   -0.8333 C   0  0  0  0  0  0  0  0  0  0  0  0
   -4.3446    1.5447   -0.1323 C   0  0  0  0  0  0  0  0  0  0  0  0
   -4.9978    0.5585    0.5748 C   0  0  0  0  0  0  0  0  0  0  0  0
   -4.3432   -0.4093    1.2922 C   0  0  0  0  0  0  0  0  0  0  0  0
   -2.9739   -0.4568    1.3517 C   0  0  0  0  0  0  0  0  0  0  0  0
   -2.2581   -1.4850    2.1153 C   0  0  0  0  0  0  0  0  0  0  0  0
    4.2407    2.8558   -0.6210 H   0  0  0  0  0  0  0  0  0  0  0  0
    3.4380    3.8772    0.6778 H   0  0  0  0  0  0  0  0  0  0  0  0
    2.5188    3.3777   -0.7889 H   0  0  0  0  0  0  0  0  0  0  0  0
    1.9920    2.0776    1.3058 H   0  0  0  0  0  0  0  0  0  0  0  0
    3.6999    1.3579    1.1015 H   0  0  0  0  0  0  0  0  0  0  0  0
    1.4154    1.4587   -0.9456 H   0  0  0  0  0  0  0  0  0  0  0  0
    3.0529    0.8392   -1.2731 H   0  0  0  0  0  0  0  0  0  0  0  0
    2.2471   -1.7329    1.3754 H   0  0  0  0  0  0  0  0  0  0  0  0
    3.6595   -0.8142    0.8140 H   0  0  0  0  0  0  0  0  0  0  0  0
    3.7750   -3.0387    0.1022 H   0  0  0  0  0  0  0  0  0  0  0  0
    3.5617   -2.0301   -1.3711 H   0  0  0  0  0  0  0  0  0  0  0  0
    1.9862   -4.0294   -1.3752 H   0  0  0  0  0  0  0  0  0  0  0  0
    1.5708   -3.6435    0.2998 H   0  0  0  0  0  0  0  0  0  0  0  0
    0.5580   -2.5210   -2.2447 H   0  0  0  0  0  0  0  0  0  0  0  0
   -0.2438   -2.7531   -0.6962 H   0  0  0  0  0  0  0  0  0  0  0  0
    0.8860   -0.3273   -1.9100 H   0  0  0  0  0  0  0  0  0  0  0  0
   -0.0272    0.7608    1.2053 H   0  0  0  0  0  0  0  0  0  0  0  0
   -2.4994    2.5865   -1.8940 H   0  0  0  0  0  0  0  0  0  0  0  0
   -2.4743    3.5426   -0.3699 H   0  0  0  0  0  0  0  0  0  0  0  0
   -1.1045    2.4111   -0.6957 H   0  0  0  0  0  0  0  0  0  0  0  0
   -4.7865    2.3268   -0.7121 H   0  0  0  0  0  0  0  0  0  0  0  0
   -6.0862    0.6476    0.4905 H   0  0  0  0  0  0  0  0  0  0  0  0
   -4.9671   -1.1442    1.8167 H   0  0  0  0  0  0  0  0  0  0  0  0
   -2.7043   -1.5270    3.1359 H   0  0  0  0  0  0  0  0  0  0  0  0
   -1.1632   -1.2327    2.1720 H   0  0  0  0  0  0  0  0  0  0  0  0
   -2.4320   -2.4759    1.6485 H   0  0  0  0  0  0  0  0  0  0  0  0
  1  2  1  0
  2  3  1  0
  3  4  1  0
  4  5  1  0
  5  6  1  0
  6  7  1  0
  7  8  1  0
  8  9  1  0
  9 10  1  0
 10 11  2  0
 10 12  1  0
 12 13  1  0
 13 14  2  0
 14 15  1  0
 14 16  1  0
 16 17  2  0
 17 18  1  0
 18 19  2  0
 19 20  1  0
  9  4  1  0
 19 13  1  0
  1 21  1  0
  1 22  1  0
  1 23  1  0
  2 24  1  0
  2 25  1  0
  3 26  1  0
  3 27  1  0
  5 28  1  0
  5 29  1  0
  6 30  1  0
  6 31  1  0
  7 32  1  0
  7 33  1  0
  8 34  1  0
  8 35  1  0
  9 36  1  6
 12 37  1  0
 15 38  1  0
 15 39  1  0
 15 40  1  0
 16 41  1  0
 17 42  1  0
 18 43  1  0
 20 44  1  0
 20 45  1  0
 20 46  1  0
M  END
$$$$
