
     RDKit          3D

 27 28  0  0  0  0  0  0  0  0999 V2000
   -1.3178   -2.3998   -0.5234 O   0  0  0  0  0  0  0  0  0  0  0  0
   -1.3735   -1.1779   -0.1462 C   0  0  0  0  0  0  0  0  0  0  0  0
   -0.1406   -0.3863   -0.0442 C   0  0  0  0  0  0  0  0  0  0  0  0
    1.0091   -0.9400   -0.3413 C   0  0  0  0  0  0  0  0  0  0  0  0
    2.2762   -0.2497   -0.2739 C   0  0  0  0  0  0  0  0  0  0  0  0
    2.3738    1.0563    0.1117 C   0  0  0  0  0  0  0  0  0  0  0  0
    3.6079    1.7145    0.1730 C   0  0  0  0  0  0  0  0  0  0  0  0
    4.7232    0.9861   -0.1734 C   0  0  0  0  0  0  0  0  0  0  0  0
    4.6450   -0.3336   -0.5654 C   0  0  0  0  0  0  0  0  0  0  0  0
    3.4298   -0.9589   -0.6188 C   0  0  0  0  0  0  0  0  0  0  0  0
   -2.6718   -0.6166    0.1699 C   0  0  0  0  0  0  0  0  0  0  0  0
   -2.8618    0.6701    0.5819 C   0  0  0  0  0  0  0  0  0  0  0  0
   -4.1233    1.1503    0.8692 C   0  0  0  0  0  0  0  0  0  0  0  0
   -5.2272    0.3411    0.7474 C   0  0  0  0  0  0  0  0  0  0  0  0
   -5.0377   -0.9244    0.3419 N   0  0  0  0  0  0  0  0  0  0  0  0
   -3.8170   -1.4040    0.0593 C   0  0  0  0  0  0  0  0  0  0  0  0
   -0.1798    0.6245    0.2671 H   0  0  0  0  0  0  0  0  0  0  0  0
    0.9726   -1.9861   -0.6548 H   0  0  0  0  0  0  0  0  0  0  0  0
    1.5289    1.6538    0.3880 H   0  0  0  0  0  0  0  0  0  0  0  0
    3.6641    2.7530    0.4821 H   0  0  0  0  0  0  0  0  0  0  0  0
    5.7035    1.4702   -0.1365 H   0  0  0  0  0  0  0  0  0  0  0  0
    5.5823   -0.8386   -0.8240 H   0  0  0  0  0  0  0  0  0  0  0  0
    3.3910   -1.9961   -0.9294 H   0  0  0  0  0  0  0  0  0  0  0  0
   -1.9951    1.3263    0.6839 H   0  0  0  0  0  0  0  0  0  0  0  0
   -4.2566    2.1847    1.1982 H   0  0  0  0  0  0  0  0  0  0  0  0
   -6.2300    0.7204    0.9751 H   0  0  0  0  0  0  0  0  0  0  0  0
   -3.6751   -2.4393   -0.2709 H   0  0  0  0  0  0  0  0  0  0  0  0
  1  2  2  0
  2  3  1  0
  3  4  2  0
  4  5  1  0
  5  6  2  0
  6  7  1  0
  7  8  2  0
  8  9  1  0
  9 10  2  0
  2 11  1  0
 11 12  2  0
 12 13  1  0
 13 14  2  0
 14 15  1  0
 15 16  2  0
 10  5  1  0
 16 11  1  0
  3 17  1  0
  4 18  1  0
  6 19  1  0
  7 20  1  0
  8 21  1  0
  9 22  1  0
 10 23  1  0
 12 24  1  0
 13 25  1  0
 14 26  1  0
 16 27  1  0
M  END
$$$$
