@<TRIPOS>MOLECULE
*****
 27 28 0 0 0
SMALL
GASTEIGER

@<TRIPOS>ATOM
      1 O          -1.3178   -2.3998   -0.5234 O.2     1  UNL1       -0.2872
      2 C          -1.3735   -1.1779   -0.1462 C.2     1  UNL1        0.1875
      3 C          -0.1406   -0.3863   -0.0442 C.2     1  UNL1       -0.0137
      4 C           1.0091   -0.9400   -0.3413 C.2     1  UNL1       -0.0510
      5 C           2.2762   -0.2497   -0.2739 C.ar    1  UNL1       -0.0249
      6 C           2.3738    1.0563    0.1117 C.ar    1  UNL1       -0.0546
      7 C           3.6079    1.7145    0.1730 C.ar    1  UNL1       -0.0612
      8 C           4.7232    0.9861   -0.1734 C.ar    1  UNL1       -0.0617
      9 C           4.6450   -0.3336   -0.5654 C.ar    1  UNL1       -0.0612
     10 C           3.4298   -0.9589   -0.6188 C.ar    1  UNL1       -0.0546
     11 C          -2.6718   -0.6166    0.1699 C.ar    1  UNL1        0.0397
     12 C          -2.8618    0.6701    0.5819 C.ar    1  UNL1       -0.0480
     13 C          -4.1233    1.1503    0.8692 C.ar    1  UNL1       -0.0429
     14 C          -5.2272    0.3411    0.7474 C.ar    1  UNL1        0.0276
     15 N          -5.0377   -0.9244    0.3419 N.ar    1  UNL1       -0.2626
     16 C          -3.8170   -1.4040    0.0593 C.ar    1  UNL1        0.0383
     17 H          -0.1798    0.6245    0.2671 H       1  UNL1        0.0656
     18 H           0.9726   -1.9861   -0.6548 H       1  UNL1        0.0625
     19 H           1.5289    1.6538    0.3880 H       1  UNL1        0.0623
     20 H           3.6641    2.7530    0.4821 H       1  UNL1        0.0618
     21 H           5.7035    1.4702   -0.1365 H       1  UNL1        0.0618
     22 H           5.5823   -0.8386   -0.8240 H       1  UNL1        0.0618
     23 H           3.3910   -1.9961   -0.9294 H       1  UNL1        0.0623
     24 H          -1.9951    1.3263    0.6839 H       1  UNL1        0.0626
     25 H          -4.2566    2.1847    1.1982 H       1  UNL1        0.0633
     26 H          -6.2300    0.7204    0.9751 H       1  UNL1        0.0829
     27 H          -3.6751   -2.4393   -0.2709 H       1  UNL1        0.0837
@<TRIPOS>BOND
     1     1     2    2
     2     2     3    1
     3     3     4    2
     4     4     5    1
     5     5     6   ar
     6     6     7   ar
     7     7     8   ar
     8     8     9   ar
     9     9    10   ar
    10     2    11    1
    11    11    12   ar
    12    12    13   ar
    13    13    14   ar
    14    14    15   ar
    15    15    16   ar
    16    10     5   ar
    17    16    11   ar
    18     3    17    1
    19     4    18    1
    20     6    19    1
    21     7    20    1
    22     8    21    1
    23     9    22    1
    24    10    23    1
    25    12    24    1
    26    13    25    1
    27    14    26    1
    28    16    27    1
