@<TRIPOS>MOLECULE
*****
 46 49 0 0 0
SMALL
GASTEIGER

@<TRIPOS>ATOM
      1 N          -5.0254    1.9141    2.0709 N.pl3   1  UNL1       -0.3134
      2 C          -4.2412    1.3489    0.9899 C.2     1  UNL1        0.2766
      3 N          -3.5435    0.3224    1.1250 N.2     1  UNL1       -0.2228
      4 C          -2.7380   -0.3362    0.1826 C.3     1  UNL1        0.1258
      5 C          -2.9590   -1.7924   -0.0930 C.3     1  UNL1        0.1196
      6 F          -2.8162   -2.6189    0.9951 F       1  UNL1       -0.2462
      7 C          -1.3004   -0.2659    0.6774 C.ar    1  UNL1        0.0196
      8 C          -0.2583    0.1875   -0.0518 C.ar    1  UNL1       -0.0322
      9 C           1.0326    0.1247    0.4778 C.ar    1  UNL1        0.0329
     10 N           2.1208    0.6416   -0.3039 N.pl3   1  UNL1       -0.2976
     11 C           3.1747   -0.2431   -0.5975 C.ar    1  UNL1        0.1523
     12 N           2.8458   -1.4943   -0.9994 N.ar    1  UNL1       -0.2184
     13 C           3.8268   -2.3579   -1.2805 C.ar    1  UNL1        0.1188
     14 N           5.0974   -1.9833   -1.1623 N.ar    1  UNL1       -0.2337
     15 C           5.4828   -0.7393   -0.7617 C.ar    1  UNL1        0.0957
     16 C           6.8054   -0.4006   -0.6483 C.ar    1  UNL1       -0.0142
     17 C           7.1421    0.8596   -0.2362 C.ar    1  UNL1        0.0611
     18 CL          8.8222    1.3409   -0.0717 Cl      1  UNL1       -0.0819
     19 C           6.1101    1.7477    0.0524 C.ar    1  UNL1        0.0468
     20 N           4.8120    1.4008   -0.0644 N.ar    1  UNL1       -0.2485
     21 C           4.4770    0.1738   -0.4662 C.ar    1  UNL1        0.1291
     22 C           1.2690   -0.3855    1.7197 C.ar    1  UNL1       -0.0378
     23 C           0.2275   -0.8498    2.4770 C.ar    1  UNL1       -0.0243
     24 C          -1.0447   -0.7825    1.9444 C.ar    1  UNL1        0.1291
     25 F          -2.0449   -1.2215    2.7740 F       1  UNL1       -0.2051
     26 C          -2.8344    0.4312   -1.1369 C.3     1  UNL1        0.0251
     27 C          -4.1272    1.1164   -1.3762 C.3     1  UNL1        0.1998
     28 C          -5.3687    0.3247   -1.4639 C.3     1  UNL1        0.4266
     29 F          -5.7175   -0.3821   -0.3322 F       1  UNL1       -0.1669
     30 F          -6.4448    1.1951   -1.7062 F       1  UNL1       -0.1669
     31 F          -5.3879   -0.5489   -2.5458 F       1  UNL1       -0.1669
     32 O          -4.2990    2.0124   -0.2378 O.2     1  UNL1       -0.4534
     33 H          -5.8697    2.4656    1.8991 H       1  UNL1        0.1466
     34 H          -4.6960    1.7382    3.0285 H       1  UNL1        0.1466
     35 H          -2.0586   -2.0838   -0.7611 H       1  UNL1        0.0643
     36 H          -3.8662   -2.0731   -0.6161 H       1  UNL1        0.0643
     37 H          -0.4086    0.5743   -1.0378 H       1  UNL1        0.0640
     38 H           2.1106    1.6276   -0.6324 H       1  UNL1        0.1536
     39 H           3.5605   -3.3667   -1.6075 H       1  UNL1        0.1048
     40 H           7.5721   -1.1162   -0.8817 H       1  UNL1        0.0654
     41 H           6.3854    2.7337    0.3757 H       1  UNL1        0.0844
     42 H           2.3076   -0.4080    2.0793 H       1  UNL1        0.0637
     43 H           0.4257   -1.2459    3.4556 H       1  UNL1        0.0647
     44 H          -2.0973    1.2992   -0.9841 H       1  UNL1        0.0331
     45 H          -2.4459   -0.1278   -1.9969 H       1  UNL1        0.0331
     46 H          -4.0149    1.7565   -2.2710 H       1  UNL1        0.0826
@<TRIPOS>BOND
     1     1     2    1
     2     2     3    2
     3     3     4    1
     4     4     5    1
     5     5     6    1
     6     4     7    1
     7     7     8   ar
     8     8     9   ar
     9     9    10    1
    10    10    11    1
    11    11    12   ar
    12    12    13   ar
    13    13    14   ar
    14    14    15   ar
    15    15    16   ar
    16    16    17   ar
    17    17    18    1
    18    17    19   ar
    19    19    20   ar
    20    20    21   ar
    21     9    22   ar
    22    22    23   ar
    23    23    24   ar
    24    24    25    1
    25     4    26    1
    26    26    27    1
    27    27    28    1
    28    28    29    1
    29    28    30    1
    30    28    31    1
    31    27    32    1
    32    32     2    1
    33    24     7   ar
    34    21    11   ar
    35    21    15   ar
    36     1    33    1
    37     1    34    1
    38     5    35    1
    39     5    36    1
    40     8    37    1
    41    10    38    1
    42    13    39    1
    43    16    40    1
    44    19    41    1
    45    22    42    1
    46    23    43    1
    47    26    44    1
    48    26    45    1
    49    27    46    1
