
     RDKit          3D

 41 43  0  0  0  0  0  0  0  0999 V2000
   -1.7942   -0.2243   -0.6847 O   0  0  0  0  0  0  0  0  0  0  0  0
   -1.9987    0.8319   -0.0766 C   0  0  0  0  0  0  0  0  0  0  0  0
   -0.9656    1.9312   -0.0987 C   0  0  0  0  0  0  0  0  0  0  0  0
    0.1784    1.4632   -0.9218 C   0  0  0  0  0  0  0  0  0  0  0  0
    1.2079    0.7996   -0.3729 N   0  0  0  0  0  0  0  0  0  0  0  0
    2.2767    0.3462   -1.0554 C   0  0  0  0  0  0  0  0  0  0  0  0
    3.3424   -0.3520   -0.4275 N   0  0  0  0  0  0  0  0  0  0  0  0
    3.2778   -0.5830    0.9839 C   0  0  0  0  0  0  0  0  0  0  0  0
    4.6371   -0.8194    1.6015 C   0  0  0  0  0  0  0  0  0  0  0  0
    5.3432   -1.7360    0.8073 O   0  0  0  0  0  0  0  0  0  0  0  0
    5.6763   -1.0789   -0.3704 C   0  0  0  0  0  0  0  0  0  0  0  0
    4.4507   -0.8076   -1.2092 C   0  0  0  0  0  0  0  0  0  0  0  0
    2.2678    0.6066   -2.4140 C   0  0  0  0  0  0  0  0  0  0  0  0
    1.2127    1.2868   -2.9765 C   0  0  0  0  0  0  0  0  0  0  0  0
    1.1816    1.5394   -4.2295 O   0  0  0  0  0  0  0  0  0  0  0  0
    0.1758    1.7127   -2.2405 N   0  0  0  0  0  0  0  0  0  0  0  0
   -3.1801    1.0649    0.6548 N   0  0  0  0  0  0  0  0  0  0  0  0
   -4.2386    0.1609    0.7828 C   0  0  0  0  0  0  0  0  0  0  0  0
   -4.2810   -1.0824    0.2155 C   0  0  0  0  0  0  0  0  0  0  0  0
   -5.3799   -1.9447    0.3846 C   0  0  0  0  0  0  0  0  0  0  0  0
   -6.4414   -1.5144    1.1469 C   0  0  0  0  0  0  0  0  0  0  0  0
   -7.5110   -2.3596    1.3087 F   0  0  0  0  0  0  0  0  0  0  0  0
   -6.4091   -0.2695    1.7202 C   0  0  0  0  0  0  0  0  0  0  0  0
   -5.3329    0.5513    1.5434 C   0  0  0  0  0  0  0  0  0  0  0  0
   -0.6527    2.1062    0.9571 H   0  0  0  0  0  0  0  0  0  0  0  0
   -1.3804    2.8475   -0.5392 H   0  0  0  0  0  0  0  0  0  0  0  0
    2.8005    0.2419    1.5281 H   0  0  0  0  0  0  0  0  0  0  0  0
    2.6767   -1.5071    1.1565 H   0  0  0  0  0  0  0  0  0  0  0  0
    4.4870   -1.2941    2.5958 H   0  0  0  0  0  0  0  0  0  0  0  0
    5.2518    0.1002    1.6499 H   0  0  0  0  0  0  0  0  0  0  0  0
    6.2556   -0.1557   -0.1810 H   0  0  0  0  0  0  0  0  0  0  0  0
    6.3187   -1.7799   -0.9527 H   0  0  0  0  0  0  0  0  0  0  0  0
    4.1539   -1.7742   -1.6865 H   0  0  0  0  0  0  0  0  0  0  0  0
    4.7659   -0.0559   -1.9819 H   0  0  0  0  0  0  0  0  0  0  0  0
    3.0706    0.2915   -3.0617 H   0  0  0  0  0  0  0  0  0  0  0  0
   -0.6287    2.2318   -2.6722 H   0  0  0  0  0  0  0  0  0  0  0  0
   -3.2922    2.0119    1.1625 H   0  0  0  0  0  0  0  0  0  0  0  0
   -3.4813   -1.4755   -0.3914 H   0  0  0  0  0  0  0  0  0  0  0  0
   -5.3960   -2.9155   -0.0672 H   0  0  0  0  0  0  0  0  0  0  0  0
   -7.2578    0.0729    2.3289 H   0  0  0  0  0  0  0  0  0  0  0  0
   -5.3876    1.5313    2.0368 H   0  0  0  0  0  0  0  0  0  0  0  0
  1  2  2  0
  2  3  1  0
  3  4  1  0
  4  5  2  0
  5  6  1  0
  6  7  1  0
  7  8  1  0
  8  9  1  0
  9 10  1  0
 10 11  1  0
 11 12  1  0
  6 13  2  0
 13 14  1  0
 14 15  2  0
 14 16  1  0
  2 17  1  0
 17 18  1  0
 18 19  2  0
 19 20  1  0
 20 21  2  0
 21 22  1  0
 21 23  1  0
 23 24  2  0
 16  4  1  0
 24 18  1  0
 12  7  1  0
  3 25  1  0
  3 26  1  0
  8 27  1  0
  8 28  1  0
  9 29  1  0
  9 30  1  0
 11 31  1  0
 11 32  1  0
 12 33  1  0
 12 34  1  0
 13 35  1  0
 16 36  1  0
 17 37  1  0
 19 38  1  0
 20 39  1  0
 23 40  1  0
 24 41  1  0
M  END
$$$$
