@<TRIPOS>MOLECULE
*****
 41 43 0 0 0
SMALL
GASTEIGER

@<TRIPOS>ATOM
      1 O          -1.7942   -0.2243   -0.6847 O.2     1  UNL1       -0.2750
      2 C          -1.9987    0.8319   -0.0766 C.2     1  UNL1        0.2245
      3 C          -0.9656    1.9312   -0.0987 C.3     1  UNL1        0.0824
      4 C           0.1784    1.4632   -0.9218 C.ar    1  UNL1        0.1206
      5 N           1.2079    0.7996   -0.3729 N.ar    1  UNL1       -0.2186
      6 C           2.2767    0.3462   -1.0554 C.ar    1  UNL1        0.1285
      7 N           3.3424   -0.3520   -0.4275 N.pl3   1  UNL1       -0.3106
      8 C           3.2778   -0.5830    0.9839 C.3     1  UNL1        0.0370
      9 C           4.6371   -0.8194    1.6015 C.3     1  UNL1        0.0634
     10 O           5.3432   -1.7360    0.8073 O.3     1  UNL1       -0.3767
     11 C           5.6763   -1.0789   -0.3704 C.3     1  UNL1        0.0634
     12 C           4.4507   -0.8076   -1.2092 C.3     1  UNL1        0.0370
     13 C           2.2678    0.6066   -2.4140 C.ar    1  UNL1        0.0427
     14 C           1.2127    1.2868   -2.9765 C.ar    1  UNL1        0.2533
     15 O           1.1816    1.5394   -4.2295 O.2     1  UNL1       -0.2677
     16 N           0.1758    1.7127   -2.2405 N.ar    1  UNL1       -0.3104
     17 N          -3.1801    1.0649    0.6548 N.am    1  UNL1       -0.2851
     18 C          -4.2386    0.1609    0.7828 C.ar    1  UNL1        0.0336
     19 C          -4.2810   -1.0824    0.2155 C.ar    1  UNL1       -0.0378
     20 C          -5.3799   -1.9447    0.3846 C.ar    1  UNL1       -0.0247
     21 C          -6.4414   -1.5144    1.1469 C.ar    1  UNL1        0.1235
     22 F          -7.5110   -2.3596    1.3087 F       1  UNL1       -0.2055
     23 C          -6.4091   -0.2695    1.7202 C.ar    1  UNL1       -0.0247
     24 C          -5.3329    0.5513    1.5434 C.ar    1  UNL1       -0.0378
     25 H          -0.6527    2.1062    0.9571 H       1  UNL1        0.0438
     26 H          -1.3804    2.8475   -0.5392 H       1  UNL1        0.0438
     27 H           2.8005    0.2419    1.5281 H       1  UNL1        0.0487
     28 H           2.6767   -1.5071    1.1565 H       1  UNL1        0.0487
     29 H           4.4870   -1.2941    2.5958 H       1  UNL1        0.0575
     30 H           5.2518    0.1002    1.6499 H       1  UNL1        0.0575
     31 H           6.2556   -0.1557   -0.1810 H       1  UNL1        0.0575
     32 H           6.3187   -1.7799   -0.9527 H       1  UNL1        0.0575
     33 H           4.1539   -1.7742   -1.6865 H       1  UNL1        0.0487
     34 H           4.7659   -0.0559   -1.9819 H       1  UNL1        0.0487
     35 H           3.0706    0.2915   -3.0617 H       1  UNL1        0.0706
     36 H          -0.6287    2.2318   -2.6722 H       1  UNL1        0.1700
     37 H          -3.2922    2.0119    1.1625 H       1  UNL1        0.1548
     38 H          -3.4813   -1.4755   -0.3914 H       1  UNL1        0.0637
     39 H          -5.3960   -2.9155   -0.0672 H       1  UNL1        0.0647
     40 H          -7.2578    0.0729    2.3289 H       1  UNL1        0.0647
     41 H          -5.3876    1.5313    2.0368 H       1  UNL1        0.0637
@<TRIPOS>BOND
     1     1     2    2
     2     2     3    1
     3     3     4    1
     4     4     5   ar
     5     5     6   ar
     6     6     7    1
     7     7     8    1
     8     8     9    1
     9     9    10    1
    10    10    11    1
    11    11    12    1
    12     6    13   ar
    13    13    14   ar
    14    14    15    2
    15    14    16   ar
    16     2    17   am
    17    17    18    1
    18    18    19   ar
    19    19    20   ar
    20    20    21   ar
    21    21    22    1
    22    21    23   ar
    23    23    24   ar
    24    16     4   ar
    25    24    18   ar
    26    12     7    1
    27     3    25    1
    28     3    26    1
    29     8    27    1
    30     8    28    1
    31     9    29    1
    32     9    30    1
    33    11    31    1
    34    11    32    1
    35    12    33    1
    36    12    34    1
    37    13    35    1
    38    16    36    1
    39    17    37    1
    40    19    38    1
    41    20    39    1
    42    23    40    1
    43    24    41    1
