@<TRIPOS>MOLECULE
*****
 47 48 0 0 0
SMALL
GASTEIGER

@<TRIPOS>ATOM
      1 C           7.2330   -2.0515   -2.8400 C.3     1  UNL1        0.0790
      2 O           7.5384   -1.6461   -1.5088 O.3     1  UNL1       -0.4914
      3 C           6.5353   -1.1599   -0.6863 C.ar    1  UNL1        0.1618
      4 C           5.2469   -1.0633   -1.1407 C.ar    1  UNL1       -0.0092
      5 C           4.1855   -0.5736   -0.3402 C.ar    1  UNL1       -0.0212
      6 C           2.8511   -0.5116   -0.8638 C.2     1  UNL1       -0.0512
      7 C           1.7131   -0.1064   -0.4834 C.2     1  UNL1       -0.0182
      8 C           1.1061    0.5043    0.6411 C.2     1  UNL1        0.1635
      9 O           1.6424    0.8451    1.6838 O.2     1  UNL1       -0.2922
     10 C          -0.3935    0.7745    0.5550 C.3     1  UNL1        0.0724
     11 C          -0.9088    1.4207    1.7552 C.2     1  UNL1        0.1635
     12 O           0.0448    1.8021    2.5918 O.2     1  UNL1       -0.2922
     13 C          -2.2459    1.6771    2.1245 C.2     1  UNL1       -0.0182
     14 C          -3.4076    1.5133    1.6859 C.2     1  UNL1       -0.0512
     15 C          -4.1463    0.9881    0.5720 C.ar    1  UNL1       -0.0212
     16 C          -3.6036    0.6339   -0.6364 C.ar    1  UNL1       -0.0509
     17 C          -4.3921    0.0566   -1.6418 C.ar    1  UNL1       -0.0160
     18 C          -5.7192   -0.1755   -1.4682 C.ar    1  UNL1        0.1585
     19 O          -6.4692   -0.7434   -2.4716 O.3     1  UNL1       -0.5033
     20 C          -6.3015    0.1627   -0.2825 C.ar    1  UNL1        0.1618
     21 O          -7.6456   -0.0304   -0.0039 O.3     1  UNL1       -0.4914
     22 C          -8.2445    0.3198    1.2134 C.3     1  UNL1        0.0790
     23 C          -5.5350    0.7285    0.7083 C.ar    1  UNL1       -0.0092
     24 C           4.5517   -0.2073    0.9176 C.ar    1  UNL1       -0.0509
     25 C           5.8647   -0.3031    1.3882 C.ar    1  UNL1       -0.0160
     26 C           6.8468   -0.7768    0.5881 C.ar    1  UNL1        0.1585
     27 O           8.1633   -0.8688    1.0715 O.3     1  UNL1       -0.5033
     28 H           8.1058   -2.5017   -3.3082 H       1  UNL1        0.0660
     29 H           6.4109   -2.8025   -2.7459 H       1  UNL1        0.0660
     30 H           6.8212   -1.1801   -3.3819 H       1  UNL1        0.0660
     31 H           5.0069   -1.3672   -2.1521 H       1  UNL1        0.0661
     32 H           2.8109   -0.9701   -1.9475 H       1  UNL1        0.0625
     33 H           0.9133   -0.2961   -1.3240 H       1  UNL1        0.0653
     34 H          -0.9116   -0.1763    0.3699 H       1  UNL1        0.0426
     35 H          -0.5483    1.4825   -0.3001 H       1  UNL1        0.0426
     36 H          -2.2361    2.2161    3.1931 H       1  UNL1        0.0653
     37 H          -4.1936    1.9824    2.4552 H       1  UNL1        0.0625
     38 H          -2.5940    0.8003   -0.8892 H       1  UNL1        0.0625
     39 H          -3.9366   -0.2146   -2.5845 H       1  UNL1        0.0655
     40 H          -7.4574   -0.6471   -2.5826 H       1  UNL1        0.2923
     41 H          -7.9684    1.3938    1.4184 H       1  UNL1        0.0660
     42 H          -7.7924   -0.2508    2.0735 H       1  UNL1        0.0660
     43 H          -9.3340    0.2709    1.2011 H       1  UNL1        0.0660
     44 H          -5.9680    1.0034    1.6618 H       1  UNL1        0.0661
     45 H           3.8705    0.1698    1.6384 H       1  UNL1        0.0625
     46 H           6.1209    0.0003    2.4046 H       1  UNL1        0.0655
     47 H           8.3698   -1.6739    1.6713 H       1  UNL1        0.2923
@<TRIPOS>BOND
     1     1     2    1
     2     2     3    1
     3     3     4   ar
     4     4     5   ar
     5     5     6    1
     6     6     7    2
     7     7     8    1
     8     8     9    2
     9     8    10    1
    10    10    11    1
    11    11    12    2
    12    11    13    1
    13    13    14    2
    14    14    15    1
    15    15    16   ar
    16    16    17   ar
    17    17    18   ar
    18    18    19    1
    19    18    20   ar
    20    20    21    1
    21    21    22    1
    22    20    23   ar
    23     5    24   ar
    24    24    25   ar
    25    25    26   ar
    26    26    27    1
    27    26     3   ar
    28    23    15   ar
    29     1    28    1
    30     1    29    1
    31     1    30    1
    32     4    31    1
    33     6    32    1
    34     7    33    1
    35    10    34    1
    36    10    35    1
    37    13    36    1
    38    14    37    1
    39    16    38    1
    40    17    39    1
    41    19    40    1
    42    22    41    1
    43    22    42    1
    44    22    43    1
    45    23    44    1
    46    24    45    1
    47    25    46    1
    48    27    47    1
