@<TRIPOS>MOLECULE
*****
 53 56 0 0 0
SMALL
GASTEIGER

@<TRIPOS>ATOM
      1 C           4.8982    3.0653   -0.6837 C.3     1  UNL1       -0.0313
      2 C           3.8972    2.1496   -0.1458 C.ar    1  UNL1        0.0143
      3 S           2.2874    2.6133    0.4219 S.2     1  UNL1       -0.0749
      4 C           1.7713    0.9194    0.8867 C.ar    1  UNL1        0.0991
      5 C           0.4507    0.5701    1.4625 C.3     1  UNL1        0.0691
      6 C          -0.5515    1.6792    1.2792 C.3     1  UNL1       -0.0405
      7 N          -0.0852   -0.6167    0.8123 N.pl3   1  UNL1       -0.3049
      8 C          -1.3474   -1.1458    1.1887 C.ar    1  UNL1        0.2174
      9 N          -1.3231   -2.0415    2.2115 N.ar    1  UNL1       -0.2228
     10 C          -2.4696   -2.5718    2.6074 C.ar    1  UNL1        0.0344
     11 C          -3.6647   -2.2162    1.9874 C.ar    1  UNL1       -0.0029
     12 C          -3.7065   -1.3040    0.9426 C.ar    1  UNL1        0.1355
     13 N          -4.9088   -0.9524    0.3207 N.am    1  UNL1       -0.2124
     14 C          -6.2021   -1.4845    0.6982 C.2     1  UNL1        0.4088
     15 O          -6.6054   -1.8737    1.8219 O.2     1  UNL1       -0.2258
     16 O          -7.0019   -1.5040   -0.4617 O.3     1  UNL1       -0.4480
     17 C          -6.2395   -0.9446   -1.5225 C.3     1  UNL1        0.1155
     18 C          -5.2523   -0.0754   -0.7669 C.3     1  UNL1        0.0953
     19 C          -4.1350    0.4459   -1.5863 C.3     1  UNL1        0.0746
     20 C          -3.3627    1.5323   -0.9127 C.3     1  UNL1       -0.0371
     21 O          -3.3549   -0.5360   -2.1933 O.3     1  UNL1       -0.3901
     22 N          -2.5068   -0.8089    0.5963 N.ar    1  UNL1       -0.1991
     23 N           2.8485    0.2551    0.5612 N.ar    1  UNL1       -0.2419
     24 C           3.8926    0.8026    0.0628 C.ar    1  UNL1        0.0814
     25 C           5.1265    0.0259   -0.3074 C.ar    1  UNL1        0.0012
     26 C           6.3713    0.5033    0.0443 C.ar    1  UNL1       -0.0512
     27 C           7.5296   -0.1711   -0.2714 C.ar    1  UNL1       -0.0428
     28 C           7.4175   -1.3587   -0.9610 C.ar    1  UNL1        0.0410
     29 CL          8.8955   -2.2333   -1.3718 Cl      1  UNL1       -0.0835
     30 C           6.1872   -1.8587   -1.3247 C.ar    1  UNL1       -0.0428
     31 C           5.0512   -1.1545   -0.9905 C.ar    1  UNL1       -0.0512
     32 H           5.5733    2.5293   -1.3713 H       1  UNL1        0.0283
     33 H           5.4364    3.6585    0.0828 H       1  UNL1        0.0283
     34 H           4.3566    3.8247   -1.3167 H       1  UNL1        0.0283
     35 H           0.5687    0.3489    2.5513 H       1  UNL1        0.0566
     36 H          -0.3860    2.1361    0.2843 H       1  UNL1        0.0251
     37 H          -1.5503    1.2445    1.3349 H       1  UNL1        0.0251
     38 H          -0.3501    2.4354    2.0662 H       1  UNL1        0.0251
     39 H           0.4623   -1.0914    0.0562 H       1  UNL1        0.1496
     40 H          -2.4553   -3.2847    3.4208 H       1  UNL1        0.0832
     41 H          -4.5414   -2.7063    2.3833 H       1  UNL1        0.0667
     42 H          -5.7194   -1.7721   -2.0314 H       1  UNL1        0.0718
     43 H          -6.8746   -0.3525   -2.2115 H       1  UNL1        0.0718
     44 H          -5.8552    0.8035   -0.4198 H       1  UNL1        0.0565
     45 H          -4.6353    0.9577   -2.4803 H       1  UNL1        0.0610
     46 H          -2.2473    1.4168   -1.0492 H       1  UNL1        0.0255
     47 H          -3.6270    1.6906    0.1623 H       1  UNL1        0.0255
     48 H          -3.5509    2.5558   -1.3650 H       1  UNL1        0.0255
     49 H          -3.7199   -1.4129   -1.8573 H       1  UNL1        0.2098
     50 H           6.4555    1.4538    0.5957 H       1  UNL1        0.0625
     51 H           8.5178    0.2122    0.0103 H       1  UNL1        0.0632
     52 H           6.1440   -2.8060   -1.8719 H       1  UNL1        0.0632
     53 H           4.0909   -1.5522   -1.2788 H       1  UNL1        0.0625
@<TRIPOS>BOND
     1     1     2    1
     2     2     3   ar
     3     3     4   ar
     4     4     5    1
     5     5     6    1
     6     5     7    1
     7     7     8    1
     8     8     9   ar
     9     9    10   ar
    10    10    11   ar
    11    11    12   ar
    12    12    13    1
    13    13    14   am
    14    14    15    2
    15    14    16    1
    16    16    17    1
    17    17    18    1
    18    18    19    1
    19    19    20    1
    20    19    21    1
    21    12    22   ar
    22     4    23   ar
    23    23    24   ar
    24    24    25    1
    25    25    26   ar
    26    26    27   ar
    27    27    28   ar
    28    28    29    1
    29    28    30   ar
    30    30    31   ar
    31    24     2   ar
    32    31    25   ar
    33    22     8   ar
    34    18    13    1
    35     1    32    1
    36     1    33    1
    37     1    34    1
    38     5    35    1
    39     6    36    1
    40     6    37    1
    41     6    38    1
    42     7    39    1
    43    10    40    1
    44    11    41    1
    45    17    42    1
    46    17    43    1
    47    18    44    1
    48    19    45    1
    49    20    46    1
    50    20    47    1
    51    20    48    1
    52    21    49    1
    53    26    50    1
    54    27    51    1
    55    30    52    1
    56    31    53    1
