
     RDKit          3D

 53 56  0  0  0  0  0  0  0  0999 V2000
    4.8982    3.0653   -0.6837 C   0  0  0  0  0  0  0  0  0  0  0  0
    3.8972    2.1496   -0.1458 C   0  0  0  0  0  0  0  0  0  0  0  0
    2.2874    2.6133    0.4219 S   0  0  0  0  0  0  0  0  0  0  0  0
    1.7713    0.9194    0.8867 C   0  0  0  0  0  0  0  0  0  0  0  0
    0.4507    0.5701    1.4625 C   0  0  0  0  0  0  0  0  0  0  0  0
   -0.5515    1.6792    1.2792 C   0  0  0  0  0  0  0  0  0  0  0  0
   -0.0852   -0.6167    0.8123 N   0  0  0  0  0  0  0  0  0  0  0  0
   -1.3474   -1.1458    1.1887 C   0  0  0  0  0  0  0  0  0  0  0  0
   -1.3231   -2.0415    2.2115 N   0  0  0  0  0  0  0  0  0  0  0  0
   -2.4696   -2.5718    2.6074 C   0  0  0  0  0  0  0  0  0  0  0  0
   -3.6647   -2.2162    1.9874 C   0  0  0  0  0  0  0  0  0  0  0  0
   -3.7065   -1.3040    0.9426 C   0  0  0  0  0  0  0  0  0  0  0  0
   -4.9088   -0.9524    0.3207 N   0  0  0  0  0  0  0  0  0  0  0  0
   -6.2021   -1.4845    0.6982 C   0  0  0  0  0  0  0  0  0  0  0  0
   -6.6054   -1.8737    1.8219 O   0  0  0  0  0  0  0  0  0  0  0  0
   -7.0019   -1.5040   -0.4617 O   0  0  0  0  0  0  0  0  0  0  0  0
   -6.2395   -0.9446   -1.5225 C   0  0  0  0  0  0  0  0  0  0  0  0
   -5.2523   -0.0754   -0.7669 C   0  0  2  0  0  0  0  0  0  0  0  0
   -4.1350    0.4459   -1.5863 C   0  0  1  0  0  0  0  0  0  0  0  0
   -3.3627    1.5323   -0.9127 C   0  0  0  0  0  0  0  0  0  0  0  0
   -3.3549   -0.5360   -2.1933 O   0  0  0  0  0  0  0  0  0  0  0  0
   -2.5068   -0.8089    0.5963 N   0  0  0  0  0  0  0  0  0  0  0  0
    2.8485    0.2551    0.5612 N   0  0  0  0  0  0  0  0  0  0  0  0
    3.8926    0.8026    0.0628 C   0  0  0  0  0  0  0  0  0  0  0  0
    5.1265    0.0259   -0.3074 C   0  0  0  0  0  0  0  0  0  0  0  0
    6.3713    0.5033    0.0443 C   0  0  0  0  0  0  0  0  0  0  0  0
    7.5296   -0.1711   -0.2714 C   0  0  0  0  0  0  0  0  0  0  0  0
    7.4175   -1.3587   -0.9610 C   0  0  0  0  0  0  0  0  0  0  0  0
    8.8955   -2.2333   -1.3718 Cl  0  0  0  0  0  0  0  0  0  0  0  0
    6.1872   -1.8587   -1.3247 C   0  0  0  0  0  0  0  0  0  0  0  0
    5.0512   -1.1545   -0.9905 C   0  0  0  0  0  0  0  0  0  0  0  0
    5.5733    2.5293   -1.3713 H   0  0  0  0  0  0  0  0  0  0  0  0
    5.4364    3.6585    0.0828 H   0  0  0  0  0  0  0  0  0  0  0  0
    4.3566    3.8247   -1.3167 H   0  0  0  0  0  0  0  0  0  0  0  0
    0.5687    0.3489    2.5513 H   0  0  0  0  0  0  0  0  0  0  0  0
   -0.3860    2.1361    0.2843 H   0  0  0  0  0  0  0  0  0  0  0  0
   -1.5503    1.2445    1.3349 H   0  0  0  0  0  0  0  0  0  0  0  0
   -0.3501    2.4354    2.0662 H   0  0  0  0  0  0  0  0  0  0  0  0
    0.4623   -1.0914    0.0562 H   0  0  0  0  0  0  0  0  0  0  0  0
   -2.4553   -3.2847    3.4208 H   0  0  0  0  0  0  0  0  0  0  0  0
   -4.5414   -2.7063    2.3833 H   0  0  0  0  0  0  0  0  0  0  0  0
   -5.7194   -1.7721   -2.0314 H   0  0  0  0  0  0  0  0  0  0  0  0
   -6.8746   -0.3525   -2.2115 H   0  0  0  0  0  0  0  0  0  0  0  0
   -5.8552    0.8035   -0.4198 H   0  0  0  0  0  0  0  0  0  0  0  0
   -4.6353    0.9577   -2.4803 H   0  0  0  0  0  0  0  0  0  0  0  0
   -2.2473    1.4168   -1.0492 H   0  0  0  0  0  0  0  0  0  0  0  0
   -3.6270    1.6906    0.1623 H   0  0  0  0  0  0  0  0  0  0  0  0
   -3.5509    2.5558   -1.3650 H   0  0  0  0  0  0  0  0  0  0  0  0
   -3.7199   -1.4129   -1.8573 H   0  0  0  0  0  0  0  0  0  0  0  0
    6.4555    1.4538    0.5957 H   0  0  0  0  0  0  0  0  0  0  0  0
    8.5178    0.2122    0.0103 H   0  0  0  0  0  0  0  0  0  0  0  0
    6.1440   -2.8060   -1.8719 H   0  0  0  0  0  0  0  0  0  0  0  0
    4.0909   -1.5522   -1.2788 H   0  0  0  0  0  0  0  0  0  0  0  0
  1  2  1  0
  2  3  1  0
  3  4  1  0
  4  5  1  0
  5  6  1  0
  5  7  1  0
  7  8  1  0
  8  9  2  0
  9 10  1  0
 10 11  2  0
 11 12  1  0
 12 13  1  0
 13 14  1  0
 14 15  2  0
 14 16  1  0
 16 17  1  0
 17 18  1  0
 18 19  1  0
 19 20  1  0
 19 21  1  0
 12 22  2  0
  4 23  2  0
 23 24  1  0
 24 25  1  0
 25 26  2  0
 26 27  1  0
 27 28  2  0
 28 29  1  0
 28 30  1  0
 30 31  2  0
 24  2  2  0
 31 25  1  0
 22  8  1  0
 18 13  1  0
  1 32  1  0
  1 33  1  0
  1 34  1  0
  5 35  1  0
  6 36  1  0
  6 37  1  0
  6 38  1  0
  7 39  1  0
 10 40  1  0
 11 41  1  0
 17 42  1  0
 17 43  1  0
 18 44  1  1
 19 45  1  6
 20 46  1  0
 20 47  1  0
 20 48  1  0
 21 49  1  0
 26 50  1  0
 27 51  1  0
 30 52  1  0
 31 53  1  0
M  END
$$$$
