@<TRIPOS>MOLECULE
*****
 43 47 0 0 0
SMALL
GASTEIGER

@<TRIPOS>ATOM
      1 C           7.9830   -0.2041   -0.6219 C.3     1  UNL1        0.0788
      2 O           7.0945    0.8029   -0.2218 O.3     1  UNL1       -0.4951
      3 C           5.7288    0.5938   -0.0605 C.ar    1  UNL1        0.1201
      4 C           4.9618    1.6842    0.3421 C.ar    1  UNL1       -0.0194
      5 C           3.6012    1.5154    0.5130 C.ar    1  UNL1       -0.0505
      6 C           2.9668    0.3101    0.3018 C.ar    1  UNL1       -0.0148
      7 C           1.5220    0.1341    0.4837 C.ar    1  UNL1        0.0184
      8 C           0.6211    1.1432    0.2461 C.ar    1  UNL1        0.0391
      9 N          -0.6870    0.8929    0.4403 N.ar    1  UNL1       -0.2350
     10 C          -1.1237   -0.3124    0.8578 C.ar    1  UNL1        0.1632
     11 C          -2.3873   -0.8106    1.1267 C.ar    1  UNL1        0.0466
     12 C          -3.6142   -0.0693    1.0010 C.ar    1  UNL1       -0.0037
     13 C          -4.0994    0.6456    2.0609 C.ar    1  UNL1       -0.0532
     14 C          -5.2915    1.3753    1.9602 C.ar    1  UNL1       -0.0591
     15 C          -5.9537    1.3447    0.7553 C.ar    1  UNL1       -0.0357
     16 C          -5.4956    0.6321   -0.3446 C.ar    1  UNL1        0.0715
     17 N          -6.1783    0.6306   -1.5056 N.ar    1  UNL1       -0.2550
     18 C          -5.7379   -0.0576   -2.5692 C.ar    1  UNL1        0.0283
     19 C          -4.5671   -0.7678   -2.4524 C.ar    1  UNL1       -0.0430
     20 C          -3.8556   -0.7796   -1.2780 C.ar    1  UNL1       -0.0506
     21 C          -4.3083   -0.0692   -0.1770 C.ar    1  UNL1        0.0082
     22 C          -2.2623   -2.1357    1.5325 C.ar    1  UNL1        0.0597
     23 N          -0.9471   -2.3961    1.4978 N.ar    1  UNL1       -0.1727
     24 N          -0.2722   -1.3218    1.1000 N.ar    1  UNL1       -0.2206
     25 C           1.0357   -1.0829    0.9094 C.ar    1  UNL1        0.0406
     26 C           3.7460   -0.7563   -0.0965 C.ar    1  UNL1       -0.0505
     27 C           5.1215   -0.6243   -0.2793 C.ar    1  UNL1       -0.0194
     28 H           8.9664    0.2775   -0.8035 H       1  UNL1        0.0660
     29 H           7.6808   -0.7291   -1.5398 H       1  UNL1        0.0660
     30 H           8.1180   -0.9407    0.2184 H       1  UNL1        0.0660
     31 H           5.4620    2.6441    0.5102 H       1  UNL1        0.0654
     32 H           3.0291    2.3724    0.8251 H       1  UNL1        0.0625
     33 H           1.0017    2.0972   -0.0879 H       1  UNL1        0.0837
     34 H          -3.5998    0.6925    3.0305 H       1  UNL1        0.0624
     35 H          -5.6485    1.9327    2.8244 H       1  UNL1        0.0618
     36 H          -6.8681    1.8987    0.6652 H       1  UNL1        0.0639
     37 H          -6.3059   -0.0506   -3.5150 H       1  UNL1        0.0830
     38 H          -4.2066   -1.3240   -3.3007 H       1  UNL1        0.0633
     39 H          -2.9231   -1.3341   -1.1555 H       1  UNL1        0.0625
     40 H          -3.0841   -2.8042    1.8156 H       1  UNL1        0.0855
     41 H           1.7366   -1.9030    1.1051 H       1  UNL1        0.0837
     42 H           3.2858   -1.7025   -0.2690 H       1  UNL1        0.0625
     43 H           5.7545   -1.4439   -0.5907 H       1  UNL1        0.0654
@<TRIPOS>BOND
     1     1     2    1
     2     2     3    1
     3     3     4   ar
     4     4     5   ar
     5     5     6   ar
     6     6     7    1
     7     7     8   ar
     8     8     9   ar
     9     9    10   ar
    10    10    11   ar
    11    11    12    1
    12    12    13   ar
    13    13    14   ar
    14    14    15   ar
    15    15    16   ar
    16    16    17   ar
    17    17    18   ar
    18    18    19   ar
    19    19    20   ar
    20    20    21   ar
    21    11    22   ar
    22    22    23   ar
    23    23    24   ar
    24    24    25   ar
    25     6    26   ar
    26    26    27   ar
    27    27     3   ar
    28    25     7   ar
    29    24    10   ar
    30    21    12   ar
    31    21    16   ar
    32     1    28    1
    33     1    29    1
    34     1    30    1
    35     4    31    1
    36     5    32    1
    37     8    33    1
    38    13    34    1
    39    14    35    1
    40    15    36    1
    41    18    37    1
    42    19    38    1
    43    20    39    1
    44    22    40    1
    45    25    41    1
    46    26    42    1
    47    27    43    1
