
     RDKit          3D

 63 67  0  0  0  0  0  0  0  0999 V2000
   -5.1412   -2.3041    2.8639 N   0  0  0  0  0  0  0  0  0  0  0  0
   -6.5143   -2.4050    2.5476 C   0  0  0  0  0  0  0  0  0  0  0  0
   -7.3751   -3.1447    3.3641 C   0  0  0  0  0  0  0  0  0  0  0  0
   -8.7140   -3.2406    3.0538 C   0  0  0  0  0  0  0  0  0  0  0  0
   -9.1844   -2.5992    1.9335 C   0  0  0  0  0  0  0  0  0  0  0  0
   -8.3156   -1.8638    1.1264 C   0  0  0  0  0  0  0  0  0  0  0  0
   -6.9794   -1.7607    1.4248 C   0  0  0  0  0  0  0  0  0  0  0  0
   -6.0791   -1.0164    0.6168 N   0  0  0  0  0  0  0  0  0  0  0  0
   -5.8947    0.3568    0.9122 C   0  0  0  0  0  0  0  0  0  0  0  0
   -6.5382    0.8659    1.8805 O   0  0  0  0  0  0  0  0  0  0  0  0
   -4.9788    1.1494    0.1065 C   0  0  0  0  0  0  0  0  0  0  0  0
   -4.7953    2.5123    0.3736 C   0  0  0  0  0  0  0  0  0  0  0  0
   -3.9333    3.2902   -0.3675 C   0  0  0  0  0  0  0  0  0  0  0  0
   -3.2045    2.7651   -1.4139 C   0  0  0  0  0  0  0  0  0  0  0  0
   -2.2664    3.5814   -2.2304 C   0  0  0  0  0  0  0  0  0  0  0  0
   -0.9536    3.5892   -1.6323 N   0  0  0  0  0  0  0  0  0  0  0  0
    0.0493    2.7273   -1.8558 C   0  0  0  0  0  0  0  0  0  0  0  0
    1.1322    3.0863   -1.0849 C   0  0  0  0  0  0  0  0  0  0  0  0
    2.4369    2.4694   -0.9790 C   0  0  0  0  0  0  0  0  0  0  0  0
    2.6995    1.3504   -1.7371 C   0  0  0  0  0  0  0  0  0  0  0  0
    3.9477    0.7340   -1.6555 C   0  0  0  0  0  0  0  0  0  0  0  0
    4.9346    1.2115   -0.8347 C   0  0  0  0  0  0  0  0  0  0  0  0
    6.2275    0.5552   -0.7607 C   0  0  0  0  0  0  0  0  0  0  0  0
    7.1102    1.0582    0.0228 O   0  0  0  0  0  0  0  0  0  0  0  0
    6.6224   -0.5880   -1.4642 N   0  0  0  0  0  0  0  0  0  0  0  0
    7.9095   -1.2415   -1.3844 C   0  0  0  0  0  0  0  0  0  0  0  0
    8.0511   -2.0720   -0.1474 C   0  0  0  0  0  0  0  0  0  0  0  0
    7.5890   -3.3845   -0.1435 C   0  0  0  0  0  0  0  0  0  0  0  0
    7.7263   -4.1409    0.9726 C   0  0  0  0  0  0  0  0  0  0  0  0
    8.3164   -3.6351    2.1085 C   0  0  0  0  0  0  0  0  0  0  0  0
    8.7562   -2.3671    2.0859 N   0  0  0  0  0  0  0  0  0  0  0  0
    8.6352   -1.5843    0.9883 C   0  0  0  0  0  0  0  0  0  0  0  0
    4.6492    2.3270   -0.0896 C   0  0  0  0  0  0  0  0  0  0  0  0
    3.4300    2.9520   -0.1514 C   0  0  0  0  0  0  0  0  0  0  0  0
    0.7359    4.1783   -0.4072 N   0  0  0  0  0  0  0  0  0  0  0  0
   -0.5013    4.4694   -0.7374 N   0  0  0  0  0  0  0  0  0  0  0  0
   -3.3759    1.4250   -1.6872 C   0  0  0  0  0  0  0  0  0  0  0  0
   -4.2500    0.6298   -0.9379 C   0  0  0  0  0  0  0  0  0  0  0  0
   -4.8071   -1.6257    3.5655 H   0  0  0  0  0  0  0  0  0  0  0  0
   -4.4622   -2.9183    2.3852 H   0  0  0  0  0  0  0  0  0  0  0  0
   -7.0204   -3.6507    4.2444 H   0  0  0  0  0  0  0  0  0  0  0  0
   -9.4032   -3.8188    3.6855 H   0  0  0  0  0  0  0  0  0  0  0  0
  -10.2336   -2.6801    1.7011 H   0  0  0  0  0  0  0  0  0  0  0  0
   -8.6650   -1.3512    0.2403 H   0  0  0  0  0  0  0  0  0  0  0  0
   -5.5979   -1.5269   -0.1574 H   0  0  0  0  0  0  0  0  0  0  0  0
   -5.3844    2.8980    1.2054 H   0  0  0  0  0  0  0  0  0  0  0  0
   -3.8252    4.3205   -0.1299 H   0  0  0  0  0  0  0  0  0  0  0  0
   -2.2263    3.1434   -3.2485 H   0  0  0  0  0  0  0  0  0  0  0  0
   -2.6343    4.6268   -2.3604 H   0  0  0  0  0  0  0  0  0  0  0  0
    0.0276    1.8964   -2.5178 H   0  0  0  0  0  0  0  0  0  0  0  0
    1.9721    0.9074   -2.4128 H   0  0  0  0  0  0  0  0  0  0  0  0
    4.1295   -0.1397   -2.2584 H   0  0  0  0  0  0  0  0  0  0  0  0
    5.9090   -1.0186   -2.1202 H   0  0  0  0  0  0  0  0  0  0  0  0
    8.7017   -0.4551   -1.3227 H   0  0  0  0  0  0  0  0  0  0  0  0
    8.0597   -1.9198   -2.2343 H   0  0  0  0  0  0  0  0  0  0  0  0
    7.1266   -3.7706   -1.0428 H   0  0  0  0  0  0  0  0  0  0  0  0
    7.3750   -5.1826    1.0190 H   0  0  0  0  0  0  0  0  0  0  0  0
    8.4413   -4.2222    3.0264 H   0  0  0  0  0  0  0  0  0  0  0  0
    9.0142   -0.5700    1.0223 H   0  0  0  0  0  0  0  0  0  0  0  0
    5.4432    2.6987    0.5611 H   0  0  0  0  0  0  0  0  0  0  0  0
    3.2370    3.8389    0.4561 H   0  0  0  0  0  0  0  0  0  0  0  0
   -2.8104    0.9848   -2.5109 H   0  0  0  0  0  0  0  0  0  0  0  0
   -4.3309   -0.4008   -1.2085 H   0  0  0  0  0  0  0  0  0  0  0  0
  1  2  1  0
  2  3  2  0
  3  4  1  0
  4  5  2  0
  5  6  1  0
  6  7  2  0
  7  8  1  0
  8  9  1  0
  9 10  2  0
  9 11  1  0
 11 12  2  0
 12 13  1  0
 13 14  2  0
 14 15  1  0
 15 16  1  0
 16 17  1  0
 17 18  2  0
 18 19  1  0
 19 20  2  0
 20 21  1  0
 21 22  2  0
 22 23  1  0
 23 24  2  0
 23 25  1  0
 25 26  1  0
 26 27  1  0
 27 28  2  0
 28 29  1  0
 29 30  2  0
 30 31  1  0
 31 32  2  0
 22 33  1  0
 33 34  2  0
 18 35  1  0
 35 36  2  0
 14 37  1  0
 37 38  2  0
  7  2  1  0
 38 11  1  0
 36 16  1  0
 34 19  1  0
 32 27  1  0
  1 39  1  0
  1 40  1  0
  3 41  1  0
  4 42  1  0
  5 43  1  0
  6 44  1  0
  8 45  1  0
 12 46  1  0
 13 47  1  0
 15 48  1  0
 15 49  1  0
 17 50  1  0
 20 51  1  0
 21 52  1  0
 25 53  1  0
 26 54  1  0
 26 55  1  0
 28 56  1  0
 29 57  1  0
 30 58  1  0
 32 59  1  0
 33 60  1  0
 34 61  1  0
 37 62  1  0
 38 63  1  0
M  END
$$$$
