@<TRIPOS>MOLECULE
*****
 63 67 0 0 0
SMALL
GASTEIGER

@<TRIPOS>ATOM
      1 N          -5.1412   -2.3041    2.8639 N.pl3   1  UNL1       -0.3565
      2 C          -6.5143   -2.4050    2.5476 C.ar    1  UNL1        0.0461
      3 C          -7.3751   -3.1447    3.3641 C.ar    1  UNL1       -0.0392
      4 C          -8.7140   -3.2406    3.0538 C.ar    1  UNL1       -0.0599
      5 C          -9.1844   -2.5992    1.9335 C.ar    1  UNL1       -0.0599
      6 C          -8.3156   -1.8638    1.1264 C.ar    1  UNL1       -0.0387
      7 C          -6.9794   -1.7607    1.4248 C.ar    1  UNL1        0.0545
      8 N          -6.0791   -1.0164    0.6168 N.am    1  UNL1       -0.2800
      9 C          -5.8947    0.3568    0.9122 C.2     1  UNL1        0.2483
     10 O          -6.5382    0.8659    1.8805 O.2     1  UNL1       -0.2699
     11 C          -4.9788    1.1494    0.1065 C.ar    1  UNL1        0.0370
     12 C          -4.7953    2.5123    0.3736 C.ar    1  UNL1       -0.0493
     13 C          -3.9333    3.2902   -0.3675 C.ar    1  UNL1       -0.0561
     14 C          -3.2045    2.7651   -1.4139 C.ar    1  UNL1       -0.0260
     15 C          -2.2664    3.5814   -2.2304 C.3     1  UNL1        0.0682
     16 N          -0.9536    3.5892   -1.6323 N.ar    1  UNL1       -0.2468
     17 C           0.0493    2.7273   -1.8558 C.ar    1  UNL1        0.0537
     18 C           1.1322    3.0863   -1.0849 C.ar    1  UNL1        0.1126
     19 C           2.4369    2.4694   -0.9790 C.ar    1  UNL1        0.0037
     20 C           2.6995    1.3504   -1.7371 C.ar    1  UNL1       -0.0517
     21 C           3.9477    0.7340   -1.6555 C.ar    1  UNL1       -0.0490
     22 C           4.9346    1.2115   -0.8347 C.ar    1  UNL1        0.0367
     23 C           6.2275    0.5552   -0.7607 C.2     1  UNL1        0.2443
     24 O           7.1102    1.0582    0.0228 O.2     1  UNL1       -0.2702
     25 N           6.6224   -0.5880   -1.4642 N.am    1  UNL1       -0.3072
     26 C           7.9095   -1.2415   -1.3844 C.3     1  UNL1        0.0386
     27 C           8.0511   -2.0720   -0.1474 C.ar    1  UNL1       -0.0122
     28 C           7.5890   -3.3845   -0.1435 C.ar    1  UNL1       -0.0542
     29 C           7.7263   -4.1409    0.9726 C.ar    1  UNL1       -0.0433
     30 C           8.3164   -3.6351    2.1085 C.ar    1  UNL1        0.0276
     31 N           8.7562   -2.3671    2.0859 N.ar    1  UNL1       -0.2629
     32 C           8.6352   -1.5843    0.9883 C.ar    1  UNL1        0.0322
     33 C           4.6492    2.3270   -0.0896 C.ar    1  UNL1       -0.0490
     34 C           3.4300    2.9520   -0.1514 C.ar    1  UNL1       -0.0517
     35 N           0.7359    4.1783   -0.4072 N.ar    1  UNL1       -0.1295
     36 N          -0.5013    4.4694   -0.7374 N.ar    1  UNL1       -0.0648
     37 C          -3.3759    1.4250   -1.6872 C.ar    1  UNL1       -0.0561
     38 C          -4.2500    0.6298   -0.9379 C.ar    1  UNL1       -0.0493
     39 H          -4.8071   -1.6257    3.5655 H       1  UNL1        0.1424
     40 H          -4.4622   -2.9183    2.3852 H       1  UNL1        0.1424
     41 H          -7.0204   -3.6507    4.2444 H       1  UNL1        0.0636
     42 H          -9.4032   -3.8188    3.6855 H       1  UNL1        0.0618
     43 H         -10.2336   -2.6801    1.7011 H       1  UNL1        0.0618
     44 H          -8.6650   -1.3512    0.2403 H       1  UNL1        0.0637
     45 H          -5.5979   -1.5269   -0.1574 H       1  UNL1        0.1552
     46 H          -5.3844    2.8980    1.2054 H       1  UNL1        0.0625
     47 H          -3.8252    4.3205   -0.1299 H       1  UNL1        0.0621
     48 H          -2.2263    3.1434   -3.2485 H       1  UNL1        0.0559
     49 H          -2.6343    4.6268   -2.3604 H       1  UNL1        0.0559
     50 H           0.0276    1.8964   -2.5178 H       1  UNL1        0.0849
     51 H           1.9721    0.9074   -2.4128 H       1  UNL1        0.0624
     52 H           4.1295   -0.1397   -2.2584 H       1  UNL1        0.0625
     53 H           5.9090   -1.0186   -2.1202 H       1  UNL1        0.1493
     54 H           8.7017   -0.4551   -1.3227 H       1  UNL1        0.0512
     55 H           8.0597   -1.9198   -2.2343 H       1  UNL1        0.0512
     56 H           7.1266   -3.7706   -1.0428 H       1  UNL1        0.0622
     57 H           7.3750   -5.1826    1.0190 H       1  UNL1        0.0633
     58 H           8.4413   -4.2222    3.0264 H       1  UNL1        0.0829
     59 H           9.0142   -0.5700    1.0223 H       1  UNL1        0.0833
     60 H           5.4432    2.6987    0.5611 H       1  UNL1        0.0625
     61 H           3.2370    3.8389    0.4561 H       1  UNL1        0.0624
     62 H          -2.8104    0.9848   -2.5109 H       1  UNL1        0.0621
     63 H          -4.3309   -0.4008   -1.2085 H       1  UNL1        0.0625
@<TRIPOS>BOND
     1     1     2    1
     2     2     3   ar
     3     3     4   ar
     4     4     5   ar
     5     5     6   ar
     6     6     7   ar
     7     7     8    1
     8     8     9   am
     9     9    10    2
    10     9    11    1
    11    11    12   ar
    12    12    13   ar
    13    13    14   ar
    14    14    15    1
    15    15    16    1
    16    16    17   ar
    17    17    18   ar
    18    18    19    1
    19    19    20   ar
    20    20    21   ar
    21    21    22   ar
    22    22    23    1
    23    23    24    2
    24    23    25   am
    25    25    26    1
    26    26    27    1
    27    27    28   ar
    28    28    29   ar
    29    29    30   ar
    30    30    31   ar
    31    31    32   ar
    32    22    33   ar
    33    33    34   ar
    34    18    35   ar
    35    35    36   ar
    36    14    37   ar
    37    37    38   ar
    38     7     2   ar
    39    38    11   ar
    40    36    16   ar
    41    34    19   ar
    42    32    27   ar
    43     1    39    1
    44     1    40    1
    45     3    41    1
    46     4    42    1
    47     5    43    1
    48     6    44    1
    49     8    45    1
    50    12    46    1
    51    13    47    1
    52    15    48    1
    53    15    49    1
    54    17    50    1
    55    20    51    1
    56    21    52    1
    57    25    53    1
    58    26    54    1
    59    26    55    1
    60    28    56    1
    61    29    57    1
    62    30    58    1
    63    32    59    1
    64    33    60    1
    65    34    61    1
    66    37    62    1
    67    38    63    1
