@<TRIPOS>MOLECULE
*****
 55 57 0 0 0
SMALL
GASTEIGER

@<TRIPOS>ATOM
      1 CA         -3.0130   -1.4470    0.2331 C.3     1  VAL1        0.0487
      2 C          -3.5176   -0.3575    1.1065 C.3     1  VAL1        0.0628
      3 O          -2.4122    0.3658    1.5829 O.3     1  VAL1       -0.3932
      4 N          -2.2918   -0.8452   -0.8701 N.pl3   1  VAL1       -0.3081
      5 C          -1.1158   -0.0534   -0.8315 C.ar    0  UNK0        0.2192
      6 N          -1.1442    1.2644   -0.5576 N.ar    0  UNK0       -0.1947
      7 C          -0.0209    1.9829   -0.5386 C.ar    0  UNK0        0.1675
      8 C           1.1768    1.3119   -0.8136 C.ar    0  UNK0        0.1479
      9 N           2.1334    2.2311   -0.7316 N.ar    0  UNK0       -0.2306
     10 C           1.5579    3.4041   -0.4231 C.ar    0  UNK0        0.0986
     11 N           0.2118    3.2831   -0.2955 N.ar    0  UNK0       -0.3123
     12 C          -0.7290    4.3223    0.0273 C.3     0  UNK0        0.0317
     13 C          -1.9557    4.3005   -0.8601 C.3     0  UNK0       -0.0444
     14 C          -1.1146    4.3399    1.4966 C.3     0  UNK0       -0.0444
     15 C           1.2211   -0.0587   -1.1011 C.ar    0  UNK0        0.1558
     16 N           2.5077   -0.5944   -1.3668 N.pl3   0  UNK0       -0.2975
     17 C           3.5801   -1.1655   -0.6731 C.ar    0  UNK0        0.0338
     18 C           3.5185   -1.4530    0.6689 C.ar    0  UNK0       -0.0396
     19 C           4.6684   -2.0038    1.2148 C.ar    0  UNK0       -0.0446
     20 C           5.8099   -2.2524    0.4678 C.ar    0  UNK0        0.0772
     21 C           6.9164   -2.8355    1.2548 C.2     0  UNK0        0.3382
     22 O           8.0565   -3.0487    0.4624 O.3     0  UNK0       -0.4771
     23 O           6.9848   -3.1489    2.4488 O.2     0  UNK0       -0.2451
     24 C           5.8094   -1.9441   -0.8651 C.ar    0  UNK0        0.0567
     25 CL          7.2819   -2.2871   -1.7316 Cl      0  UNK0       -0.0826
     26 C           4.7014   -1.3997   -1.4520 C.ar    0  UNK0       -0.0214
     27 N           0.0342   -0.7337   -1.1035 N.ar    0  UNK0       -0.1971
     28 CB         -4.0634   -2.4041   -0.2618 C.3     1  VAL1       -0.0261
     29 CG1        -5.1209   -1.6926   -1.0873 C.3     1  VAL1       -0.0609
     30 CG2        -4.7422   -3.1570    0.8300 C.3     1  VAL1       -0.0609
     31 HA         -2.2994   -2.0684    0.8418 H       1  VAL1        0.0523
     32 H1         -4.0842   -0.6891    1.9900 H       1  VAL1        0.0576
     33 H2         -4.0883    0.3847    0.4921 H       1  VAL1        0.0576
     34 H          -2.1985    0.0770    2.5191 H       1  VAL1        0.2095
     35 H          -2.6556   -0.9925   -1.8302 H       1  VAL1        0.1493
     36 H           2.1630    4.2874   -0.3085 H       0  UNK0        0.1029
     37 H          -0.2260    5.2984   -0.1497 H       0  UNK0        0.0523
     38 H          -2.1420    3.2874   -1.2887 H       0  UNK0        0.0249
     39 H          -1.8619    4.9977   -1.7175 H       0  UNK0        0.0249
     40 H          -2.8032    4.6609   -0.2446 H       0  UNK0        0.0249
     41 H          -1.7165    5.2878    1.6130 H       0  UNK0        0.0249
     42 H          -0.1895    4.5422    2.0779 H       0  UNK0        0.0249
     43 H          -1.6540    3.4363    1.8049 H       0  UNK0        0.0249
     44 H           2.4507   -0.4358   -2.3817 H       0  UNK0        0.1536
     45 H           2.6170   -1.2551    1.2457 H       0  UNK0        0.0636
     46 H           4.6031   -2.2259    2.2785 H       0  UNK0        0.0627
     47 H           8.9041   -3.3461    0.9090 H       0  UNK0        0.2954
     48 H           4.7713   -1.1786   -2.5119 H       0  UNK0        0.0651
     49 HB         -3.6018   -3.1502   -0.9586 H       1  VAL1        0.0314
     50 HG11       -5.9902   -2.3754   -1.2477 H       1  VAL1        0.0233
     51 HG12       -4.6673   -1.4867   -2.0822 H       1  VAL1        0.0233
     52 HG13       -5.4315   -0.7929   -0.5482 H       1  VAL1        0.0233
     53 HG21       -5.7141   -2.6741    1.1203 H       1  VAL1        0.0233
     54 HG22       -4.0834   -3.3583    1.7029 H       1  VAL1        0.0233
     55 HG23       -5.0309   -4.1544    0.4442 H       1  VAL1        0.0233
@<TRIPOS>BOND
     1     1     2    1
     2     2     3    1
     3     1     4    1
     4     4     5    1
     5     5     6   ar
     6     6     7   ar
     7     7     8   ar
     8     8     9   ar
     9     9    10   ar
    10    10    11   ar
    11    11    12    1
    12    12    13    1
    13    12    14    1
    14     8    15   ar
    15    15    16    1
    16    16    17    1
    17    17    18   ar
    18    18    19   ar
    19    19    20   ar
    20    20    21    1
    21    21    22    1
    22    21    23    2
    23    20    24   ar
    24    24    25    1
    25    24    26   ar
    26    15    27   ar
    27     1    28    1
    28    28    29    1
    29    28    30    1
    30    27     5   ar
    31    11     7   ar
    32    26    17   ar
    33     1    31    1
    34     2    32    1
    35     2    33    1
    36     3    34    1
    37     4    35    1
    38    10    36    1
    39    12    37    1
    40    13    38    1
    41    13    39    1
    42    13    40    1
    43    14    41    1
    44    14    42    1
    45    14    43    1
    46    16    44    1
    47    18    45    1
    48    19    46    1
    49    22    47    1
    50    26    48    1
    51    28    49    1
    52    29    50    1
    53    29    51    1
    54    29    52    1
    55    30    53    1
    56    30    54    1
    57    30    55    1
