@<TRIPOS>MOLECULE
*****
 212 212 0 0 0
SMALL
GASTEIGER

@<TRIPOS>ATOM
      1 C           6.6991   -6.3205   -3.7234 C.3     1  UNL1       -0.0468
      2 C           5.2704   -6.4597   -3.4587 C.2     1  UNL1       -0.0910
      3 C           4.7714   -7.3986   -2.6457 C.2     1  UNL1       -0.0879
      4 C           3.3176   -7.4876   -2.4164 C.3     1  UNL1       -0.0298
      5 C           2.8942   -7.4016   -1.0031 C.3     1  UNL1       -0.0122
      6 C           3.6354   -8.6299   -0.3393 C.3     1  UNL1       -0.0597
      7 C           3.2489   -6.2061   -0.2271 C.3     1  UNL1        0.0850
      8 O           4.6173   -6.0691   -0.1098 O.3     1  UNL1       -0.3892
      9 C           2.6562   -4.8733   -0.7572 C.3     1  UNL1        0.1279
     10 C           1.1962   -4.8642   -0.8294 C.2     1  UNL1        0.2367
     11 O           0.6974   -5.8608   -1.5090 O.2     1  UNL1       -0.2737
     12 N           0.0788   -4.1718   -0.4467 N.am    1  UNL1       -0.3024
     13 C          -1.3436   -4.4956   -0.6554 C.3     1  UNL1        0.0994
     14 C          -2.0853   -4.4540    0.6247 C.3     1  UNL1       -0.0288
     15 C          -1.5980   -5.4343    1.6777 C.3     1  UNL1       -0.0631
     16 C          -1.9971   -3.7970   -1.7330 C.2     1  UNL1        0.2368
     17 O          -0.9259   -3.4705   -2.5466 O.2     1  UNL1       -0.2735
     18 N          -3.0018   -3.2502   -2.4392 N.am    1  UNL1       -0.2830
     19 C          -2.6251   -3.0225   -3.9258 C.3     1  UNL1        0.0047
     20 C          -4.3457   -2.9106   -2.2765 C.3     1  UNL1        0.1489
     21 S          -5.5682   -4.2416   -2.1355 S.3     1  UNL1       -0.1279
     22 C          -5.6611   -5.1252   -0.6143 C.3     1  UNL1        0.0086
     23 C          -7.0170   -5.8522   -0.5479 C.3     1  UNL1        0.0074
     24 N          -7.2319   -6.5800    0.6535 N.3     1  UNL1       -0.3076
     25 C          -8.5534   -7.1840    0.7134 C.3     1  UNL1       -0.0130
     26 C          -6.8431   -5.9523    1.8703 C.3     1  UNL1       -0.0130
     27 C          -4.6147   -1.8837   -1.2195 C.2     1  UNL1        0.2468
     28 O          -3.5974   -1.8902   -0.3777 O.2     1  UNL1       -0.2726
     29 N          -5.3977   -0.9114   -0.6840 N.am    1  UNL1       -0.2906
     30 C          -5.1400   -0.5779    0.7589 C.3     1  UNL1        0.0040
     31 C          -6.5047   -0.1428   -1.1521 C.3     1  UNL1        0.1045
     32 C          -7.7247   -0.9748   -0.5746 C.3     1  UNL1        0.0027
     33 C          -9.0120   -0.4551   -1.0676 C.3     1  UNL1        0.0627
     34 C         -10.1871   -1.2711   -0.4838 C.3     1  UNL1       -0.0363
     35 C          -9.1245   -0.5977   -2.6018 C.3     1  UNL1       -0.0363
     36 O          -9.2822    0.8460   -0.7829 O.3     1  UNL1       -0.3890
     37 C          -6.5615    1.2644   -0.7790 C.2     1  UNL1        0.2343
     38 O          -7.2229    1.9919   -1.6286 O.2     1  UNL1       -0.2738
     39 N          -6.1381    2.1569    0.2018 N.am    1  UNL1       -0.3022
     40 C          -6.4594    3.6118    0.2232 C.3     1  UNL1        0.1019
     41 C          -7.2661    3.7595    1.5324 C.3     1  UNL1       -0.0197
     42 C          -7.6649    5.1859    1.6915 C.3     1  UNL1       -0.0605
     43 C          -8.4481    2.8715    1.4911 C.3     1  UNL1       -0.0605
     44 C          -5.3131    4.5320    0.3080 C.2     1  UNL1        0.2365
     45 O          -5.7995    5.7654    0.0308 O.2     1  UNL1       -0.2735
     46 N          -3.9939    4.8032    0.5356 N.am    1  UNL1       -0.2914
     47 C          -2.9768    3.9528    1.0065 C.3     1  UNL1        0.0040
     48 C          -3.4697    6.1779    0.3126 C.3     1  UNL1        0.1021
     49 C          -3.2717    6.7335    1.7366 C.3     1  UNL1       -0.0234
     50 C          -2.7496    8.1626    1.6983 C.3     1  UNL1       -0.0446
     51 C          -2.5662    8.6648    3.1250 C.3     1  UNL1       -0.0626
     52 C          -3.7751    9.0980    1.0596 C.3     1  UNL1       -0.0626
     53 C          -2.1909    6.3016   -0.3707 C.2     1  UNL1        0.2341
     54 O          -2.1258    7.3961   -1.1517 O.2     1  UNL1       -0.2738
     55 N          -0.9554    5.7069   -0.5291 N.am    1  UNL1       -0.3027
     56 C           0.0961    6.1752   -1.4699 C.3     1  UNL1        0.0966
     57 C           1.0950    7.0298   -0.6403 C.3     1  UNL1       -0.0381
     58 C           0.9233    5.1283   -2.0683 C.2     1  UNL1        0.2337
     59 O           1.6794    5.6747   -3.0063 O.2     1  UNL1       -0.2738
     60 N           1.2018    3.7935   -2.0036 N.am    1  UNL1       -0.3027
     61 C           2.1356    3.1419   -2.9616 C.3     1  UNL1        0.0968
     62 C           1.5203    1.8821   -3.4411 C.3     1  UNL1       -0.0381
     63 C           3.5147    3.1232   -2.4742 C.2     1  UNL1        0.2360
     64 O           3.5890    3.8711   -1.3836 O.2     1  UNL1       -0.2736
     65 N           4.7997    2.6949   -2.6138 N.am    1  UNL1       -0.2914
     66 C           5.3632    1.8660   -3.6129 C.3     1  UNL1        0.0040
     67 C           5.8529    3.0906   -1.6333 C.3     1  UNL1        0.1023
     68 C           6.1890    4.5247   -1.7253 C.3     1  UNL1       -0.0234
     69 C           7.1987    5.0945   -0.8094 C.3     1  UNL1       -0.0446
     70 C           6.9366    5.0463    0.6458 C.3     1  UNL1       -0.0626
     71 C           7.4092    6.5689   -1.2124 C.3     1  UNL1       -0.0626
     72 C           5.8304    2.4475   -0.3240 C.2     1  UNL1        0.2365
     73 O           7.1110    2.3214    0.1182 O.2     1  UNL1       -0.2735
     74 N           5.1797    1.8797    0.7562 N.am    1  UNL1       -0.2914
     75 C           3.8164    1.7425    1.0451 C.3     1  UNL1        0.0040
     76 C           5.9342    1.2466    1.9141 C.3     1  UNL1        0.1023
     77 C           5.9468    2.1550    3.1084 C.3     1  UNL1       -0.0234
     78 C           6.7760    1.7319    4.2674 C.3     1  UNL1       -0.0446
     79 C           6.5550    0.4581    4.9629 C.3     1  UNL1       -0.0626
     80 C           8.2729    1.9316    3.9832 C.3     1  UNL1       -0.0626
     81 C           5.2601   -0.0359    2.1621 C.2     1  UNL1        0.2365
     82 O           4.4658    0.0130    3.2355 O.2     1  UNL1       -0.2735
     83 N           5.0343   -1.3442    1.7663 N.am    1  UNL1       -0.2912
     84 C           4.4755   -2.2114    2.8801 C.3     1  UNL1        0.0040
     85 C           5.2057   -2.1053    0.6106 C.3     1  UNL1        0.1044
     86 C           6.6303   -2.7300    0.7490 C.3     1  UNL1       -0.0195
     87 C           7.6713   -1.6295    0.8469 C.3     1  UNL1       -0.0605
     88 C           6.8185   -3.6912    1.8282 C.3     1  UNL1       -0.0605
     89 C           4.2542   -3.0931    0.1497 C.2     1  UNL1        0.2368
     90 O           4.5105   -3.3254   -1.1622 O.2     1  UNL1       -0.2735
     91 N           3.2003   -3.9542    0.3181 N.am    1  UNL1       -0.2890
     92 C           2.3813   -4.1447    1.4376 C.3     1  UNL1        0.0041
     93 H           6.9329   -5.2966   -4.1385 H       1  UNL1        0.0272
     94 H           7.3610   -6.4209   -2.8413 H       1  UNL1        0.0272
     95 H           7.0483   -7.0271   -4.5080 H       1  UNL1        0.0272
     96 H           4.5779   -5.7710   -3.9248 H       1  UNL1        0.0566
     97 H           5.4522   -8.0789   -2.1609 H       1  UNL1        0.0569
     98 H           2.9182   -8.4207   -2.9048 H       1  UNL1        0.0311
     99 H           2.8449   -6.6211   -2.9852 H       1  UNL1        0.0311
    100 H           1.8303   -7.7239   -0.9398 H       1  UNL1        0.0327
    101 H           3.5281   -9.4669   -1.0163 H       1  UNL1        0.0233
    102 H           4.6756   -8.2706   -0.2492 H       1  UNL1        0.0233
    103 H           3.1964   -8.7521    0.6511 H       1  UNL1        0.0233
    104 H           2.8773   -6.3677    0.8206 H       1  UNL1        0.0619
    105 H           5.1277   -5.8528   -0.8477 H       1  UNL1        0.2099
    106 H           3.0983   -4.7851   -1.7126 H       1  UNL1        0.0623
    107 H           0.1025   -3.2668    0.0483 H       1  UNL1        0.1495
    108 H          -1.3801   -5.5920   -0.9897 H       1  UNL1        0.0594
    109 H          -3.1539   -4.5808    0.5587 H       1  UNL1        0.0285
    110 H          -1.9105   -3.4407    1.0910 H       1  UNL1        0.0285
    111 H          -0.5717   -5.7981    1.4973 H       1  UNL1        0.0230
    112 H          -2.2338   -6.3691    1.5779 H       1  UNL1        0.0230
    113 H          -1.7428   -5.1020    2.7040 H       1  UNL1        0.0230
    114 H          -1.8242   -2.2955   -3.9970 H       1  UNL1        0.0429
    115 H          -2.4456   -4.0272   -4.3656 H       1  UNL1        0.0429
    116 H          -3.4934   -2.6282   -4.4696 H       1  UNL1        0.0429
    117 H          -4.7348   -2.3960   -3.2324 H       1  UNL1        0.0715
    118 H          -5.5138   -4.5311    0.3144 H       1  UNL1        0.0389
    119 H          -4.9057   -5.9360   -0.5934 H       1  UNL1        0.0389
    120 H          -7.0766   -6.5817   -1.4042 H       1  UNL1        0.0434
    121 H          -7.8472   -5.1316   -0.7210 H       1  UNL1        0.0434
    122 H          -8.5897   -7.7771    1.6466 H       1  UNL1        0.0391
    123 H          -8.6354   -7.9002   -0.1266 H       1  UNL1        0.0391
    124 H          -9.3771   -6.4433    0.6903 H       1  UNL1        0.0391
    125 H          -7.0521   -4.8623    1.9339 H       1  UNL1        0.0391
    126 H          -5.7276   -6.1218    1.9939 H       1  UNL1        0.0391
    127 H          -7.3145   -6.4872    2.7192 H       1  UNL1        0.0391
    128 H          -6.0116   -0.2068    1.2837 H       1  UNL1        0.0429
    129 H          -4.9558   -1.5691    1.3181 H       1  UNL1        0.0429
    130 H          -4.2932    0.0814    0.8720 H       1  UNL1        0.0429
    131 H          -6.7898   -0.2271   -2.2200 H       1  UNL1        0.0597
    132 H          -7.5776   -2.0158   -0.9113 H       1  UNL1        0.0315
    133 H          -7.6838   -0.9841    0.5191 H       1  UNL1        0.0315
    134 H         -11.0060   -1.2268   -1.2203 H       1  UNL1        0.0257
    135 H          -9.8478   -2.3090   -0.2984 H       1  UNL1        0.0257
    136 H         -10.5018   -0.7510    0.4266 H       1  UNL1        0.0257
    137 H          -8.4417   -1.3917   -2.9768 H       1  UNL1        0.0257
    138 H          -8.8513    0.3833   -3.0286 H       1  UNL1        0.0257
    139 H         -10.1865   -0.7836   -2.8226 H       1  UNL1        0.0257
    140 H          -9.8618    1.2793   -1.4884 H       1  UNL1        0.2101
    141 H          -5.5829    1.9625    1.0012 H       1  UNL1        0.1495
    142 H          -7.1069    3.9118   -0.5750 H       1  UNL1        0.0597
    143 H          -6.5774    3.5046    2.3899 H       1  UNL1        0.0318
    144 H          -8.5455    5.3115    2.3926 H       1  UNL1        0.0233
    145 H          -6.8205    5.7952    2.1079 H       1  UNL1        0.0233
    146 H          -7.9325    5.6527    0.7205 H       1  UNL1        0.0233
    147 H          -8.9911    3.0128    2.4782 H       1  UNL1        0.0233
    148 H          -9.0866    3.1607    0.6492 H       1  UNL1        0.0233
    149 H          -8.0723    1.8097    1.4366 H       1  UNL1        0.0233
    150 H          -3.2516    3.2321    1.8463 H       1  UNL1        0.0429
    151 H          -2.1328    4.4905    1.5467 H       1  UNL1        0.0429
    152 H          -2.4566    3.3992    0.1923 H       1  UNL1        0.0429
    153 H          -4.2275    6.8850   -0.0794 H       1  UNL1        0.0597
    154 H          -4.3112    6.7921    2.1598 H       1  UNL1        0.0290
    155 H          -2.7024    6.0999    2.3907 H       1  UNL1        0.0290
    156 H          -1.8073    8.2881    1.1600 H       1  UNL1        0.0296
    157 H          -1.9908    9.6257    3.1048 H       1  UNL1        0.0232
    158 H          -3.5727    8.9839    3.5386 H       1  UNL1        0.0232
    159 H          -2.1722    7.9174    3.8096 H       1  UNL1        0.0232
    160 H          -3.4229    9.4596    0.0769 H       1  UNL1        0.0232
    161 H          -3.9491   10.0050    1.6973 H       1  UNL1        0.0232
    162 H          -4.7441    8.5650    0.9118 H       1  UNL1        0.0232
    163 H          -0.6086    4.9005   -0.0263 H       1  UNL1        0.1495
    164 H          -0.3410    6.9047   -2.1581 H       1  UNL1        0.0592
    165 H           0.5494    7.7053    0.0295 H       1  UNL1        0.0252
    166 H           1.8411    6.3987   -0.1531 H       1  UNL1        0.0252
    167 H           1.6130    7.6585   -1.3883 H       1  UNL1        0.0252
    168 H           0.8517    3.1160   -1.3452 H       1  UNL1        0.1495
    169 H           2.1567    3.8463   -3.8622 H       1  UNL1        0.0592
    170 H           2.3370    1.1308   -3.6201 H       1  UNL1        0.0252
    171 H           0.8758    1.9802   -4.3383 H       1  UNL1        0.0252
    172 H           0.9181    1.4326   -2.6275 H       1  UNL1        0.0252
    173 H           4.9816    0.8302   -3.6893 H       1  UNL1        0.0429
    174 H           6.4761    1.6909   -3.4693 H       1  UNL1        0.0429
    175 H           5.3988    2.3259   -4.6523 H       1  UNL1        0.0429
    176 H           6.7831    2.6008   -2.1157 H       1  UNL1        0.0597
    177 H           5.3146    5.2382   -1.7621 H       1  UNL1        0.0290
    178 H           6.6240    4.6868   -2.7711 H       1  UNL1        0.0290
    179 H           8.2070    4.6223   -1.0686 H       1  UNL1        0.0296
    180 H           7.7643    4.6418    1.2654 H       1  UNL1        0.0232
    181 H           5.9434    4.6416    0.8517 H       1  UNL1        0.0232
    182 H           6.8604    6.1295    1.0192 H       1  UNL1        0.0232
    183 H           8.4354    6.7957   -1.4917 H       1  UNL1        0.0232
    184 H           6.7114    6.8529   -2.0357 H       1  UNL1        0.0232
    185 H           7.0781    7.2122   -0.3438 H       1  UNL1        0.0232
    186 H           3.5362    2.1904    2.0693 H       1  UNL1        0.0429
    187 H           3.5351    0.6491    1.2729 H       1  UNL1        0.0429
    188 H           3.0423    2.0111    0.3148 H       1  UNL1        0.0429
    189 H           6.9843    1.2245    1.6276 H       1  UNL1        0.0597
    190 H           6.4632    3.0971    2.7460 H       1  UNL1        0.0290
    191 H           4.9233    2.4071    3.4679 H       1  UNL1        0.0290
    192 H           6.6034    2.5355    5.0891 H       1  UNL1        0.0296
    193 H           7.4181    0.3188    5.7387 H       1  UNL1        0.0232
    194 H           6.7375   -0.3951    4.2875 H       1  UNL1        0.0232
    195 H           5.6128    0.4151    5.5118 H       1  UNL1        0.0232
    196 H           8.4188    2.8808    3.4591 H       1  UNL1        0.0232
    197 H           8.7075    1.0355    3.5022 H       1  UNL1        0.0232
    198 H           8.7601    2.0315    4.9797 H       1  UNL1        0.0232
    199 H           5.0551   -1.9921    3.8359 H       1  UNL1        0.0429
    200 H           3.4104   -1.9556    3.0048 H       1  UNL1        0.0429
    201 H           4.6213   -3.2456    2.7498 H       1  UNL1        0.0429
    202 H           5.4596   -1.4665   -0.3289 H       1  UNL1        0.0599
    203 H           6.7837   -3.2275   -0.2251 H       1  UNL1        0.0318
    204 H           7.8283   -1.4147    1.9362 H       1  UNL1        0.0233
    205 H           7.3005   -0.7494    0.2962 H       1  UNL1        0.0233
    206 H           8.6114   -2.0374    0.4098 H       1  UNL1        0.0233
    207 H           6.2120   -4.6257    1.7812 H       1  UNL1        0.0233
    208 H           7.8865   -4.1154    1.6850 H       1  UNL1        0.0233
    209 H           6.8997   -3.2621    2.8485 H       1  UNL1        0.0233
    210 H           2.8587   -4.6250    2.3276 H       1  UNL1        0.0429
    211 H           1.8449   -3.2441    1.8323 H       1  UNL1        0.0429
    212 H           1.5518   -4.9362    1.2530 H       1  UNL1        0.0429
@<TRIPOS>BOND
     1     1     2    1
     2     2     3    2
     3     3     4    1
     4     4     5    1
     5     5     6    1
     6     5     7    1
     7     7     8    1
     8     7     9    1
     9     9    10    1
    10    10    11    2
    11    10    12   am
    12    12    13    1
    13    13    14    1
    14    14    15    1
    15    13    16    1
    16    16    17    2
    17    16    18   am
    18    18    19    1
    19    18    20    1
    20    20    21    1
    21    21    22    1
    22    22    23    1
    23    23    24    1
    24    24    25    1
    25    24    26    1
    26    20    27    1
    27    27    28    2
    28    27    29   am
    29    29    30    1
    30    29    31    1
    31    31    32    1
    32    32    33    1
    33    33    34    1
    34    33    35    1
    35    33    36    1
    36    31    37    1
    37    37    38    2
    38    37    39   am
    39    39    40    1
    40    40    41    1
    41    41    42    1
    42    41    43    1
    43    40    44    1
    44    44    45    2
    45    44    46   am
    46    46    47    1
    47    46    48    1
    48    48    49    1
    49    49    50    1
    50    50    51    1
    51    50    52    1
    52    48    53    1
    53    53    54    2
    54    53    55   am
    55    55    56    1
    56    56    57    1
    57    56    58    1
    58    58    59    2
    59    58    60   am
    60    60    61    1
    61    61    62    1
    62    61    63    1
    63    63    64    2
    64    63    65   am
    65    65    66    1
    66    65    67    1
    67    67    68    1
    68    68    69    1
    69    69    70    1
    70    69    71    1
    71    67    72    1
    72    72    73    2
    73    72    74   am
    74    74    75    1
    75    74    76    1
    76    76    77    1
    77    77    78    1
    78    78    79    1
    79    78    80    1
    80    76    81    1
    81    81    82    2
    82    81    83   am
    83    83    84    1
    84    83    85    1
    85    85    86    1
    86    86    87    1
    87    86    88    1
    88    85    89    1
    89    89    90    2
    90    89    91   am
    91    91    92    1
    92    91     9    1
    93     1    93    1
    94     1    94    1
    95     1    95    1
    96     2    96    1
    97     3    97    1
    98     4    98    1
    99     4    99    1
   100     5   100    1
   101     6   101    1
   102     6   102    1
   103     6   103    1
   104     7   104    1
   105     8   105    1
   106     9   106    1
   107    12   107    1
   108    13   108    1
   109    14   109    1
   110    14   110    1
   111    15   111    1
   112    15   112    1
   113    15   113    1
   114    19   114    1
   115    19   115    1
   116    19   116    1
   117    20   117    1
   118    22   118    1
   119    22   119    1
   120    23   120    1
   121    23   121    1
   122    25   122    1
   123    25   123    1
   124    25   124    1
   125    26   125    1
   126    26   126    1
   127    26   127    1
   128    30   128    1
   129    30   129    1
   130    30   130    1
   131    31   131    1
   132    32   132    1
   133    32   133    1
   134    34   134    1
   135    34   135    1
   136    34   136    1
   137    35   137    1
   138    35   138    1
   139    35   139    1
   140    36   140    1
   141    39   141    1
   142    40   142    1
   143    41   143    1
   144    42   144    1
   145    42   145    1
   146    42   146    1
   147    43   147    1
   148    43   148    1
   149    43   149    1
   150    47   150    1
   151    47   151    1
   152    47   152    1
   153    48   153    1
   154    49   154    1
   155    49   155    1
   156    50   156    1
   157    51   157    1
   158    51   158    1
   159    51   159    1
   160    52   160    1
   161    52   161    1
   162    52   162    1
   163    55   163    1
   164    56   164    1
   165    57   165    1
   166    57   166    1
   167    57   167    1
   168    60   168    1
   169    61   169    1
   170    62   170    1
   171    62   171    1
   172    62   172    1
   173    66   173    1
   174    66   174    1
   175    66   175    1
   176    67   176    1
   177    68   177    1
   178    68   178    1
   179    69   179    1
   180    70   180    1
   181    70   181    1
   182    70   182    1
   183    71   183    1
   184    71   184    1
   185    71   185    1
   186    75   186    1
   187    75   187    1
   188    75   188    1
   189    76   189    1
   190    77   190    1
   191    77   191    1
   192    78   192    1
   193    79   193    1
   194    79   194    1
   195    79   195    1
   196    80   196    1
   197    80   197    1
   198    80   198    1
   199    84   199    1
   200    84   200    1
   201    84   201    1
   202    85   202    1
   203    86   203    1
   204    87   204    1
   205    87   205    1
   206    87   206    1
   207    88   207    1
   208    88   208    1
   209    88   209    1
   210    92   210    1
   211    92   211    1
   212    92   212    1
