@<TRIPOS>MOLECULE
*****
 68 72 0 0 0
SMALL
GASTEIGER

@<TRIPOS>ATOM
      1 C          -0.4878    0.8075   -3.8885 C.3     1  UNL1       -0.0217
      2 C          -1.8610    0.5197   -3.3954 C.ar    1  UNL1        0.0472
      3 N          -2.8768    0.9715   -4.1329 N.ar    1  UNL1       -0.2582
      4 C          -4.1380    0.7559   -3.7549 C.ar    1  UNL1        0.0471
      5 C          -4.4307    0.0651   -2.6002 C.ar    1  UNL1        0.0915
      6 C          -5.7881   -0.1619   -2.1918 C.1     1  UNL1        0.1026
      7 N          -6.9064   -0.3282   -1.8583 N.1     1  UNL1       -0.1908
      8 C          -3.3485   -0.4110   -1.8224 C.ar    1  UNL1        0.0593
      9 N          -3.6907   -1.1549   -0.6928 N.pl3   1  UNL1       -0.3127
     10 C          -4.4266   -0.7280    0.4210 C.ar    1  UNL1        0.0350
     11 C          -5.5117   -1.5215    0.7986 C.ar    1  UNL1       -0.0383
     12 C          -6.2845   -1.1623    1.8460 C.ar    1  UNL1       -0.0360
     13 C          -6.0247   -0.0114    2.5669 C.ar    1  UNL1        0.0468
     14 N          -6.6288    0.5515    3.6262 N.ar    1  UNL1       -0.3606
     15 C          -5.9919    1.6845    3.9675 C.ar    1  UNL1        0.0027
     16 C          -4.9256    1.8702    3.0940 C.ar    1  UNL1       -0.0364
     17 C          -4.9683    0.7874    2.2210 C.ar    1  UNL1        0.0043
     18 C          -4.1810    0.4061    1.1387 C.ar    1  UNL1       -0.0202
     19 C          -3.0865    1.3471    0.7958 C.3     1  UNL1       -0.0373
     20 C          -2.0548   -0.1970   -2.1984 C.ar    1  UNL1        0.0184
     21 C          -0.8996   -0.6817   -1.5079 C.2     1  UNL1       -0.0505
     22 C          -0.7405   -1.2607   -0.3653 C.2     1  UNL1       -0.0539
     23 C           0.5597   -1.7000    0.1858 C.ar    1  UNL1       -0.0232
     24 C           0.5616   -2.3247    1.4326 C.ar    1  UNL1       -0.0545
     25 C           1.7175   -2.7625    2.0490 C.ar    1  UNL1       -0.0594
     26 C           2.9200   -2.5733    1.4030 C.ar    1  UNL1       -0.0353
     27 C           2.9635   -1.9627    0.1744 C.ar    1  UNL1        0.1060
     28 S           4.5028   -1.7231   -0.6187 S.O2    1  UNL1        0.0609
     29 O           4.2270   -1.6910   -2.1046 O.2     1  UNL1       -0.1528
     30 O           5.4127   -2.8547   -0.3204 O.2     1  UNL1       -0.1528
     31 N           5.2180   -0.2349   -0.2073 N.3     1  UNL1       -0.1741
     32 C           4.4610    0.9191   -0.5763 C.3     1  UNL1        0.0333
     33 C           4.9092    2.1393    0.2094 C.3     1  UNL1        0.0131
     34 N           6.3383    2.0960    0.4529 N.3     1  UNL1       -0.3028
     35 C           6.5937    1.7060    1.8071 C.3     1  UNL1       -0.0127
     36 C           7.0316    1.2989   -0.5125 C.3     1  UNL1        0.0131
     37 C           6.6231   -0.1484   -0.3711 C.3     1  UNL1        0.0333
     38 C           1.7654   -1.5396   -0.4044 C.ar    1  UNL1       -0.0282
     39 H          -0.0815   -0.0824   -4.3948 H       1  UNL1        0.0293
     40 H           0.1767    1.1888   -3.0863 H       1  UNL1        0.0293
     41 H          -0.5435    1.6292   -4.6309 H       1  UNL1        0.0293
     42 H          -4.9951    1.1081   -4.3305 H       1  UNL1        0.0843
     43 H          -3.4021   -2.1835   -0.6899 H       1  UNL1        0.1522
     44 H          -5.7157   -2.4254    0.2354 H       1  UNL1        0.0637
     45 H          -7.1209   -1.7903    2.1228 H       1  UNL1        0.0639
     46 H          -7.4620    0.1617    4.1034 H       1  UNL1        0.1653
     47 H          -6.2335    2.3624    4.7736 H       1  UNL1        0.0807
     48 H          -4.2203    2.6797    3.0955 H       1  UNL1        0.0639
     49 H          -2.1355    0.9031    0.5679 H       1  UNL1        0.0278
     50 H          -3.4316    1.8716   -0.1334 H       1  UNL1        0.0278
     51 H          -3.0050    2.1584    1.5548 H       1  UNL1        0.0278
     52 H           0.0705   -0.5482   -2.0580 H       1  UNL1        0.0625
     53 H          -1.6205   -1.4007    0.2361 H       1  UNL1        0.0624
     54 H          -0.3992   -2.4705    1.9380 H       1  UNL1        0.0623
     55 H           1.7346   -3.2459    3.0140 H       1  UNL1        0.0618
     56 H           3.8480   -2.9098    1.8691 H       1  UNL1        0.0637
     57 H           3.3848    0.8019   -0.3769 H       1  UNL1        0.0456
     58 H           4.6543    1.1402   -1.6510 H       1  UNL1        0.0456
     59 H           4.6775    3.0238   -0.3815 H       1  UNL1        0.0439
     60 H           4.3737    2.1922    1.1608 H       1  UNL1        0.0439
     61 H           7.5108    1.0930    1.8559 H       1  UNL1        0.0391
     62 H           5.7323    1.1602    2.2685 H       1  UNL1        0.0391
     63 H           6.7912    2.6176    2.4059 H       1  UNL1        0.0391
     64 H           8.1266    1.4001   -0.3568 H       1  UNL1        0.0439
     65 H           6.7887    1.6554   -1.5342 H       1  UNL1        0.0439
     66 H           7.2004   -0.6373    0.4402 H       1  UNL1        0.0456
     67 H           6.9259   -0.6986   -1.3046 H       1  UNL1        0.0456
     68 H           1.8177   -1.0585   -1.3790 H       1  UNL1        0.0643
@<TRIPOS>BOND
     1     1     2    1
     2     2     3   ar
     3     3     4   ar
     4     4     5   ar
     5     5     6    1
     6     6     7    3
     7     5     8   ar
     8     8     9    1
     9     9    10    1
    10    10    11   ar
    11    11    12   ar
    12    12    13   ar
    13    13    14   ar
    14    14    15   ar
    15    15    16   ar
    16    16    17   ar
    17    17    18   ar
    18    18    19    1
    19     8    20   ar
    20    20    21    1
    21    21    22    2
    22    22    23    1
    23    23    24   ar
    24    24    25   ar
    25    25    26   ar
    26    26    27   ar
    27    27    28    1
    28    28    29    2
    29    28    30    2
    30    28    31    1
    31    31    32    1
    32    32    33    1
    33    33    34    1
    34    34    35    1
    35    34    36    1
    36    36    37    1
    37    27    38   ar
    38    20     2   ar
    39    38    23   ar
    40    18    10   ar
    41    37    31    1
    42    17    13   ar
    43     1    39    1
    44     1    40    1
    45     1    41    1
    46     4    42    1
    47     9    43    1
    48    11    44    1
    49    12    45    1
    50    14    46    1
    51    15    47    1
    52    16    48    1
    53    19    49    1
    54    19    50    1
    55    19    51    1
    56    21    52    1
    57    22    53    1
    58    24    54    1
    59    25    55    1
    60    26    56    1
    61    32    57    1
    62    32    58    1
    63    33    59    1
    64    33    60    1
    65    35    61    1
    66    35    62    1
    67    35    63    1
    68    36    64    1
    69    36    65    1
    70    37    66    1
    71    37    67    1
    72    38    68    1
