@<TRIPOS>MOLECULE
*****
 58 60 0 0 0
SMALL
GASTEIGER

@<TRIPOS>ATOM
      1 C           5.7377    1.3851    1.0802 C.3     1  UNL1       -0.0524
      2 C           5.6155    0.1491    0.2091 C.3     1  UNL1       -0.0040
      3 N           4.2601   -0.0767   -0.2457 N.3     1  UNL1       -0.3028
      4 C           4.2692   -1.2671   -1.0619 C.3     1  UNL1       -0.0040
      5 C           4.5508   -2.5331   -0.2857 C.3     1  UNL1       -0.0524
      6 C           3.3747   -0.1625    0.8756 C.3     1  UNL1       -0.0011
      7 C           1.9324   -0.3869    0.4324 C.3     1  UNL1       -0.0385
      8 C           1.5545    0.7744   -0.4193 C.3     1  UNL1       -0.0337
      9 C           0.1439    0.7413   -0.9543 C.3     1  UNL1        0.0179
     10 C          -0.0406   -0.4827   -1.7905 C.3     1  UNL1       -0.0467
     11 N          -0.8312    0.8784    0.1054 N.pl3   1  UNL1       -0.3402
     12 C          -2.2455    0.9199    0.2055 C.ar    1  UNL1        0.0460
     13 C          -3.1369   -0.1150    0.3945 C.ar    1  UNL1        0.0253
     14 C          -2.5569   -1.3478    0.5137 C.ar    1  UNL1       -0.0090
     15 C          -3.4114   -2.4317    0.7090 C.ar    1  UNL1        0.1208
     16 O          -2.9713   -3.7252    0.8453 O.3     1  UNL1       -0.4951
     17 C          -3.8657   -4.8061    1.0427 C.3     1  UNL1        0.0788
     18 C          -4.7867   -2.1892    0.7693 C.ar    1  UNL1       -0.0179
     19 C          -5.3192   -0.9316    0.6441 C.ar    1  UNL1       -0.0322
     20 C          -4.4838    0.1749    0.4472 C.ar    1  UNL1        0.0737
     21 N          -4.9635    1.4242    0.3223 N.ar    1  UNL1       -0.2465
     22 C          -4.1040    2.4300    0.1394 C.ar    1  UNL1        0.0748
     23 C          -2.7428    2.2175    0.0759 C.ar    1  UNL1        0.0219
     24 C          -1.9851    3.3310   -0.1132 C.ar    1  UNL1       -0.0494
     25 C          -2.4924    4.5996   -0.2382 C.ar    1  UNL1       -0.0426
     26 C          -3.8508    4.7889   -0.1721 C.ar    1  UNL1        0.0430
     27 CL         -4.4400    6.4361   -0.3391 Cl      1  UNL1       -0.0835
     28 C          -4.6740    3.6890    0.0198 C.ar    1  UNL1       -0.0173
     29 H           5.6256    1.1781    2.1600 H       1  UNL1        0.0242
     30 H           6.7831    1.7625    0.9489 H       1  UNL1        0.0242
     31 H           5.0503    2.1602    0.7125 H       1  UNL1        0.0242
     32 H           6.2252    0.3310   -0.6995 H       1  UNL1        0.0424
     33 H           6.0667   -0.7292    0.7205 H       1  UNL1        0.0424
     34 H           3.3883   -1.3820   -1.7113 H       1  UNL1        0.0424
     35 H           5.1433   -1.1401   -1.7535 H       1  UNL1        0.0424
     36 H           5.6134   -2.5823    0.0038 H       1  UNL1        0.0242
     37 H           4.3795   -3.3861   -0.9761 H       1  UNL1        0.0242
     38 H           3.8780   -2.6778    0.5704 H       1  UNL1        0.0242
     39 H           3.6517   -0.9404    1.6224 H       1  UNL1        0.0426
     40 H           3.4612    0.8137    1.4161 H       1  UNL1        0.0426
     41 H           1.2788   -0.4471    1.3253 H       1  UNL1        0.0278
     42 H           1.9222   -1.3134   -0.1824 H       1  UNL1        0.0278
     43 H           2.2983    0.9842   -1.2006 H       1  UNL1        0.0283
     44 H           1.5780    1.6814    0.2553 H       1  UNL1        0.0283
     45 H           0.0451    1.6207   -1.6641 H       1  UNL1        0.0495
     46 H          -1.0848   -0.5748   -2.1676 H       1  UNL1        0.0247
     47 H           0.5876   -0.3808   -2.6936 H       1  UNL1        0.0247
     48 H           0.1817   -1.4020   -1.2159 H       1  UNL1        0.0247
     49 H          -0.4979    0.9800    1.0990 H       1  UNL1        0.1464
     50 H          -1.5098   -1.5118    0.4687 H       1  UNL1        0.0661
     51 H          -4.6457   -4.7600    0.2538 H       1  UNL1        0.0660
     52 H          -4.3370   -4.7912    2.0531 H       1  UNL1        0.0660
     53 H          -3.2851   -5.7486    0.9568 H       1  UNL1        0.0660
     54 H          -5.4850   -3.0251    0.9228 H       1  UNL1        0.0655
     55 H          -6.4002   -0.7789    0.6968 H       1  UNL1        0.0640
     56 H          -0.9116    3.2244   -0.1699 H       1  UNL1        0.0625
     57 H          -1.8135    5.4384   -0.3880 H       1  UNL1        0.0632
     58 H          -5.7244    3.9131    0.0613 H       1  UNL1        0.0653
@<TRIPOS>BOND
     1     1     2    1
     2     2     3    1
     3     3     4    1
     4     4     5    1
     5     3     6    1
     6     6     7    1
     7     7     8    1
     8     8     9    1
     9     9    10    1
    10     9    11    1
    11    11    12    1
    12    12    13   ar
    13    13    14   ar
    14    14    15   ar
    15    15    16    1
    16    16    17    1
    17    15    18   ar
    18    18    19   ar
    19    19    20   ar
    20    20    21   ar
    21    21    22   ar
    22    22    23   ar
    23    23    24   ar
    24    24    25   ar
    25    25    26   ar
    26    26    27    1
    27    26    28   ar
    28    23    12   ar
    29    20    13   ar
    30    28    22   ar
    31     1    29    1
    32     1    30    1
    33     1    31    1
    34     2    32    1
    35     2    33    1
    36     4    34    1
    37     4    35    1
    38     5    36    1
    39     5    37    1
    40     5    38    1
    41     6    39    1
    42     6    40    1
    43     7    41    1
    44     7    42    1
    45     8    43    1
    46     8    44    1
    47     9    45    1
    48    10    46    1
    49    10    47    1
    50    10    48    1
    51    11    49    1
    52    14    50    1
    53    17    51    1
    54    17    52    1
    55    17    53    1
    56    18    54    1
    57    19    55    1
    58    24    56    1
    59    25    57    1
    60    28    58    1
