@<TRIPOS>MOLECULE
*****
 37 39 0 0 0
SMALL
GASTEIGER

@<TRIPOS>ATOM
      1 C          -3.2879   -1.7140   -0.0068 C.3     1  UNL1       -0.0232
      2 C          -3.6666   -0.2281   -0.0849 C.3     1  UNL1        0.1843
      3 O          -4.6340   -0.1142   -1.0484 O.3     1  UNL1       -0.3757
      4 C          -2.4604    0.5733   -0.3201 C.ar    1  UNL1        0.0123
      5 C          -2.5181    1.9416   -0.4488 C.ar    1  UNL1        0.0339
      6 N          -1.4185    2.6835   -0.6630 N.ar    1  UNL1       -0.2608
      7 C          -0.2381    2.0766   -0.7534 C.ar    1  UNL1        0.0530
      8 C          -0.1175    0.7076   -0.6327 C.ar    1  UNL1        0.0844
      9 N           1.1981    0.1498   -0.7452 N.ar    1  UNL1       -0.2301
     10 N           1.8240   -0.2829   -1.8273 N.ar    1  UNL1       -0.1611
     11 C           3.0457   -0.7376   -1.5434 C.ar    1  UNL1        0.1733
     12 C           4.0550   -1.3081   -2.5062 C.3     1  UNL1        0.4365
     13 F           3.5204   -1.2962   -3.7799 F       1  UNL1       -0.1643
     14 F           5.2119   -0.5902   -2.5208 F       1  UNL1       -0.1643
     15 F           4.2946   -2.6263   -2.1815 F       1  UNL1       -0.1643
     16 C           3.2324   -0.5932   -0.1851 C.ar    1  UNL1        0.0321
     17 C           4.2567   -0.8698    0.6959 C.ar    1  UNL1       -0.0505
     18 C           4.1670   -0.6127    2.0499 C.ar    1  UNL1       -0.0610
     19 C           2.9961   -0.0568    2.5160 C.ar    1  UNL1       -0.0597
     20 C           1.9733    0.2192    1.6344 C.ar    1  UNL1       -0.0356
     21 C           2.0554   -0.0349    0.2800 C.ar    1  UNL1        0.0752
     22 C          -1.2327   -0.0467   -0.4153 C.ar    1  UNL1       -0.0271
     23 C          -4.2125    0.1085    1.2993 C.3     1  UNL1        0.4222
     24 F          -5.3235   -0.6897    1.5826 F       1  UNL1       -0.1673
     25 F          -3.2600   -0.1055    2.2668 F       1  UNL1       -0.1673
     26 F          -4.6503    1.3974    1.3054 F       1  UNL1       -0.1673
     27 H          -4.2189   -2.3090    0.0890 H       1  UNL1        0.0263
     28 H          -2.8482   -1.9554   -0.9908 H       1  UNL1        0.0263
     29 H          -2.6265   -1.9064    0.8466 H       1  UNL1        0.0263
     30 H          -5.3100    0.5663   -0.9008 H       1  UNL1        0.2110
     31 H          -3.4803    2.4158   -0.3743 H       1  UNL1        0.0833
     32 H           0.6512    2.6990   -0.9288 H       1  UNL1        0.0851
     33 H           5.1783   -1.3079    0.3256 H       1  UNL1        0.0625
     34 H           4.9904   -0.8389    2.7344 H       1  UNL1        0.0618
     35 H           2.9232    0.1454    3.5748 H       1  UNL1        0.0618
     36 H           1.0416    0.6576    1.9810 H       1  UNL1        0.0639
     37 H          -1.1112   -1.1182   -0.3242 H       1  UNL1        0.0643
@<TRIPOS>BOND
     1     1     2    1
     2     2     3    1
     3     2     4    1
     4     4     5   ar
     5     5     6   ar
     6     6     7   ar
     7     7     8   ar
     8     8     9    1
     9     9    10   ar
    10    10    11   ar
    11    11    12    1
    12    12    13    1
    13    12    14    1
    14    12    15    1
    15    11    16   ar
    16    16    17   ar
    17    17    18   ar
    18    18    19   ar
    19    19    20   ar
    20    20    21   ar
    21     8    22   ar
    22     2    23    1
    23    23    24    1
    24    23    25    1
    25    23    26    1
    26    22     4   ar
    27    21     9   ar
    28    21    16   ar
    29     1    27    1
    30     1    28    1
    31     1    29    1
    32     3    30    1
    33     5    31    1
    34     7    32    1
    35    17    33    1
    36    18    34    1
    37    19    35    1
    38    20    36    1
    39    22    37    1
