
     RDKit          3D

 85 89  0  0  0  0  0  0  0  0999 V2000
   -3.0491    0.0318   -2.1297 C   0  0  0  0  0  0  0  0  0  0  0  0
   -3.0722    0.4499   -0.6973 C   0  0  2  0  0  0  0  0  0  0  0  0
   -4.2615    1.2941   -0.3943 C   0  0  0  0  0  0  0  0  0  0  0  0
   -5.5455    0.5538   -0.6376 C   0  0  0  0  0  0  0  0  0  0  0  0
   -5.6648   -0.7034    0.2026 C   0  0  1  0  0  0  0  0  0  0  0  0
   -5.6183   -0.4259    1.5617 O   0  0  0  0  0  0  0  0  0  0  0  0
   -7.0134   -1.3113   -0.1283 C   0  0  0  0  0  0  0  0  0  0  0  0
   -7.1071   -1.7076   -1.5744 C   0  0  0  0  0  0  0  0  0  0  0  0
   -8.1460   -0.3914    0.1962 C   0  0  0  0  0  0  0  0  0  0  0  0
   -7.1275   -2.4921    0.6332 O   0  0  0  0  0  0  0  0  0  0  0  0
   -1.7883    1.1786   -0.3304 C   0  0  1  0  0  0  0  0  0  0  0  0
   -1.8665    1.6131    1.1432 C   0  0  0  0  0  0  0  0  0  0  0  0
   -0.5440    1.2820    1.7801 C   0  0  0  0  0  0  0  0  0  0  0  0
    0.3378    1.1411    0.5592 C   0  0  1  0  0  0  0  0  0  0  0  0
    0.5739    2.4629    0.0102 C   0  0  0  0  0  0  0  0  0  0  0  0
    0.0641    3.4721    0.5627 O   0  0  0  0  0  0  0  0  0  0  0  0
    1.3394    2.7439   -1.1136 O   0  0  0  0  0  0  0  0  0  0  0  0
    1.5842    0.3573    0.8493 C   0  0  2  0  0  0  0  0  0  0  0  0
    2.5254    1.3233    1.5758 C   0  0  0  0  0  0  0  0  0  0  0  0
    3.7036    0.4355    2.0082 C   0  0  0  0  0  0  0  0  0  0  0  0
    4.4419    0.1776    0.7175 C   0  0  1  0  0  0  0  0  0  0  0  0
    5.8109   -0.3869    0.9254 C   0  0  0  0  0  0  0  0  0  0  0  0
    6.4616    0.3334    2.0994 C   0  0  0  0  0  0  0  0  0  0  0  0
    5.8642   -1.8515    1.1788 C   0  0  0  0  0  0  0  0  0  0  0  0
    6.5949   -0.1047   -0.3627 C   0  0  1  0  0  0  0  0  0  0  0  0
    7.4736   -1.1483   -0.6406 O   0  0  0  0  0  0  0  0  0  0  0  0
    5.6724    0.1939   -1.5087 C   0  0  0  0  0  0  0  0  0  0  0  0
    4.4530   -0.7156   -1.5246 C   0  0  0  0  0  0  0  0  0  0  0  0
    3.6329   -0.5886   -0.2628 C   0  0  1  0  0  0  0  0  0  0  0  0
    2.8068   -1.7394    0.1580 C   0  0  0  0  0  0  0  0  0  0  0  0
    2.1808   -0.3660   -0.2629 C   0  0  1  0  0  0  0  0  0  0  0  0
    1.5094   -0.3241   -1.5752 C   0  0  0  0  0  0  0  0  0  0  0  0
    0.0700    0.0297   -1.6210 C   0  0  0  0  0  0  0  0  0  0  0  0
   -0.5761    0.2841   -0.2947 C   0  0  2  0  0  0  0  0  0  0  0  0
   -0.9564   -0.9908    0.3648 C   0  0  0  0  0  0  0  0  0  0  0  0
   -2.3387    0.6424   -2.7447 H   0  0  0  0  0  0  0  0  0  0  0  0
   -2.8778   -1.0672   -2.2589 H   0  0  0  0  0  0  0  0  0  0  0  0
   -4.0339    0.2076   -2.6194 H   0  0  0  0  0  0  0  0  0  0  0  0
   -3.1190   -0.4973   -0.0950 H   0  0  0  0  0  0  0  0  0  0  0  0
   -4.3119    2.1979   -1.0787 H   0  0  0  0  0  0  0  0  0  0  0  0
   -4.2284    1.7475    0.6226 H   0  0  0  0  0  0  0  0  0  0  0  0
   -5.7041    0.2969   -1.6895 H   0  0  0  0  0  0  0  0  0  0  0  0
   -6.4172    1.2321   -0.3762 H   0  0  0  0  0  0  0  0  0  0  0  0
   -4.9022   -1.4312   -0.1316 H   0  0  0  0  0  0  0  0  0  0  0  0
   -5.8195    0.5261    1.7530 H   0  0  0  0  0  0  0  0  0  0  0  0
   -7.3312   -0.8316   -2.2184 H   0  0  0  0  0  0  0  0  0  0  0  0
   -6.1285   -2.1751   -1.8455 H   0  0  0  0  0  0  0  0  0  0  0  0
   -7.9138   -2.4450   -1.6725 H   0  0  0  0  0  0  0  0  0  0  0  0
   -8.9296   -0.9621    0.7166 H   0  0  0  0  0  0  0  0  0  0  0  0
   -8.5843    0.0437   -0.7285 H   0  0  0  0  0  0  0  0  0  0  0  0
   -7.8114    0.4220    0.8989 H   0  0  0  0  0  0  0  0  0  0  0  0
   -6.2203   -2.9218    0.5564 H   0  0  0  0  0  0  0  0  0  0  0  0
   -1.6755    2.0156   -1.0148 H   0  0  0  0  0  0  0  0  0  0  0  0
   -2.6394    1.0220    1.6751 H   0  0  0  0  0  0  0  0  0  0  0  0
   -2.0637    2.6959    1.1529 H   0  0  0  0  0  0  0  0  0  0  0  0
   -0.1869    2.1086    2.4435 H   0  0  0  0  0  0  0  0  0  0  0  0
   -0.5753    0.3521    2.3882 H   0  0  0  0  0  0  0  0  0  0  0  0
    1.6749    3.6589   -1.3186 H   0  0  0  0  0  0  0  0  0  0  0  0
    1.2816   -0.3709    1.6622 H   0  0  0  0  0  0  0  0  0  0  0  0
    2.8920    2.1180    0.9266 H   0  0  0  0  0  0  0  0  0  0  0  0
    1.9724    1.6818    2.4646 H   0  0  0  0  0  0  0  0  0  0  0  0
    3.3366   -0.4898    2.4931 H   0  0  0  0  0  0  0  0  0  0  0  0
    4.3028    1.0255    2.6993 H   0  0  0  0  0  0  0  0  0  0  0  0
    4.6004    1.2052    0.2669 H   0  0  0  0  0  0  0  0  0  0  0  0
    6.2883    1.4169    2.0715 H   0  0  0  0  0  0  0  0  0  0  0  0
    7.5536    0.0705    2.0371 H   0  0  0  0  0  0  0  0  0  0  0  0
    6.0956   -0.1632    3.0188 H   0  0  0  0  0  0  0  0  0  0  0  0
    6.7570   -2.0661    1.8394 H   0  0  0  0  0  0  0  0  0  0  0  0
    6.0878   -2.4474    0.2449 H   0  0  0  0  0  0  0  0  0  0  0  0
    5.0026   -2.2687    1.7186 H   0  0  0  0  0  0  0  0  0  0  0  0
    7.1778    0.8180   -0.1619 H   0  0  0  0  0  0  0  0  0  0  0  0
    8.4056   -0.8685   -0.3813 H   0  0  0  0  0  0  0  0  0  0  0  0
    5.3875    1.2387   -1.6134 H   0  0  0  0  0  0  0  0  0  0  0  0
    6.2412   -0.0703   -2.4465 H   0  0  0  0  0  0  0  0  0  0  0  0
    4.8017   -1.7813   -1.6677 H   0  0  0  0  0  0  0  0  0  0  0  0
    3.9005   -0.4791   -2.4519 H   0  0  0  0  0  0  0  0  0  0  0  0
    2.7009   -2.5572   -0.5918 H   0  0  0  0  0  0  0  0  0  0  0  0
    2.6739   -2.0666    1.1847 H   0  0  0  0  0  0  0  0  0  0  0  0
    1.6351   -1.3291   -2.0802 H   0  0  0  0  0  0  0  0  0  0  0  0
    2.0735    0.3666   -2.2715 H   0  0  0  0  0  0  0  0  0  0  0  0
   -0.0749    0.9640   -2.2273 H   0  0  0  0  0  0  0  0  0  0  0  0
   -0.5239   -0.7523   -2.1323 H   0  0  0  0  0  0  0  0  0  0  0  0
   -1.6409   -0.9107    1.2198 H   0  0  0  0  0  0  0  0  0  0  0  0
   -0.0990   -1.5999    0.7116 H   0  0  0  0  0  0  0  0  0  0  0  0
   -1.4564   -1.6328   -0.4154 H   0  0  0  0  0  0  0  0  0  0  0  0
  1  2  1  0
  2  3  1  0
  3  4  1  0
  4  5  1  0
  5  6  1  0
  5  7  1  0
  7  8  1  0
  7  9  1  0
  7 10  1  0
  2 11  1  0
 11 12  1  0
 12 13  1  0
 13 14  1  0
 14 15  1  6
 15 16  2  0
 15 17  1  0
 14 18  1  0
 18 19  1  0
 19 20  1  0
 20 21  1  0
 21 22  1  0
 22 23  1  0
 22 24  1  0
 22 25  1  0
 25 26  1  0
 25 27  1  0
 27 28  1  0
 29 28  1  6
 29 30  1  0
 31 30  1  1
 31 32  1  0
 32 33  1  0
 33 34  1  0
 34 35  1  1
 34 11  1  0
 34 14  1  0
 31 18  1  0
 29 21  1  0
 31 29  1  0
  1 36  1  0
  1 37  1  0
  1 38  1  0
  2 39  1  1
  3 40  1  0
  3 41  1  0
  4 42  1  0
  4 43  1  0
  5 44  1  6
  6 45  1  0
  8 46  1  0
  8 47  1  0
  8 48  1  0
  9 49  1  0
  9 50  1  0
  9 51  1  0
 10 52  1  0
 11 53  1  6
 12 54  1  0
 12 55  1  0
 13 56  1  0
 13 57  1  0
 17 58  1  0
 18 59  1  1
 19 60  1  0
 19 61  1  0
 20 62  1  0
 20 63  1  0
 21 64  1  6
 23 65  1  0
 23 66  1  0
 23 67  1  0
 24 68  1  0
 24 69  1  0
 24 70  1  0
 25 71  1  1
 26 72  1  0
 27 73  1  0
 27 74  1  0
 28 75  1  0
 28 76  1  0
 30 77  1  0
 30 78  1  0
 32 79  1  0
 32 80  1  0
 33 81  1  0
 33 82  1  0
 35 83  1  0
 35 84  1  0
 35 85  1  0
M  END
$$$$
