@<TRIPOS>MOLECULE
*****
 85 89 0 0 0
SMALL
GASTEIGER

@<TRIPOS>ATOM
      1 C          -3.0491    0.0318   -2.1297 C.3     1  UNL1       -0.0621
      2 C          -3.0722    0.4499   -0.6973 C.3     1  UNL1       -0.0404
      3 C          -4.2615    1.2941   -0.3943 C.3     1  UNL1       -0.0478
      4 C          -5.5455    0.5538   -0.6376 C.3     1  UNL1       -0.0239
      5 C          -5.6648   -0.7034    0.2026 C.3     1  UNL1        0.0833
      6 O          -5.6183   -0.4259    1.5617 O.3     1  UNL1       -0.3890
      7 C          -7.0134   -1.3113   -0.1283 C.3     1  UNL1        0.0862
      8 C          -7.1071   -1.7076   -1.5744 C.3     1  UNL1       -0.0339
      9 C          -8.1460   -0.3914    0.1962 C.3     1  UNL1       -0.0339
     10 O          -7.1275   -2.4921    0.6332 O.3     1  UNL1       -0.3866
     11 C          -1.7883    1.1786   -0.3304 C.3     1  UNL1       -0.0320
     12 C          -1.8665    1.6131    1.1432 C.3     1  UNL1       -0.0484
     13 C          -0.5440    1.2820    1.7801 C.3     1  UNL1       -0.0362
     14 C           0.3378    1.1411    0.5592 C.3     1  UNL1        0.0765
     15 C           0.5739    2.4629    0.0102 C.2     1  UNL1        0.3118
     16 O           0.0641    3.4721    0.5627 O.2     1  UNL1       -0.2504
     17 O           1.3394    2.7439   -1.1136 O.3     1  UNL1       -0.4802
     18 C           1.5842    0.3573    0.8493 C.3     1  UNL1       -0.0186
     19 C           2.5254    1.3233    1.5758 C.3     1  UNL1       -0.0484
     20 C           3.7036    0.4355    2.0082 C.3     1  UNL1       -0.0488
     21 C           4.4419    0.1776    0.7175 C.3     1  UNL1       -0.0273
     22 C           5.8109   -0.3869    0.9254 C.3     1  UNL1       -0.0056
     23 C           6.4616    0.3334    2.0994 C.3     1  UNL1       -0.0572
     24 C           5.8642   -1.8515    1.1788 C.3     1  UNL1       -0.0572
     25 C           6.5949   -0.1047   -0.3627 C.3     1  UNL1        0.0606
     26 O           7.4736   -1.1483   -0.6406 O.3     1  UNL1       -0.3912
     27 C           5.6724    0.1939   -1.5087 C.3     1  UNL1       -0.0258
     28 C           4.4530   -0.7156   -1.5246 C.3     1  UNL1       -0.0442
     29 C           3.6329   -0.5886   -0.2628 C.3     1  UNL1       -0.0193
     30 C           2.8068   -1.7394    0.1580 C.3     1  UNL1       -0.0401
     31 C           2.1808   -0.3660   -0.2629 C.3     1  UNL1       -0.0189
     32 C           1.5094   -0.3241   -1.5752 C.3     1  UNL1       -0.0460
     33 C           0.0700    0.0297   -1.6210 C.3     1  UNL1       -0.0458
     34 C          -0.5761    0.2841   -0.2947 C.3     1  UNL1       -0.0130
     35 C          -0.9564   -0.9908    0.3648 C.3     1  UNL1       -0.0583
     36 H          -2.3387    0.6424   -2.7447 H       1  UNL1        0.0233
     37 H          -2.8778   -1.0672   -2.2589 H       1  UNL1        0.0233
     38 H          -4.0339    0.2076   -2.6194 H       1  UNL1        0.0233
     39 H          -3.1190   -0.4973   -0.0950 H       1  UNL1        0.0301
     40 H          -4.3119    2.1979   -1.0787 H       1  UNL1        0.0269
     41 H          -4.2284    1.7475    0.6226 H       1  UNL1        0.0269
     42 H          -5.7041    0.2969   -1.6895 H       1  UNL1        0.0291
     43 H          -6.4172    1.2321   -0.3762 H       1  UNL1        0.0291
     44 H          -4.9022   -1.4312   -0.1316 H       1  UNL1        0.0622
     45 H          -5.8195    0.5261    1.7530 H       1  UNL1        0.2099
     46 H          -7.3312   -0.8316   -2.2184 H       1  UNL1        0.0258
     47 H          -6.1285   -2.1751   -1.8455 H       1  UNL1        0.0258
     48 H          -7.9138   -2.4450   -1.6725 H       1  UNL1        0.0258
     49 H          -8.9296   -0.9621    0.7166 H       1  UNL1        0.0258
     50 H          -8.5843    0.0437   -0.7285 H       1  UNL1        0.0258
     51 H          -7.8114    0.4220    0.8989 H       1  UNL1        0.0258
     52 H          -6.2203   -2.9218    0.5564 H       1  UNL1        0.2102
     53 H          -1.6755    2.0156   -1.0148 H       1  UNL1        0.0309
     54 H          -2.6394    1.0220    1.6751 H       1  UNL1        0.0268
     55 H          -2.0637    2.6959    1.1529 H       1  UNL1        0.0268
     56 H          -0.1869    2.1086    2.4435 H       1  UNL1        0.0276
     57 H          -0.5753    0.3521    2.3882 H       1  UNL1        0.0276
     58 H           1.6749    3.6589   -1.3186 H       1  UNL1        0.2951
     59 H           1.2816   -0.3709    1.6622 H       1  UNL1        0.0317
     60 H           2.8920    2.1180    0.9266 H       1  UNL1        0.0268
     61 H           1.9724    1.6818    2.4646 H       1  UNL1        0.0268
     62 H           3.3366   -0.4898    2.4931 H       1  UNL1        0.0268
     63 H           4.3028    1.0255    2.6993 H       1  UNL1        0.0268
     64 H           4.6004    1.2052    0.2669 H       1  UNL1        0.0312
     65 H           6.2883    1.4169    2.0715 H       1  UNL1        0.0236
     66 H           7.5536    0.0705    2.0371 H       1  UNL1        0.0236
     67 H           6.0956   -0.1632    3.0188 H       1  UNL1        0.0236
     68 H           6.7570   -2.0661    1.8394 H       1  UNL1        0.0236
     69 H           6.0878   -2.4474    0.2449 H       1  UNL1        0.0236
     70 H           5.0026   -2.2687    1.7186 H       1  UNL1        0.0236
     71 H           7.1778    0.8180   -0.1619 H       1  UNL1        0.0599
     72 H           8.4056   -0.8685   -0.3813 H       1  UNL1        0.2098
     73 H           5.3875    1.2387   -1.6134 H       1  UNL1        0.0290
     74 H           6.2412   -0.0703   -2.4465 H       1  UNL1        0.0290
     75 H           4.8017   -1.7813   -1.6677 H       1  UNL1        0.0272
     76 H           3.9005   -0.4791   -2.4519 H       1  UNL1        0.0272
     77 H           2.7009   -2.5572   -0.5918 H       1  UNL1        0.0276
     78 H           2.6739   -2.0666    1.1847 H       1  UNL1        0.0276
     79 H           1.6351   -1.3291   -2.0802 H       1  UNL1        0.0271
     80 H           2.0735    0.3666   -2.2715 H       1  UNL1        0.0271
     81 H          -0.0749    0.9640   -2.2273 H       1  UNL1        0.0271
     82 H          -0.5239   -0.7523   -2.1323 H       1  UNL1        0.0271
     83 H          -1.6409   -0.9107    1.2198 H       1  UNL1        0.0235
     84 H          -0.0990   -1.5999    0.7116 H       1  UNL1        0.0235
     85 H          -1.4564   -1.6328   -0.4154 H       1  UNL1        0.0235
@<TRIPOS>BOND
     1     1     2    1
     2     2     3    1
     3     3     4    1
     4     4     5    1
     5     5     6    1
     6     5     7    1
     7     7     8    1
     8     7     9    1
     9     7    10    1
    10     2    11    1
    11    11    12    1
    12    12    13    1
    13    13    14    1
    14    14    15    1
    15    15    16    2
    16    15    17    1
    17    14    18    1
    18    18    19    1
    19    19    20    1
    20    20    21    1
    21    21    22    1
    22    22    23    1
    23    22    24    1
    24    22    25    1
    25    25    26    1
    26    25    27    1
    27    27    28    1
    28    29    28    1
    29    29    30    1
    30    31    30    1
    31    31    32    1
    32    32    33    1
    33    33    34    1
    34    34    35    1
    35    34    11    1
    36    34    14    1
    37    31    18    1
    38    29    21    1
    39    31    29    1
    40     1    36    1
    41     1    37    1
    42     1    38    1
    43     2    39    1
    44     3    40    1
    45     3    41    1
    46     4    42    1
    47     4    43    1
    48     5    44    1
    49     6    45    1
    50     8    46    1
    51     8    47    1
    52     8    48    1
    53     9    49    1
    54     9    50    1
    55     9    51    1
    56    10    52    1
    57    11    53    1
    58    12    54    1
    59    12    55    1
    60    13    56    1
    61    13    57    1
    62    17    58    1
    63    18    59    1
    64    19    60    1
    65    19    61    1
    66    20    62    1
    67    20    63    1
    68    21    64    1
    69    23    65    1
    70    23    66    1
    71    23    67    1
    72    24    68    1
    73    24    69    1
    74    24    70    1
    75    25    71    1
    76    26    72    1
    77    27    73    1
    78    27    74    1
    79    28    75    1
    80    28    76    1
    81    30    77    1
    82    30    78    1
    83    32    79    1
    84    32    80    1
    85    33    81    1
    86    33    82    1
    87    35    83    1
    88    35    84    1
    89    35    85    1
