
     RDKit          3D

 71 72  0  0  0  0  0  0  0  0999 V2000
    8.8407   -2.0044   -0.6875 C   0  0  0  0  0  0  0  0  0  0  0  0
    7.9737   -1.0723   -0.5759 O   0  0  0  0  0  0  0  0  0  0  0  0
    7.1347   -0.0884   -0.5479 C   0  0  0  0  0  0  0  0  0  0  0  0
    6.8596    0.9765   -1.2893 C   0  0  0  0  0  0  0  0  0  0  0  0
    5.8974    1.9258   -1.0510 C   0  0  0  0  0  0  0  0  0  0  0  0
    5.0947    1.8172    0.0694 C   0  0  0  0  0  0  0  0  0  0  0  0
    4.0231    2.7720    0.4268 C   0  0  0  0  0  0  0  0  0  0  0  0
    2.7263    2.2426    0.8090 C   0  0  0  0  0  0  0  0  0  0  0  0
    1.8933    1.4882   -0.0283 N   0  0  0  0  0  0  0  0  0  0  0  0
    2.2697    0.1963   -0.4292 C   0  0  0  0  0  0  0  0  0  0  0  0
    0.5002    1.6692    0.3642 C   0  0  0  0  0  0  0  0  0  0  0  0
   -0.3958    0.7194   -0.3278 C   0  0  0  0  0  0  0  0  0  0  0  0
   -1.8457    0.9694    0.0676 C   0  0  0  0  0  0  0  0  0  0  0  0
   -2.7321    0.0066   -0.6921 C   0  0  0  0  0  0  0  0  0  0  0  0
   -2.5614    0.2474   -2.0614 C   0  0  0  0  0  0  0  0  0  0  0  0
   -2.4264    0.4747   -3.3175 N   0  0  0  0  0  0  0  0  0  0  0  0
   -4.1753    0.2374   -0.3795 C   0  0  0  0  0  0  0  0  0  0  0  0
   -4.7752    1.4569   -0.8220 C   0  0  0  0  0  0  0  0  0  0  0  0
   -6.1295    1.6712   -0.5687 C   0  0  0  0  0  0  0  0  0  0  0  0
   -6.9003    0.7562    0.0839 C   0  0  0  0  0  0  0  0  0  0  0  0
   -8.2473    0.9620    0.3634 O   0  0  0  0  0  0  0  0  0  0  0  0
   -8.8660    2.1762    0.0387 C   0  0  0  0  0  0  0  0  0  0  0  0
   -6.3422   -0.4861    0.5355 C   0  0  0  0  0  0  0  0  0  0  0  0
   -7.1048   -1.4468    1.1667 O   0  0  0  0  0  0  0  0  0  0  0  0
   -6.4459   -2.6596    1.4543 C   0  0  0  0  0  0  0  0  0  0  0  0
   -5.0243   -0.5852    0.2525 C   0  0  0  0  0  0  0  0  0  0  0  0
   -2.3528   -1.4678   -0.4243 C   0  0  0  0  0  0  0  0  0  0  0  0
   -3.2960   -2.2953   -1.2286 C   0  0  0  0  0  0  0  0  0  0  0  0
   -2.2276   -1.7892    1.0181 C   0  0  0  0  0  0  0  0  0  0  0  0
    5.3480    0.7318    0.8521 C   0  0  0  0  0  0  0  0  0  0  0  0
    6.2450   -0.2345    0.7019 C   0  0  0  0  0  0  0  0  0  0  0  0
    6.5552   -1.3120    1.3532 O   0  0  0  0  0  0  0  0  0  0  0  0
    6.8583   -2.3822    2.0061 C   0  0  0  0  0  0  0  0  0  0  0  0
    8.4030   -3.0094   -0.2468 H   0  0  0  0  0  0  0  0  0  0  0  0
    9.2222   -2.3769   -1.6597 H   0  0  0  0  0  0  0  0  0  0  0  0
    9.7531   -1.8440   -0.0009 H   0  0  0  0  0  0  0  0  0  0  0  0
    7.4776    1.1060   -2.2066 H   0  0  0  0  0  0  0  0  0  0  0  0
    5.7801    2.7529   -1.7448 H   0  0  0  0  0  0  0  0  0  0  0  0
    4.4360    3.4809    1.1888 H   0  0  0  0  0  0  0  0  0  0  0  0
    3.9452    3.4416   -0.5189 H   0  0  0  0  0  0  0  0  0  0  0  0
    2.0522    3.0449    1.2950 H   0  0  0  0  0  0  0  0  0  0  0  0
    2.8803    1.5663    1.7464 H   0  0  0  0  0  0  0  0  0  0  0  0
    1.5127   -0.3721   -0.9739 H   0  0  0  0  0  0  0  0  0  0  0  0
    3.1981    0.2639   -1.0692 H   0  0  0  0  0  0  0  0  0  0  0  0
    2.6291   -0.4008    0.4354 H   0  0  0  0  0  0  0  0  0  0  0  0
    0.2837    2.7402    0.0543 H   0  0  0  0  0  0  0  0  0  0  0  0
    0.4737    1.6763    1.4486 H   0  0  0  0  0  0  0  0  0  0  0  0
   -0.3088    0.7646   -1.4038 H   0  0  0  0  0  0  0  0  0  0  0  0
   -0.1832   -0.3193    0.0745 H   0  0  0  0  0  0  0  0  0  0  0  0
   -2.1194    1.9845   -0.2511 H   0  0  0  0  0  0  0  0  0  0  0  0
   -1.9542    0.9312    1.1723 H   0  0  0  0  0  0  0  0  0  0  0  0
   -4.1750    2.1697   -1.3209 H   0  0  0  0  0  0  0  0  0  0  0  0
   -6.5979    2.5806   -0.9112 H   0  0  0  0  0  0  0  0  0  0  0  0
   -8.6643    2.4820   -1.0115 H   0  0  0  0  0  0  0  0  0  0  0  0
   -8.3877    3.0023    0.6759 H   0  0  0  0  0  0  0  0  0  0  0  0
   -9.9329    2.1517    0.3179 H   0  0  0  0  0  0  0  0  0  0  0  0
   -6.0827   -3.0859    0.4369 H   0  0  0  0  0  0  0  0  0  0  0  0
   -5.5558   -2.6275    2.0454 H   0  0  0  0  0  0  0  0  0  0  0  0
   -7.1313   -3.4422    1.8143 H   0  0  0  0  0  0  0  0  0  0  0  0
   -4.5700   -1.5265    0.6520 H   0  0  0  0  0  0  0  0  0  0  0  0
   -1.3613   -1.5642   -0.8971 H   0  0  0  0  0  0  0  0  0  0  0  0
   -3.6718   -3.1314   -0.6085 H   0  0  0  0  0  0  0  0  0  0  0  0
   -4.1122   -1.6951   -1.6875 H   0  0  0  0  0  0  0  0  0  0  0  0
   -2.6894   -2.7898   -2.0594 H   0  0  0  0  0  0  0  0  0  0  0  0
   -2.7752   -2.7441    1.2621 H   0  0  0  0  0  0  0  0  0  0  0  0
   -2.5034   -0.9485    1.6874 H   0  0  0  0  0  0  0  0  0  0  0  0
   -1.1812   -2.0568    1.3187 H   0  0  0  0  0  0  0  0  0  0  0  0
    4.6932    0.6336    1.7713 H   0  0  0  0  0  0  0  0  0  0  0  0
    7.9915   -2.5915    2.0879 H   0  0  0  0  0  0  0  0  0  0  0  0
    6.5398   -3.3633    1.3915 H   0  0  0  0  0  0  0  0  0  0  0  0
    6.3148   -2.5571    2.9464 H   0  0  0  0  0  0  0  0  0  0  0  0
  1  2  1  0
  2  3  1  0
  3  4  2  0
  4  5  1  0
  5  6  2  0
  6  7  1  0
  7  8  1  0
  8  9  1  0
  9 10  1  0
  9 11  1  0
 11 12  1  0
 12 13  1  0
 13 14  1  0
 14 15  1  0
 15 16  3  0
 14 17  1  0
 17 18  2  0
 18 19  1  0
 19 20  2  0
 20 21  1  0
 21 22  1  0
 20 23  1  0
 23 24  1  0
 24 25  1  0
 23 26  2  0
 14 27  1  0
 27 28  1  0
 27 29  1  0
  6 30  1  0
 30 31  2  0
 31 32  1  0
 32 33  1  0
 31  3  1  0
 26 17  1  0
  1 34  1  0
  1 35  1  0
  1 36  1  0
  4 37  1  0
  5 38  1  0
  7 39  1  0
  7 40  1  0
  8 41  1  0
  8 42  1  0
 10 43  1  0
 10 44  1  0
 10 45  1  0
 11 46  1  0
 11 47  1  0
 12 48  1  0
 12 49  1  0
 13 50  1  0
 13 51  1  0
 18 52  1  0
 19 53  1  0
 22 54  1  0
 22 55  1  0
 22 56  1  0
 25 57  1  0
 25 58  1  0
 25 59  1  0
 26 60  1  0
 27 61  1  0
 28 62  1  0
 28 63  1  0
 28 64  1  0
 29 65  1  0
 29 66  1  0
 29 67  1  0
 30 68  1  0
 33 69  1  0
 33 70  1  0
 33 71  1  0
M  END
$$$$
