@<TRIPOS>MOLECULE
*****
 71 72 0 0 0
SMALL
GASTEIGER

@<TRIPOS>ATOM
      1 C           8.8407   -2.0044   -0.6875 C.3     1  UNL1        0.0790
      2 O           7.9737   -1.0723   -0.5759 O.3     1  UNL1       -0.4915
      3 C           7.1347   -0.0884   -0.5479 C.ar    1  UNL1        0.1615
      4 C           6.8596    0.9765   -1.2893 C.ar    1  UNL1       -0.0160
      5 C           5.8974    1.9258   -1.0510 C.ar    1  UNL1       -0.0548
      6 C           5.0947    1.8172    0.0694 C.ar    1  UNL1       -0.0425
      7 C           4.0231    2.7720    0.4268 C.3     1  UNL1       -0.0148
      8 C           2.7263    2.2426    0.8090 C.3     1  UNL1        0.0026
      9 N           1.8933    1.4882   -0.0283 N.3     1  UNL1       -0.3050
     10 C           2.2697    0.1963   -0.4292 C.3     1  UNL1       -0.0128
     11 C           0.5002    1.6692    0.3642 C.3     1  UNL1       -0.0013
     12 C          -0.3958    0.7194   -0.3278 C.3     1  UNL1       -0.0385
     13 C          -1.8457    0.9694    0.0676 C.3     1  UNL1       -0.0290
     14 C          -2.7321    0.0066   -0.6921 C.3     1  UNL1        0.0846
     15 C          -2.5614    0.2474   -2.0614 C.1     1  UNL1        0.0742
     16 N          -2.4264    0.4747   -3.3175 N.1     1  UNL1       -0.1956
     17 C          -4.1753    0.2374   -0.3795 C.ar    1  UNL1       -0.0236
     18 C          -4.7752    1.4569   -0.8220 C.ar    1  UNL1       -0.0534
     19 C          -6.1295    1.6712   -0.5687 C.ar    1  UNL1       -0.0160
     20 C          -6.9003    0.7562    0.0839 C.ar    1  UNL1        0.1615
     21 O          -8.2473    0.9620    0.3634 O.3     1  UNL1       -0.4915
     22 C          -8.8660    2.1762    0.0387 C.3     1  UNL1        0.0790
     23 C          -6.3422   -0.4861    0.5355 C.ar    1  UNL1        0.1618
     24 O          -7.1048   -1.4468    1.1667 O.3     1  UNL1       -0.4914
     25 C          -6.4459   -2.6596    1.4543 C.3     1  UNL1        0.0790
     26 C          -5.0243   -0.5852    0.2525 C.ar    1  UNL1       -0.0116
     27 C          -2.3528   -1.4678   -0.4243 C.3     1  UNL1       -0.0242
     28 C          -3.2960   -2.2953   -1.2286 C.3     1  UNL1       -0.0609
     29 C          -2.2276   -1.7892    1.0181 C.3     1  UNL1       -0.0609
     30 C           5.3480    0.7318    0.8521 C.ar    1  UNL1       -0.0131
     31 C           6.2450   -0.2345    0.7019 C.ar    1  UNL1        0.1617
     32 O           6.5552   -1.3120    1.3532 O.3     1  UNL1       -0.4914
     33 C           6.8583   -2.3822    2.0061 C.3     1  UNL1        0.0790
     34 H           8.4030   -3.0094   -0.2468 H       1  UNL1        0.0660
     35 H           9.2222   -2.3769   -1.6597 H       1  UNL1        0.0660
     36 H           9.7531   -1.8440   -0.0009 H       1  UNL1        0.0660
     37 H           7.4776    1.1060   -2.2066 H       1  UNL1        0.0655
     38 H           5.7801    2.7529   -1.7448 H       1  UNL1        0.0621
     39 H           4.4360    3.4809    1.1888 H       1  UNL1        0.0326
     40 H           3.9452    3.4416   -0.5189 H       1  UNL1        0.0326
     41 H           2.0522    3.0449    1.2950 H       1  UNL1        0.0430
     42 H           2.8803    1.5663    1.7464 H       1  UNL1        0.0430
     43 H           1.5127   -0.3721   -0.9739 H       1  UNL1        0.0391
     44 H           3.1981    0.2639   -1.0692 H       1  UNL1        0.0391
     45 H           2.6291   -0.4008    0.4354 H       1  UNL1        0.0391
     46 H           0.2837    2.7402    0.0543 H       1  UNL1        0.0426
     47 H           0.4737    1.6763    1.4486 H       1  UNL1        0.0426
     48 H          -0.3088    0.7646   -1.4038 H       1  UNL1        0.0278
     49 H          -0.1832   -0.3193    0.0745 H       1  UNL1        0.0278
     50 H          -2.1194    1.9845   -0.2511 H       1  UNL1        0.0284
     51 H          -1.9542    0.9312    1.1723 H       1  UNL1        0.0284
     52 H          -4.1750    2.1697   -1.3209 H       1  UNL1        0.0622
     53 H          -6.5979    2.5806   -0.9112 H       1  UNL1        0.0655
     54 H          -8.6643    2.4820   -1.0115 H       1  UNL1        0.0660
     55 H          -8.3877    3.0023    0.6759 H       1  UNL1        0.0660
     56 H          -9.9329    2.1517    0.3179 H       1  UNL1        0.0660
     57 H          -6.0827   -3.0859    0.4369 H       1  UNL1        0.0660
     58 H          -5.5558   -2.6275    2.0454 H       1  UNL1        0.0660
     59 H          -7.1313   -3.4422    1.8143 H       1  UNL1        0.0660
     60 H          -4.5700   -1.5265    0.6520 H       1  UNL1        0.0658
     61 H          -1.3613   -1.5642   -0.8971 H       1  UNL1        0.0314
     62 H          -3.6718   -3.1314   -0.6085 H       1  UNL1        0.0233
     63 H          -4.1122   -1.6951   -1.6875 H       1  UNL1        0.0233
     64 H          -2.6894   -2.7898   -2.0594 H       1  UNL1        0.0233
     65 H          -2.7752   -2.7441    1.2621 H       1  UNL1        0.0233
     66 H          -2.5034   -0.9485    1.6874 H       1  UNL1        0.0233
     67 H          -1.1812   -2.0568    1.3187 H       1  UNL1        0.0233
     68 H           4.6932    0.6336    1.7713 H       1  UNL1        0.0658
     69 H           7.9915   -2.5915    2.0879 H       1  UNL1        0.0660
     70 H           6.5398   -3.3633    1.3915 H       1  UNL1        0.0660
     71 H           6.3148   -2.5571    2.9464 H       1  UNL1        0.0660
@<TRIPOS>BOND
     1     1     2    1
     2     2     3    1
     3     3     4   ar
     4     4     5   ar
     5     5     6   ar
     6     6     7    1
     7     7     8    1
     8     8     9    1
     9     9    10    1
    10     9    11    1
    11    11    12    1
    12    12    13    1
    13    13    14    1
    14    14    15    1
    15    15    16    3
    16    14    17    1
    17    17    18   ar
    18    18    19   ar
    19    19    20   ar
    20    20    21    1
    21    21    22    1
    22    20    23   ar
    23    23    24    1
    24    24    25    1
    25    23    26   ar
    26    14    27    1
    27    27    28    1
    28    27    29    1
    29     6    30   ar
    30    30    31   ar
    31    31    32    1
    32    32    33    1
    33    31     3   ar
    34    26    17   ar
    35     1    34    1
    36     1    35    1
    37     1    36    1
    38     4    37    1
    39     5    38    1
    40     7    39    1
    41     7    40    1
    42     8    41    1
    43     8    42    1
    44    10    43    1
    45    10    44    1
    46    10    45    1
    47    11    46    1
    48    11    47    1
    49    12    48    1
    50    12    49    1
    51    13    50    1
    52    13    51    1
    53    18    52    1
    54    19    53    1
    55    22    54    1
    56    22    55    1
    57    22    56    1
    58    25    57    1
    59    25    58    1
    60    25    59    1
    61    26    60    1
    62    27    61    1
    63    28    62    1
    64    28    63    1
    65    28    64    1
    66    29    65    1
    67    29    66    1
    68    29    67    1
    69    30    68    1
    70    33    69    1
    71    33    70    1
    72    33    71    1
