@<TRIPOS>MOLECULE
*****
 48 50 0 0 0
SMALL
GASTEIGER

@<TRIPOS>ATOM
      1 C           4.9159    0.3681    0.9261 C.3     1  UNL1       -0.0130
      2 N           3.7194   -0.3611    0.4562 N.3     1  UNL1       -0.3080
      3 C           3.4756   -1.3252    1.5642 C.3     1  UNL1       -0.0130
      4 C           4.0634   -1.1777   -0.6852 C.3     1  UNL1        0.0024
      5 C           2.8938   -1.8236   -1.3716 C.3     1  UNL1       -0.0129
      6 C           1.9835   -0.8025   -1.9014 C.ar    1  UNL1       -0.0211
      7 C           2.0182   -0.4253   -3.2473 C.ar    1  UNL1        0.0059
      8 N           1.1454    0.5368   -3.5777 N.ar    1  UNL1       -0.3604
      9 C           0.4969    0.8203   -2.4134 C.ar    1  UNL1        0.0467
     10 C           0.9982    0.0163   -1.4038 C.ar    1  UNL1        0.0032
     11 C           0.5283    0.0833   -0.1106 C.ar    1  UNL1       -0.0475
     12 C          -0.4885    0.9724    0.2695 C.ar    1  UNL1       -0.0243
     13 C          -0.8489    0.9731    1.6834 C.3     1  UNL1        0.1069
     14 S          -1.9440   -0.2307    2.2832 S.O2    1  UNL1        0.0359
     15 O          -2.0480   -0.0296    3.8095 O.2     1  UNL1       -0.1577
     16 O          -1.2949   -1.6165    2.1910 O.2     1  UNL1       -0.1577
     17 N          -3.4807   -0.2257    1.6070 N.3     1  UNL1       -0.1808
     18 C          -3.6664   -0.4688    0.2387 C.3     1  UNL1        0.0202
     19 C          -5.1847   -0.2655    0.1049 C.3     1  UNL1       -0.0374
     20 C          -5.4371    0.9452    0.9864 C.3     1  UNL1       -0.0374
     21 C          -4.2968    0.8841    1.9851 C.3     1  UNL1        0.0202
     22 C          -0.9461    1.7467   -0.7803 C.ar    1  UNL1       -0.0550
     23 C          -0.4997    1.7026   -2.0780 C.ar    1  UNL1       -0.0375
     24 H           5.2301    1.1355    0.2096 H       1  UNL1        0.0391
     25 H           5.7659   -0.3297    1.0717 H       1  UNL1        0.0391
     26 H           4.6623    0.7729    1.9305 H       1  UNL1        0.0391
     27 H           4.4737   -1.7073    1.8523 H       1  UNL1        0.0391
     28 H           2.8184   -2.1193    1.1726 H       1  UNL1        0.0391
     29 H           3.0286   -0.7944    2.4283 H       1  UNL1        0.0391
     30 H           4.8029   -1.9795   -0.3833 H       1  UNL1        0.0429
     31 H           4.6680   -0.5625   -1.4156 H       1  UNL1        0.0429
     32 H           3.2892   -2.4621   -2.2159 H       1  UNL1        0.0326
     33 H           2.3702   -2.5594   -0.7203 H       1  UNL1        0.0326
     34 H           2.6599   -0.8171   -4.0393 H       1  UNL1        0.0810
     35 H           0.8859    1.0625   -4.4329 H       1  UNL1        0.1653
     36 H           0.9361   -0.5663    0.6378 H       1  UNL1        0.0627
     37 H          -1.2876    1.9912    1.9646 H       1  UNL1        0.0565
     38 H           0.0766    0.9474    2.3478 H       1  UNL1        0.0565
     39 H          -3.1558    0.2145   -0.4201 H       1  UNL1        0.0444
     40 H          -3.4268   -1.5392   -0.0091 H       1  UNL1        0.0444
     41 H          -5.4465   -0.0098   -0.9207 H       1  UNL1        0.0278
     42 H          -5.7209   -1.1374    0.4722 H       1  UNL1        0.0278
     43 H          -5.2911    1.8637    0.3889 H       1  UNL1        0.0278
     44 H          -6.3788    0.9006    1.5351 H       1  UNL1        0.0278
     45 H          -3.6872    1.8180    1.9899 H       1  UNL1        0.0444
     46 H          -4.6923    0.7819    3.0267 H       1  UNL1        0.0444
     47 H          -1.7438    2.4405   -0.4711 H       1  UNL1        0.0621
     48 H          -0.9395    2.3590   -2.8034 H       1  UNL1        0.0638
@<TRIPOS>BOND
     1     1     2    1
     2     2     3    1
     3     2     4    1
     4     4     5    1
     5     5     6    1
     6     6     7   ar
     7     7     8   ar
     8     8     9   ar
     9     9    10   ar
    10    10    11   ar
    11    11    12   ar
    12    12    13    1
    13    13    14    1
    14    14    15    2
    15    14    16    2
    16    14    17    1
    17    17    18    1
    18    18    19    1
    19    19    20    1
    20    20    21    1
    21    12    22   ar
    22    22    23   ar
    23    10     6   ar
    24    21    17    1
    25    23     9   ar
    26     1    24    1
    27     1    25    1
    28     1    26    1
    29     3    27    1
    30     3    28    1
    31     3    29    1
    32     4    30    1
    33     4    31    1
    34     5    32    1
    35     5    33    1
    36     7    34    1
    37     8    35    1
    38    11    36    1
    39    13    37    1
    40    13    38    1
    41    18    39    1
    42    18    40    1
    43    19    41    1
    44    19    42    1
    45    20    43    1
    46    20    44    1
    47    21    45    1
    48    21    46    1
    49    22    47    1
    50    23    48    1
