@<TRIPOS>MOLECULE
*****
 52 54 0 0 0
SMALL
GASTEIGER

@<TRIPOS>ATOM
      1 C          -0.5877   -3.8320   -0.6780 C.3     1  UNL1       -0.0585
      2 C          -0.5313   -2.6951   -1.6677 C.3     1  UNL1       -0.0183
      3 C          -1.1573   -3.2748   -2.9534 C.3     1  UNL1       -0.0585
      4 C          -1.3150   -1.5283   -1.2911 C.ar    1  UNL1       -0.0056
      5 C          -2.5981   -1.4037   -1.7595 C.ar    1  UNL1        0.0334
      6 N          -3.3729   -0.3569   -1.4579 N.ar    1  UNL1       -0.2545
      7 C          -2.9738    0.6737   -0.6708 C.ar    1  UNL1        0.0755
      8 C          -3.9095    1.7562   -0.4184 C.ar    1  UNL1        0.0369
      9 C          -5.1666    1.7095   -1.0318 C.ar    1  UNL1       -0.0314
     10 C          -6.1277    2.6775   -0.8576 C.ar    1  UNL1        0.0418
     11 CL         -7.6902    2.5493   -1.6656 Cl      1  UNL1       -0.0835
     12 C          -5.8963    3.7674   -0.0519 C.ar    1  UNL1       -0.0406
     13 C          -4.6695    3.8351    0.5610 C.ar    1  UNL1       -0.0244
     14 C          -3.6861    2.8436    0.3822 C.ar    1  UNL1        0.1326
     15 F          -2.5173    2.9846    1.0205 F       1  UNL1       -0.2048
     16 C          -1.6895    0.5828   -0.1836 C.ar    1  UNL1       -0.0141
     17 C          -0.8511   -0.4841   -0.4662 C.ar    1  UNL1        0.0383
     18 N           0.4144   -0.6392    0.0967 N.pl3   1  UNL1       -0.3135
     19 C           0.8751    0.0419    1.2460 C.ar    1  UNL1        0.0465
     20 C           0.0009    0.5356    2.1899 C.ar    1  UNL1       -0.0217
     21 C           0.4110    1.2632    3.2748 C.ar    1  UNL1        0.0293
     22 N           1.6958    1.5280    3.4700 N.ar    1  UNL1       -0.2624
     23 C           2.5645    1.0583    2.5691 C.ar    1  UNL1        0.0415
     24 C           2.2206    0.3232    1.4570 C.ar    1  UNL1        0.0758
     25 C           3.2176   -0.1061    0.5129 C.2     1  UNL1        0.2477
     26 O           3.0144   -0.6732   -0.5744 O.2     1  UNL1       -0.2701
     27 N           4.6155    0.1179    0.8056 N.am    1  UNL1       -0.3027
     28 C           5.5958   -0.3383   -0.1918 C.3     1  UNL1        0.0882
     29 C           6.9746   -0.0324    0.2607 C.2     1  UNL1        0.2277
     30 N           7.2582    0.6080    1.4841 N.am    1  UNL1       -0.3280
     31 O           7.9437   -0.3525   -0.4689 O.2     1  UNL1       -0.2743
     32 H          -0.3013   -4.7547   -1.2398 H       1  UNL1        0.0235
     33 H          -1.6087   -4.0124   -0.2986 H       1  UNL1        0.0235
     34 H           0.1688   -3.7372    0.1321 H       1  UNL1        0.0235
     35 H           0.5047   -2.4589   -1.8992 H       1  UNL1        0.0344
     36 H          -2.0119   -3.9373   -2.7120 H       1  UNL1        0.0235
     37 H          -0.3927   -3.8994   -3.4487 H       1  UNL1        0.0235
     38 H          -1.4340   -2.4819   -3.6580 H       1  UNL1        0.0235
     39 H          -3.0227   -2.1946   -2.4146 H       1  UNL1        0.0833
     40 H          -5.3654    0.8571   -1.6708 H       1  UNL1        0.0639
     41 H          -6.6625    4.5168    0.0726 H       1  UNL1        0.0633
     42 H          -4.4753    4.6854    1.1961 H       1  UNL1        0.0647
     43 H          -1.2990    1.3982    0.3801 H       1  UNL1        0.0658
     44 H           1.0735   -1.3518   -0.3643 H       1  UNL1        0.1522
     45 H          -1.0776    0.3118    2.1511 H       1  UNL1        0.0651
     46 H          -0.3042    1.6496    4.0145 H       1  UNL1        0.0830
     47 H           3.5985    1.2883    2.7508 H       1  UNL1        0.0838
     48 H           4.9825    0.5618    1.6429 H       1  UNL1        0.1495
     49 H           5.4392   -1.4518   -0.2596 H       1  UNL1        0.0558
     50 H           5.4041    0.1049   -1.1828 H       1  UNL1        0.0558
     51 H           7.2235    1.6525    1.4964 H       1  UNL1        0.1450
     52 H           7.4985    0.1147    2.3701 H       1  UNL1        0.1450
@<TRIPOS>BOND
     1     1     2    1
     2     2     3    1
     3     2     4    1
     4     4     5   ar
     5     5     6   ar
     6     6     7   ar
     7     7     8    1
     8     8     9   ar
     9     9    10   ar
    10    10    11    1
    11    10    12   ar
    12    12    13   ar
    13    13    14   ar
    14    14    15    1
    15     7    16   ar
    16    16    17   ar
    17    17    18    1
    18    18    19    1
    19    19    20   ar
    20    20    21   ar
    21    21    22   ar
    22    22    23   ar
    23    23    24   ar
    24    24    25    1
    25    25    26    2
    26    25    27   am
    27    27    28    1
    28    28    29    1
    29    29    30   am
    30    29    31    2
    31    17     4   ar
    32    24    19   ar
    33    14     8   ar
    34     1    32    1
    35     1    33    1
    36     1    34    1
    37     2    35    1
    38     3    36    1
    39     3    37    1
    40     3    38    1
    41     5    39    1
    42     9    40    1
    43    12    41    1
    44    13    42    1
    45    16    43    1
    46    18    44    1
    47    20    45    1
    48    21    46    1
    49    23    47    1
    50    27    48    1
    51    28    49    1
    52    28    50    1
    53    30    51    1
    54    30    52    1
