
     RDKit          3D

 52 54  0  0  0  0  0  0  0  0999 V2000
   -0.5877   -3.8320   -0.6780 C   0  0  0  0  0  0  0  0  0  0  0  0
   -0.5313   -2.6951   -1.6677 C   0  0  0  0  0  0  0  0  0  0  0  0
   -1.1573   -3.2748   -2.9534 C   0  0  0  0  0  0  0  0  0  0  0  0
   -1.3150   -1.5283   -1.2911 C   0  0  0  0  0  0  0  0  0  0  0  0
   -2.5981   -1.4037   -1.7595 C   0  0  0  0  0  0  0  0  0  0  0  0
   -3.3729   -0.3569   -1.4579 N   0  0  0  0  0  0  0  0  0  0  0  0
   -2.9738    0.6737   -0.6708 C   0  0  0  0  0  0  0  0  0  0  0  0
   -3.9095    1.7562   -0.4184 C   0  0  0  0  0  0  0  0  0  0  0  0
   -5.1666    1.7095   -1.0318 C   0  0  0  0  0  0  0  0  0  0  0  0
   -6.1277    2.6775   -0.8576 C   0  0  0  0  0  0  0  0  0  0  0  0
   -7.6902    2.5493   -1.6656 Cl  0  0  0  0  0  0  0  0  0  0  0  0
   -5.8963    3.7674   -0.0519 C   0  0  0  0  0  0  0  0  0  0  0  0
   -4.6695    3.8351    0.5610 C   0  0  0  0  0  0  0  0  0  0  0  0
   -3.6861    2.8436    0.3822 C   0  0  0  0  0  0  0  0  0  0  0  0
   -2.5173    2.9846    1.0205 F   0  0  0  0  0  0  0  0  0  0  0  0
   -1.6895    0.5828   -0.1836 C   0  0  0  0  0  0  0  0  0  0  0  0
   -0.8511   -0.4841   -0.4662 C   0  0  0  0  0  0  0  0  0  0  0  0
    0.4144   -0.6392    0.0967 N   0  0  0  0  0  0  0  0  0  0  0  0
    0.8751    0.0419    1.2460 C   0  0  0  0  0  0  0  0  0  0  0  0
    0.0009    0.5356    2.1899 C   0  0  0  0  0  0  0  0  0  0  0  0
    0.4110    1.2632    3.2748 C   0  0  0  0  0  0  0  0  0  0  0  0
    1.6958    1.5280    3.4700 N   0  0  0  0  0  0  0  0  0  0  0  0
    2.5645    1.0583    2.5691 C   0  0  0  0  0  0  0  0  0  0  0  0
    2.2206    0.3232    1.4570 C   0  0  0  0  0  0  0  0  0  0  0  0
    3.2176   -0.1061    0.5129 C   0  0  0  0  0  0  0  0  0  0  0  0
    3.0144   -0.6732   -0.5744 O   0  0  0  0  0  0  0  0  0  0  0  0
    4.6155    0.1179    0.8056 N   0  0  0  0  0  0  0  0  0  0  0  0
    5.5958   -0.3383   -0.1918 C   0  0  0  0  0  0  0  0  0  0  0  0
    6.9746   -0.0324    0.2607 C   0  0  0  0  0  0  0  0  0  0  0  0
    7.2582    0.6080    1.4841 N   0  0  0  0  0  0  0  0  0  0  0  0
    7.9437   -0.3525   -0.4689 O   0  0  0  0  0  0  0  0  0  0  0  0
   -0.3013   -4.7547   -1.2398 H   0  0  0  0  0  0  0  0  0  0  0  0
   -1.6087   -4.0124   -0.2986 H   0  0  0  0  0  0  0  0  0  0  0  0
    0.1688   -3.7372    0.1321 H   0  0  0  0  0  0  0  0  0  0  0  0
    0.5047   -2.4589   -1.8992 H   0  0  0  0  0  0  0  0  0  0  0  0
   -2.0119   -3.9373   -2.7120 H   0  0  0  0  0  0  0  0  0  0  0  0
   -0.3927   -3.8994   -3.4487 H   0  0  0  0  0  0  0  0  0  0  0  0
   -1.4340   -2.4819   -3.6580 H   0  0  0  0  0  0  0  0  0  0  0  0
   -3.0227   -2.1946   -2.4146 H   0  0  0  0  0  0  0  0  0  0  0  0
   -5.3654    0.8571   -1.6708 H   0  0  0  0  0  0  0  0  0  0  0  0
   -6.6625    4.5168    0.0726 H   0  0  0  0  0  0  0  0  0  0  0  0
   -4.4753    4.6854    1.1961 H   0  0  0  0  0  0  0  0  0  0  0  0
   -1.2990    1.3982    0.3801 H   0  0  0  0  0  0  0  0  0  0  0  0
    1.0735   -1.3518   -0.3643 H   0  0  0  0  0  0  0  0  0  0  0  0
   -1.0776    0.3118    2.1511 H   0  0  0  0  0  0  0  0  0  0  0  0
   -0.3042    1.6496    4.0145 H   0  0  0  0  0  0  0  0  0  0  0  0
    3.5985    1.2883    2.7508 H   0  0  0  0  0  0  0  0  0  0  0  0
    4.9825    0.5618    1.6429 H   0  0  0  0  0  0  0  0  0  0  0  0
    5.4392   -1.4518   -0.2596 H   0  0  0  0  0  0  0  0  0  0  0  0
    5.4041    0.1049   -1.1828 H   0  0  0  0  0  0  0  0  0  0  0  0
    7.2235    1.6525    1.4964 H   0  0  0  0  0  0  0  0  0  0  0  0
    7.4985    0.1147    2.3701 H   0  0  0  0  0  0  0  0  0  0  0  0
  1  2  1  0
  2  3  1  0
  2  4  1  0
  4  5  2  0
  5  6  1  0
  6  7  2  0
  7  8  1  0
  8  9  2  0
  9 10  1  0
 10 11  1  0
 10 12  2  0
 12 13  1  0
 13 14  2  0
 14 15  1  0
  7 16  1  0
 16 17  2  0
 17 18  1  0
 18 19  1  0
 19 20  2  0
 20 21  1  0
 21 22  2  0
 22 23  1  0
 23 24  2  0
 24 25  1  0
 25 26  2  0
 25 27  1  0
 27 28  1  0
 28 29  1  0
 29 30  1  0
 29 31  2  0
 17  4  1  0
 24 19  1  0
 14  8  1  0
  1 32  1  0
  1 33  1  0
  1 34  1  0
  2 35  1  0
  3 36  1  0
  3 37  1  0
  3 38  1  0
  5 39  1  0
  9 40  1  0
 12 41  1  0
 13 42  1  0
 16 43  1  0
 18 44  1  0
 20 45  1  0
 21 46  1  0
 23 47  1  0
 27 48  1  0
 28 49  1  0
 28 50  1  0
 30 51  1  0
 30 52  1  0
M  END
$$$$
