@<TRIPOS>MOLECULE
*****
 26 26 0 0 0
SMALL
GASTEIGER

@<TRIPOS>ATOM
      1 C           3.8339    0.1014   -0.8353 C.3     1  UNL1        0.0366
      2 O           3.5916    0.6081    0.4318 O.3     1  UNL1       -0.3796
      3 C           3.1008   -0.3390    1.3106 C.3     1  UNL1        0.0814
      4 C           1.7756   -0.9253    0.8118 C.3     1  UNL1        0.1144
      5 O           0.8407    0.1181    0.6926 O.3     1  UNL1       -0.4739
      6 C          -0.4610   -0.0576    0.2666 C.ar    1  UNL1        0.2194
      7 N          -1.0665   -1.2040   -0.1017 N.ar    1  UNL1       -0.1796
      8 C          -2.3626   -1.1568   -0.4904 C.ar    1  UNL1        0.2159
      9 N          -3.0081   -2.3644   -0.8807 N.pl3   1  UNL1       -0.3274
     10 N          -3.0927   -0.0041   -0.5295 N.ar    1  UNL1       -0.2197
     11 C          -2.5157    1.1768   -0.1644 C.ar    1  UNL1        0.0469
     12 C          -3.2978    2.4414   -0.2016 C.3     1  UNL1       -0.0221
     13 C          -1.1884    1.1189    0.2321 C.ar    1  UNL1        0.0211
     14 H           4.2233    0.9545   -1.4455 H       1  UNL1        0.0524
     15 H           2.9153   -0.2466   -1.3549 H       1  UNL1        0.0524
     16 H           4.6553   -0.6509   -0.8569 H       1  UNL1        0.0524
     17 H           3.7955   -1.1400    1.5575 H       1  UNL1        0.0593
     18 H           2.8491    0.2036    2.2564 H       1  UNL1        0.0593
     19 H           1.4168   -1.5932    1.6346 H       1  UNL1        0.0720
     20 H           1.9211   -1.5315   -0.0846 H       1  UNL1        0.0720
     21 H          -3.6027   -2.7449   -0.1233 H       1  UNL1        0.1452
     22 H          -3.0925   -3.0104   -1.6764 H       1  UNL1        0.1452
     23 H          -2.6013    3.2699   -0.3917 H       1  UNL1        0.0293
     24 H          -3.7566    2.5601    0.8190 H       1  UNL1        0.0293
     25 H          -4.0791    2.3266   -0.9773 H       1  UNL1        0.0293
     26 H          -0.7939    2.0894    0.5078 H       1  UNL1        0.0689
@<TRIPOS>BOND
     1     1     2    1
     2     2     3    1
     3     3     4    1
     4     4     5    1
     5     5     6    1
     6     6     7   ar
     7     7     8   ar
     8     8     9    1
     9     8    10   ar
    10    10    11   ar
    11    11    12    1
    12    11    13   ar
    13    13     6   ar
    14     1    14    1
    15     1    15    1
    16     1    16    1
    17     3    17    1
    18     3    18    1
    19     4    19    1
    20     4    20    1
    21     9    21    1
    22     9    22    1
    23    12    23    1
    24    12    24    1
    25    12    25    1
    26    13    26    1
