@<TRIPOS>MOLECULE
*****
 63 66 0 0 0
SMALL
GASTEIGER

@<TRIPOS>ATOM
      1 C           0.0366    2.9469   -1.5442 C.3     1  UNL1       -0.0633
      2 C          -0.1353    1.8903   -2.5689 C.3     1  UNL1       -0.0329
      3 C           0.0063    0.4573   -2.0327 C.3     1  UNL1        0.0540
      4 C           1.3452    0.2226   -1.4437 C.ar    1  UNL1       -0.0269
      5 C           1.5582   -0.8589   -0.5796 C.ar    1  UNL1       -0.0562
      6 C           2.7825   -1.1298   -0.0168 C.ar    1  UNL1       -0.0537
      7 C           3.8844   -0.3427   -0.2740 C.ar    1  UNL1       -0.0165
      8 C           5.1920   -0.6298    0.3265 C.ar    1  UNL1       -0.0015
      9 C           5.6193   -1.9090    0.6194 C.ar    1  UNL1       -0.0475
     10 C           6.8449   -2.1545    1.1807 C.ar    1  UNL1        0.0036
     11 C           7.6669   -1.1078    1.4584 C.ar    1  UNL1        0.2511
     12 O           8.8001   -1.3248    1.9765 O.2     1  UNL1       -0.2677
     13 N           7.2546    0.1538    1.1735 N.ar    1  UNL1       -0.3177
     14 C           8.1786    1.2338    1.4938 C.3     1  UNL1        0.0147
     15 C           6.0535    0.4068    0.6225 C.ar    1  UNL1        0.0153
     16 C           3.6949    0.7259   -1.1221 C.ar    1  UNL1       -0.0537
     17 C           2.4538    0.9981   -1.6912 C.ar    1  UNL1       -0.0562
     18 N          -1.0644    0.1387   -1.1393 N.am    1  UNL1       -0.2602
     19 C          -2.1212   -0.7577   -1.5638 C.3     1  UNL1        0.0224
     20 C          -2.7928   -1.4419   -0.3815 C.3     1  UNL1        0.0075
     21 C          -3.3705   -0.4220    0.5135 C.3     1  UNL1        0.1435
     22 C          -3.5888   -0.9363    1.9314 C.3     1  UNL1        0.0148
     23 C          -4.5227   -2.1073    1.9705 C.3     1  UNL1        0.0482
     24 O          -4.6747   -2.5233    3.2914 O.3     1  UNL1       -0.3949
     25 C          -4.6488    0.1156   -0.0087 C.ar    1  UNL1       -0.0041
     26 C          -5.2658    1.1808    0.6552 C.ar    1  UNL1       -0.0548
     27 C          -6.4374    1.6924    0.2180 C.ar    1  UNL1       -0.0614
     28 C          -7.0658    1.1988   -0.8795 C.ar    1  UNL1       -0.0617
     29 C          -6.4910    0.1637   -1.5458 C.ar    1  UNL1       -0.0614
     30 C          -5.2845   -0.3776   -1.1115 C.ar    1  UNL1       -0.0548
     31 O          -2.5034    0.7203    0.6956 O.3     1  UNL1       -0.4388
     32 C          -1.1966    0.6587    0.1704 C.2     1  UNL1        0.4042
     33 O          -0.1829    1.0322    0.7971 O.2     1  UNL1       -0.2262
     34 H          -0.8944    3.0404   -0.9092 H       1  UNL1        0.0230
     35 H           0.0455    3.9363   -2.1014 H       1  UNL1        0.0230
     36 H           0.8778    2.8634   -0.8638 H       1  UNL1        0.0230
     37 H           0.6169    1.9815   -3.3778 H       1  UNL1        0.0284
     38 H          -1.1247    2.0047   -3.0661 H       1  UNL1        0.0284
     39 H          -0.1633   -0.1560   -2.9759 H       1  UNL1        0.0551
     40 H           0.6943   -1.4884   -0.3688 H       1  UNL1        0.0621
     41 H           2.9338   -1.9774    0.6560 H       1  UNL1        0.0624
     42 H           4.9610   -2.7566    0.3977 H       1  UNL1        0.0626
     43 H           7.1180   -3.1660    1.3836 H       1  UNL1        0.0672
     44 H           9.2362    0.8654    1.4140 H       1  UNL1        0.0457
     45 H           8.0081    2.0831    0.8156 H       1  UNL1        0.0457
     46 H           7.9861    1.4997    2.5523 H       1  UNL1        0.0457
     47 H           5.7941    1.4478    0.4231 H       1  UNL1        0.0816
     48 H           4.5479    1.3525   -1.3342 H       1  UNL1        0.0624
     49 H           2.3536    1.8561   -2.3712 H       1  UNL1        0.0621
     50 H          -1.7388   -1.5744   -2.2110 H       1  UNL1        0.0467
     51 H          -2.8768   -0.2067   -2.1221 H       1  UNL1        0.0467
     52 H          -3.5531   -2.1275   -0.7899 H       1  UNL1        0.0322
     53 H          -2.0173   -2.0830    0.1492 H       1  UNL1        0.0322
     54 H          -2.6331   -1.1877    2.4291 H       1  UNL1        0.0329
     55 H          -4.0474   -0.1060    2.5033 H       1  UNL1        0.0329
     56 H          -5.5401   -1.8484    1.6072 H       1  UNL1        0.0558
     57 H          -4.1853   -2.9689    1.3865 H       1  UNL1        0.0558
     58 H          -4.8880   -3.4830    3.3734 H       1  UNL1        0.2094
     59 H          -4.7310    1.5552    1.5379 H       1  UNL1        0.0622
     60 H          -6.8719    2.5302    0.7839 H       1  UNL1        0.0618
     61 H          -8.0148    1.6375   -1.2067 H       1  UNL1        0.0618
     62 H          -6.9883   -0.2355   -2.4239 H       1  UNL1        0.0618
     63 H          -4.9303   -1.2015   -1.7182 H       1  UNL1        0.0622
@<TRIPOS>BOND
     1     1     2    1
     2     2     3    1
     3     3     4    1
     4     4     5   ar
     5     5     6   ar
     6     6     7   ar
     7     7     8    1
     8     8     9   ar
     9     9    10   ar
    10    10    11   ar
    11    11    12    2
    12    11    13   ar
    13    13    14    1
    14    13    15   ar
    15     7    16   ar
    16    16    17   ar
    17     3    18    1
    18    18    19    1
    19    19    20    1
    20    20    21    1
    21    21    22    1
    22    22    23    1
    23    23    24    1
    24    21    25    1
    25    25    26   ar
    26    26    27   ar
    27    27    28   ar
    28    28    29   ar
    29    29    30   ar
    30    21    31    1
    31    31    32    1
    32    32    33    2
    33    17     4   ar
    34    32    18   am
    35    15     8   ar
    36    30    25   ar
    37     1    34    1
    38     1    35    1
    39     1    36    1
    40     2    37    1
    41     2    38    1
    42     3    39    1
    43     5    40    1
    44     6    41    1
    45     9    42    1
    46    10    43    1
    47    14    44    1
    48    14    45    1
    49    14    46    1
    50    15    47    1
    51    16    48    1
    52    17    49    1
    53    19    50    1
    54    19    51    1
    55    20    52    1
    56    20    53    1
    57    22    54    1
    58    22    55    1
    59    23    56    1
    60    23    57    1
    61    24    58    1
    62    26    59    1
    63    27    60    1
    64    28    61    1
    65    29    62    1
    66    30    63    1
