@<TRIPOS>MOLECULE
*****
 30 31 0 0 0
SMALL
GASTEIGER

@<TRIPOS>ATOM
      1 C          -2.1218   -2.4753    0.7478 C.3     1  UNL1       -0.0598
      2 C          -0.8412   -1.7147    0.4070 C.3     1  UNL1       -0.0124
      3 C          -1.1167   -0.2822    0.2315 C.ar    1  UNL1        0.0556
      4 N          -2.4001    0.1426    0.3881 N.ar    1  UNL1       -0.2190
      5 C          -2.7123    1.4225    0.2427 C.ar    1  UNL1        0.2145
      6 N          -4.0680    1.7993    0.4193 N.pl3   1  UNL1       -0.3274
      7 N          -1.7430    2.2997   -0.0624 N.ar    1  UNL1       -0.1995
      8 C          -0.4663    1.9046   -0.2225 C.ar    1  UNL1        0.1293
      9 N           0.4620    2.9278   -0.5432 N.pl3   1  UNL1       -0.3425
     10 C          -0.0941    0.5842   -0.0812 C.ar    1  UNL1        0.0430
     11 C           1.2188    0.1041   -0.2342 C.ar    1  UNL1       -0.0128
     12 C           1.7068   -0.3278   -1.4688 C.ar    1  UNL1       -0.0525
     13 C           2.9942   -0.7981   -1.6167 C.ar    1  UNL1       -0.0428
     14 C           3.8154   -0.8357   -0.4916 C.ar    1  UNL1        0.0410
     15 CL          5.4572   -1.4326   -0.6668 Cl      1  UNL1       -0.0835
     16 C           3.3451   -0.4103    0.7409 C.ar    1  UNL1       -0.0428
     17 C           2.0551    0.0555    0.8639 C.ar    1  UNL1       -0.0525
     18 H          -2.3516   -2.2821    1.8090 H       1  UNL1        0.0233
     19 H          -1.9918   -3.5502    0.5820 H       1  UNL1        0.0233
     20 H          -2.9263   -2.0185    0.1273 H       1  UNL1        0.0233
     21 H          -0.1882   -1.9603    1.2476 H       1  UNL1        0.0326
     22 H          -0.5539   -2.2265   -0.5506 H       1  UNL1        0.0326
     23 H          -4.2679    2.7597    0.7437 H       1  UNL1        0.1452
     24 H          -4.8636    1.1667    0.2413 H       1  UNL1        0.1452
     25 H           0.8438    3.6037    0.1384 H       1  UNL1        0.1437
     26 H           0.7752    2.9959   -1.5357 H       1  UNL1        0.1437
     27 H           1.0152   -0.2705   -2.2978 H       1  UNL1        0.0624
     28 H           3.3277   -1.1209   -2.5893 H       1  UNL1        0.0632
     29 H           4.0005   -0.4476    1.6052 H       1  UNL1        0.0632
     30 H           1.6899    0.3867    1.8251 H       1  UNL1        0.0624
@<TRIPOS>BOND
     1     1     2    1
     2     2     3    1
     3     3     4   ar
     4     4     5   ar
     5     5     6    1
     6     5     7   ar
     7     7     8   ar
     8     8     9    1
     9     8    10   ar
    10    10    11    1
    11    11    12   ar
    12    12    13   ar
    13    13    14   ar
    14    14    15    1
    15    14    16   ar
    16    16    17   ar
    17    10     3   ar
    18    17    11   ar
    19     1    18    1
    20     1    19    1
    21     1    20    1
    22     2    21    1
    23     2    22    1
    24     6    23    1
    25     6    24    1
    26     9    25    1
    27     9    26    1
    28    12    27    1
    29    13    28    1
    30    16    29    1
    31    17    30    1
