
     RDKit          3D

 30 31  0  0  0  0  0  0  0  0999 V2000
   -2.1218   -2.4753    0.7478 C   0  0  0  0  0  0  0  0  0  0  0  0
   -0.8412   -1.7147    0.4070 C   0  0  0  0  0  0  0  0  0  0  0  0
   -1.1167   -0.2822    0.2315 C   0  0  0  0  0  0  0  0  0  0  0  0
   -2.4001    0.1426    0.3881 N   0  0  0  0  0  0  0  0  0  0  0  0
   -2.7123    1.4225    0.2427 C   0  0  0  0  0  0  0  0  0  0  0  0
   -4.0680    1.7993    0.4193 N   0  0  0  0  0  0  0  0  0  0  0  0
   -1.7430    2.2997   -0.0624 N   0  0  0  0  0  0  0  0  0  0  0  0
   -0.4663    1.9046   -0.2225 C   0  0  0  0  0  0  0  0  0  0  0  0
    0.4620    2.9278   -0.5432 N   0  0  0  0  0  0  0  0  0  0  0  0
   -0.0941    0.5842   -0.0812 C   0  0  0  0  0  0  0  0  0  0  0  0
    1.2188    0.1041   -0.2342 C   0  0  0  0  0  0  0  0  0  0  0  0
    1.7068   -0.3278   -1.4688 C   0  0  0  0  0  0  0  0  0  0  0  0
    2.9942   -0.7981   -1.6167 C   0  0  0  0  0  0  0  0  0  0  0  0
    3.8154   -0.8357   -0.4916 C   0  0  0  0  0  0  0  0  0  0  0  0
    5.4572   -1.4326   -0.6668 Cl  0  0  0  0  0  0  0  0  0  0  0  0
    3.3451   -0.4103    0.7409 C   0  0  0  0  0  0  0  0  0  0  0  0
    2.0551    0.0555    0.8639 C   0  0  0  0  0  0  0  0  0  0  0  0
   -2.3516   -2.2821    1.8090 H   0  0  0  0  0  0  0  0  0  0  0  0
   -1.9918   -3.5502    0.5820 H   0  0  0  0  0  0  0  0  0  0  0  0
   -2.9263   -2.0185    0.1273 H   0  0  0  0  0  0  0  0  0  0  0  0
   -0.1882   -1.9603    1.2476 H   0  0  0  0  0  0  0  0  0  0  0  0
   -0.5539   -2.2265   -0.5506 H   0  0  0  0  0  0  0  0  0  0  0  0
   -4.2679    2.7597    0.7437 H   0  0  0  0  0  0  0  0  0  0  0  0
   -4.8636    1.1667    0.2413 H   0  0  0  0  0  0  0  0  0  0  0  0
    0.8438    3.6037    0.1384 H   0  0  0  0  0  0  0  0  0  0  0  0
    0.7752    2.9959   -1.5357 H   0  0  0  0  0  0  0  0  0  0  0  0
    1.0152   -0.2705   -2.2978 H   0  0  0  0  0  0  0  0  0  0  0  0
    3.3277   -1.1209   -2.5893 H   0  0  0  0  0  0  0  0  0  0  0  0
    4.0005   -0.4476    1.6052 H   0  0  0  0  0  0  0  0  0  0  0  0
    1.6899    0.3867    1.8251 H   0  0  0  0  0  0  0  0  0  0  0  0
  1  2  1  0
  2  3  1  0
  3  4  2  0
  4  5  1  0
  5  6  1  0
  5  7  2  0
  7  8  1  0
  8  9  1  0
  8 10  2  0
 10 11  1  0
 11 12  2  0
 12 13  1  0
 13 14  2  0
 14 15  1  0
 14 16  1  0
 16 17  2  0
 10  3  1  0
 17 11  1  0
  1 18  1  0
  1 19  1  0
  1 20  1  0
  2 21  1  0
  2 22  1  0
  6 23  1  0
  6 24  1  0
  9 25  1  0
  9 26  1  0
 12 27  1  0
 13 28  1  0
 16 29  1  0
 17 30  1  0
M  END
$$$$
