@<TRIPOS>MOLECULE
*****
 32 33 0 0 0
SMALL
GASTEIGER

@<TRIPOS>ATOM
      1 C           5.6674   -0.1358    0.4506 C.3     1  UNL1       -0.0013
      2 C           4.7319    0.9247    0.8099 C.2     1  UNL1        0.1636
      3 O           5.1631    2.0039    1.2829 O.2     1  UNL1       -0.2922
      4 C           3.2824    0.8201    0.6548 C.ar    1  UNL1        0.0587
      5 C           2.4093    1.8276    0.9974 C.ar    1  UNL1       -0.0443
      6 C           1.0380    1.6647    0.8246 C.ar    1  UNL1       -0.0190
      7 C           0.5046    0.5011    0.3092 C.ar    1  UNL1        0.1245
      8 O          -0.8706    0.3752    0.1512 O.3     1  UNL1       -0.4873
      9 C          -1.4992   -0.7589   -0.3596 C.3     1  UNL1        0.1146
     10 C          -2.9660   -0.5245   -0.3780 C.ar    1  UNL1       -0.0103
     11 C          -3.5482    0.0396   -1.5085 C.ar    1  UNL1       -0.0540
     12 C          -4.9006    0.2821   -1.5884 C.ar    1  UNL1       -0.0430
     13 C          -5.7389   -0.0284   -0.5391 C.ar    1  UNL1        0.0410
     14 CL         -7.4621    0.2752   -0.6277 Cl      1  UNL1       -0.0835
     15 C          -5.1555   -0.5879    0.5799 C.ar    1  UNL1       -0.0430
     16 C          -3.8004   -0.8366    0.6735 C.ar    1  UNL1       -0.0540
     17 C           1.3844   -0.5028   -0.0314 C.ar    1  UNL1        0.0223
     18 C           2.7491   -0.3417    0.1401 C.ar    1  UNL1        0.1308
     19 O           3.5961   -1.3967   -0.2239 O.3     1  UNL1       -0.5059
     20 H           5.6623   -0.3851   -0.6354 H       1  UNL1        0.0309
     21 H           6.6998    0.1886    0.6802 H       1  UNL1        0.0309
     22 H           5.5070   -1.0580    1.0779 H       1  UNL1        0.0309
     23 H           2.8270    2.7453    1.4037 H       1  UNL1        0.0627
     24 H           0.3918    2.4877    1.1097 H       1  UNL1        0.0654
     25 H          -1.1183   -1.0686   -1.3601 H       1  UNL1        0.0748
     26 H          -1.3377   -1.6423    0.3187 H       1  UNL1        0.0748
     27 H          -2.8813    0.2839   -2.3366 H       1  UNL1        0.0622
     28 H          -5.3502    0.7202   -2.4671 H       1  UNL1        0.0632
     29 H          -5.8151   -0.8359    1.4143 H       1  UNL1        0.0632
     30 H          -3.3666   -1.2776    1.5652 H       1  UNL1        0.0622
     31 H           0.9684   -1.4230   -0.4386 H       1  UNL1        0.0691
     32 H           3.2280   -2.3361   -0.1617 H       1  UNL1        0.2922
@<TRIPOS>BOND
     1     1     2    1
     2     2     3    2
     3     2     4    1
     4     4     5   ar
     5     5     6   ar
     6     6     7   ar
     7     7     8    1
     8     8     9    1
     9     9    10    1
    10    10    11   ar
    11    11    12   ar
    12    12    13   ar
    13    13    14    1
    14    13    15   ar
    15    15    16   ar
    16     7    17   ar
    17    17    18   ar
    18    18    19    1
    19    18     4   ar
    20    16    10   ar
    21     1    20    1
    22     1    21    1
    23     1    22    1
    24     5    23    1
    25     6    24    1
    26     9    25    1
    27     9    26    1
    28    11    27    1
    29    12    28    1
    30    15    29    1
    31    16    30    1
    32    17    31    1
    33    19    32    1
