
     RDKit          3D

 32 33  0  0  0  0  0  0  0  0999 V2000
    5.6674   -0.1358    0.4506 C   0  0  0  0  0  0  0  0  0  0  0  0
    4.7319    0.9247    0.8099 C   0  0  0  0  0  0  0  0  0  0  0  0
    5.1631    2.0039    1.2829 O   0  0  0  0  0  0  0  0  0  0  0  0
    3.2824    0.8201    0.6548 C   0  0  0  0  0  0  0  0  0  0  0  0
    2.4093    1.8276    0.9974 C   0  0  0  0  0  0  0  0  0  0  0  0
    1.0380    1.6647    0.8246 C   0  0  0  0  0  0  0  0  0  0  0  0
    0.5046    0.5011    0.3092 C   0  0  0  0  0  0  0  0  0  0  0  0
   -0.8706    0.3752    0.1512 O   0  0  0  0  0  0  0  0  0  0  0  0
   -1.4992   -0.7589   -0.3596 C   0  0  0  0  0  0  0  0  0  0  0  0
   -2.9660   -0.5245   -0.3780 C   0  0  0  0  0  0  0  0  0  0  0  0
   -3.5482    0.0396   -1.5085 C   0  0  0  0  0  0  0  0  0  0  0  0
   -4.9006    0.2821   -1.5884 C   0  0  0  0  0  0  0  0  0  0  0  0
   -5.7389   -0.0284   -0.5391 C   0  0  0  0  0  0  0  0  0  0  0  0
   -7.4621    0.2752   -0.6277 Cl  0  0  0  0  0  0  0  0  0  0  0  0
   -5.1555   -0.5879    0.5799 C   0  0  0  0  0  0  0  0  0  0  0  0
   -3.8004   -0.8366    0.6735 C   0  0  0  0  0  0  0  0  0  0  0  0
    1.3844   -0.5028   -0.0314 C   0  0  0  0  0  0  0  0  0  0  0  0
    2.7491   -0.3417    0.1401 C   0  0  0  0  0  0  0  0  0  0  0  0
    3.5961   -1.3967   -0.2239 O   0  0  0  0  0  0  0  0  0  0  0  0
    5.6623   -0.3851   -0.6354 H   0  0  0  0  0  0  0  0  0  0  0  0
    6.6998    0.1886    0.6802 H   0  0  0  0  0  0  0  0  0  0  0  0
    5.5070   -1.0580    1.0779 H   0  0  0  0  0  0  0  0  0  0  0  0
    2.8270    2.7453    1.4037 H   0  0  0  0  0  0  0  0  0  0  0  0
    0.3918    2.4877    1.1097 H   0  0  0  0  0  0  0  0  0  0  0  0
   -1.1183   -1.0686   -1.3601 H   0  0  0  0  0  0  0  0  0  0  0  0
   -1.3377   -1.6423    0.3187 H   0  0  0  0  0  0  0  0  0  0  0  0
   -2.8813    0.2839   -2.3366 H   0  0  0  0  0  0  0  0  0  0  0  0
   -5.3502    0.7202   -2.4671 H   0  0  0  0  0  0  0  0  0  0  0  0
   -5.8151   -0.8359    1.4143 H   0  0  0  0  0  0  0  0  0  0  0  0
   -3.3666   -1.2776    1.5652 H   0  0  0  0  0  0  0  0  0  0  0  0
    0.9684   -1.4230   -0.4386 H   0  0  0  0  0  0  0  0  0  0  0  0
    3.2280   -2.3361   -0.1617 H   0  0  0  0  0  0  0  0  0  0  0  0
  1  2  1  0
  2  3  2  0
  2  4  1  0
  4  5  2  0
  5  6  1  0
  6  7  2  0
  7  8  1  0
  8  9  1  0
  9 10  1  0
 10 11  2  0
 11 12  1  0
 12 13  2  0
 13 14  1  0
 13 15  1  0
 15 16  2  0
  7 17  1  0
 17 18  2  0
 18 19  1  0
 18  4  1  0
 16 10  1  0
  1 20  1  0
  1 21  1  0
  1 22  1  0
  5 23  1  0
  6 24  1  0
  9 25  1  0
  9 26  1  0
 11 27  1  0
 12 28  1  0
 15 29  1  0
 16 30  1  0
 17 31  1  0
 19 32  1  0
M  END
$$$$
