@<TRIPOS>MOLECULE
*****
 55 58 0 0 0
SMALL
GASTEIGER

@<TRIPOS>ATOM
      1 C          -6.1932   -1.7149   -2.4419 C.3     1  UNL1        0.0120
      2 S          -6.5780   -0.1468   -1.7073 S.O     1  UNL1        0.0234
      3 O          -7.9155    0.4107   -2.0942 O.2     1  UNL1       -0.2571
      4 C          -6.2400   -0.0507    0.0314 C.3     1  UNL1        0.0487
      5 C          -4.8422   -0.2808    0.3985 C.ar    1  UNL1       -0.0274
      6 C          -4.4242   -1.4396    1.0106 C.ar    1  UNL1       -0.0564
      7 C          -3.1159   -1.6431    1.3689 C.ar    1  UNL1       -0.0487
      8 C          -2.1352   -0.6622    1.1214 C.ar    1  UNL1        0.0448
      9 C          -0.8047   -1.0161    1.5529 C.2     1  UNL1        0.2500
     10 O          -0.3078   -2.1596    1.2189 O.2     1  UNL1       -0.2698
     11 N           0.0110   -0.1874    2.3459 N.am    1  UNL1       -0.2645
     12 C           1.2914   -0.5190    2.8408 C.ar    1  UNL1        0.1559
     13 N           1.3637   -0.8707    4.1720 N.ar    1  UNL1       -0.2363
     14 C           2.4941   -1.2194    4.7768 C.ar    1  UNL1        0.0478
     15 C           3.6597   -1.2250    4.0077 C.ar    1  UNL1        0.0467
     16 N           3.6244   -0.8901    2.7150 N.ar    1  UNL1       -0.2455
     17 C           2.4243   -0.5340    2.1261 C.ar    1  UNL1        0.1653
     18 C           2.4430   -0.2327    0.7079 C.2     1  UNL1        0.2658
     19 O           1.4745    0.0464   -0.0165 O.2     1  UNL1       -0.2684
     20 N           3.7112   -0.2456    0.0079 N.am    1  UNL1       -0.3097
     21 C           3.7966    0.0475   -1.4146 C.3     1  UNL1        0.0148
     22 C           5.2328   -0.0693   -1.8190 C.3     1  UNL1       -0.0254
     23 C           5.5401    0.2059   -3.2828 C.3     1  UNL1       -0.0488
     24 C           6.7952    0.9478   -2.8160 C.3     1  UNL1       -0.0525
     25 C           6.1346    1.0832   -1.4384 C.3     1  UNL1       -0.0488
     26 C          -2.5799    0.4818    0.5102 C.ar    1  UNL1       -0.0055
     27 C          -1.6498    1.4615    0.2477 C.ar    1  UNL1       -0.0533
     28 C          -2.0452    2.6383   -0.3736 C.ar    1  UNL1       -0.0611
     29 C          -3.3616    2.8133   -0.7201 C.ar    1  UNL1       -0.0612
     30 C          -4.3023    1.8407   -0.4631 C.ar    1  UNL1       -0.0537
     31 C          -3.8867    0.6867    0.1519 C.ar    1  UNL1       -0.0131
     32 H          -6.9931   -1.9388   -3.2018 H       1  UNL1        0.0365
     33 H          -5.2523   -1.7521   -3.0086 H       1  UNL1        0.0365
     34 H          -6.2156   -2.5041   -1.6749 H       1  UNL1        0.0365
     35 H          -6.6201    0.8910    0.4789 H       1  UNL1        0.0450
     36 H          -6.8573   -0.8631    0.5207 H       1  UNL1        0.0450
     37 H          -5.1442   -2.2352    1.2267 H       1  UNL1        0.0621
     38 H          -2.7900   -2.5556    1.8504 H       1  UNL1        0.0625
     39 H          -0.3275    0.7747    2.6560 H       1  UNL1        0.1566
     40 H           2.5626   -1.4944    5.8157 H       1  UNL1        0.0846
     41 H           4.5823   -1.5128    4.5187 H       1  UNL1        0.0845
     42 H           4.5570   -0.4729    0.5638 H       1  UNL1        0.1491
     43 H           3.1538   -0.6714   -1.9615 H       1  UNL1        0.0465
     44 H           3.4239    1.0812   -1.5774 H       1  UNL1        0.0465
     45 H           5.6349   -1.0487   -1.4481 H       1  UNL1        0.0316
     46 H           4.7615    0.8468   -3.7012 H       1  UNL1        0.0268
     47 H           5.7275   -0.7149   -3.8495 H       1  UNL1        0.0268
     48 H           6.9601    1.9326   -3.2816 H       1  UNL1        0.0265
     49 H           7.6677    0.2630   -2.7635 H       1  UNL1        0.0265
     50 H           6.8154    0.7953   -0.6129 H       1  UNL1        0.0268
     51 H           5.6458    2.0553   -1.2866 H       1  UNL1        0.0268
     52 H          -0.6322    1.3036    0.5271 H       1  UNL1        0.0624
     53 H          -1.2928    3.4020   -0.5720 H       1  UNL1        0.0618
     54 H          -3.6349    3.7445   -1.2032 H       1  UNL1        0.0618
     55 H          -5.3471    1.9856   -0.7403 H       1  UNL1        0.0624
@<TRIPOS>BOND
     1     1     2    1
     2     2     3    2
     3     2     4    1
     4     4     5    1
     5     5     6   ar
     6     6     7   ar
     7     7     8   ar
     8     8     9    1
     9     9    10    2
    10     9    11   am
    11    11    12    1
    12    12    13   ar
    13    13    14   ar
    14    14    15   ar
    15    15    16   ar
    16    16    17   ar
    17    17    18    1
    18    18    19    2
    19    18    20   am
    20    20    21    1
    21    21    22    1
    22    22    23    1
    23    23    24    1
    24    24    25    1
    25     8    26   ar
    26    26    27   ar
    27    27    28   ar
    28    28    29   ar
    29    29    30   ar
    30    30    31   ar
    31    31     5   ar
    32    17    12   ar
    33    25    22    1
    34    31    26   ar
    35     1    32    1
    36     1    33    1
    37     1    34    1
    38     4    35    1
    39     4    36    1
    40     6    37    1
    41     7    38    1
    42    11    39    1
    43    14    40    1
    44    15    41    1
    45    20    42    1
    46    21    43    1
    47    21    44    1
    48    22    45    1
    49    23    46    1
    50    23    47    1
    51    24    48    1
    52    24    49    1
    53    25    50    1
    54    25    51    1
    55    27    52    1
    56    28    53    1
    57    29    54    1
    58    30    55    1
