@<TRIPOS>MOLECULE
*****
 44 46 0 0 0
SMALL
GASTEIGER

@<TRIPOS>ATOM
      1 C          -2.9617   -3.8172   -0.8374 C.3     1  UNL1        0.0790
      2 O          -2.8566   -2.4560   -0.5019 O.3     1  UNL1       -0.4915
      3 C          -1.6090   -1.8819   -0.3263 C.ar    1  UNL1        0.1616
      4 C          -0.4758   -2.6111   -0.4724 C.ar    1  UNL1       -0.0156
      5 C           0.7527   -2.0034   -0.2891 C.ar    1  UNL1       -0.0459
      6 C           0.8722   -0.6902    0.0350 C.ar    1  UNL1        0.0407
      7 C           2.1528   -0.0164    0.2358 C.2     1  UNL1        0.2485
      8 O           2.1940    1.2089    0.5364 O.2     1  UNL1       -0.2698
      9 N           3.4102   -0.6574    0.1147 N.am    1  UNL1       -0.2769
     10 C           4.6589   -0.0060    0.3091 C.ar    1  UNL1        0.1049
     11 C           5.2817    0.0577    1.5485 C.ar    1  UNL1        0.1473
     12 F           4.6390   -0.5383    2.5887 F       1  UNL1       -0.2034
     13 C           6.4903    0.6957    1.7040 C.ar    1  UNL1       -0.0244
     14 C           7.1313    1.2933    0.6524 C.ar    1  UNL1       -0.0562
     15 C           6.5226    1.2389   -0.5933 C.ar    1  UNL1       -0.0244
     16 C           5.3138    0.6012   -0.7504 C.ar    1  UNL1        0.1473
     17 F           4.6928    0.5337   -1.9688 F       1  UNL1       -0.2034
     18 C          -0.2858    0.0549    0.1842 C.ar    1  UNL1       -0.0042
     19 C          -1.5214   -0.5212    0.0085 C.ar    1  UNL1        0.1630
     20 O          -2.6778    0.1937    0.1504 O.3     1  UNL1       -0.4851
     21 C          -2.8420    1.5414    0.4750 C.3     1  UNL1        0.1004
     22 C          -3.7833    2.2489   -0.4869 C.3     1  UNL1       -0.0158
     23 C          -5.1783    1.9121   -0.0616 C.3     1  UNL1       -0.0496
     24 C          -5.0274    1.0347    1.1609 C.3     1  UNL1       -0.0496
     25 C          -3.7200    1.5544    1.7409 C.3     1  UNL1       -0.0158
     26 H          -2.5960   -3.9024   -1.9016 H       1  UNL1        0.0660
     27 H          -2.3539   -4.4721   -0.1771 H       1  UNL1        0.0660
     28 H          -4.0061   -4.1677   -0.8002 H       1  UNL1        0.0660
     29 H          -0.4919   -3.6819   -0.7344 H       1  UNL1        0.0655
     30 H           1.6485   -2.5982   -0.4090 H       1  UNL1        0.0626
     31 H           3.4317   -1.6681   -0.1316 H       1  UNL1        0.1553
     32 H           6.9359    0.7169    2.6974 H       1  UNL1        0.0647
     33 H           8.0834    1.7986    0.7630 H       1  UNL1        0.0619
     34 H           6.9915    1.6985   -1.4603 H       1  UNL1        0.0647
     35 H          -0.2231    1.1191    0.4459 H       1  UNL1        0.0663
     36 H          -1.9232    2.1034    0.6383 H       1  UNL1        0.0733
     37 H          -3.6247    3.3395   -0.4242 H       1  UNL1        0.0301
     38 H          -3.6008    1.9370   -1.5452 H       1  UNL1        0.0301
     39 H          -5.7435    2.8221    0.2637 H       1  UNL1        0.0266
     40 H          -5.7648    1.4240   -0.8674 H       1  UNL1        0.0266
     41 H          -5.8712    1.1370    1.8643 H       1  UNL1        0.0266
     42 H          -4.8396   -0.0313    0.8670 H       1  UNL1        0.0266
     43 H          -3.3231    0.8750    2.4955 H       1  UNL1        0.0301
     44 H          -3.9025    2.5801    2.0811 H       1  UNL1        0.0301
@<TRIPOS>BOND
     1     1     2    1
     2     2     3    1
     3     3     4   ar
     4     4     5   ar
     5     5     6   ar
     6     6     7    1
     7     7     8    2
     8     7     9   am
     9     9    10    1
    10    10    11   ar
    11    11    12    1
    12    11    13   ar
    13    13    14   ar
    14    14    15   ar
    15    15    16   ar
    16    16    17    1
    17     6    18   ar
    18    18    19   ar
    19    19    20    1
    20    20    21    1
    21    21    22    1
    22    22    23    1
    23    23    24    1
    24    24    25    1
    25    19     3   ar
    26    25    21    1
    27    16    10   ar
    28     1    26    1
    29     1    27    1
    30     1    28    1
    31     4    29    1
    32     5    30    1
    33     9    31    1
    34    13    32    1
    35    14    33    1
    36    15    34    1
    37    18    35    1
    38    21    36    1
    39    22    37    1
    40    22    38    1
    41    23    39    1
    42    23    40    1
    43    24    41    1
    44    24    42    1
    45    25    43    1
    46    25    44    1
