@<TRIPOS>MOLECULE
*****
 36 36 0 0 0
SMALL
GASTEIGER

@<TRIPOS>ATOM
      1 N          -5.1839   -1.0204   -0.2743 N.pl3   1  UNL1       -0.3382
      2 C          -4.6068   -2.3397   -0.1916 C.2     1  UNL1        0.1439
      3 N          -5.5181   -3.0860   -0.7094 N.2     1  UNL1       -0.2801
      4 S          -3.2239   -1.4978    0.5544 S.3     1  UNL1       -0.0910
      5 C          -3.5587    0.3023    0.6628 C.3     1  UNL1        0.0048
      6 C          -2.4340    1.0355    1.2825 C.3     1  UNL1       -0.0182
      7 C          -1.1461    0.9325    0.5801 C.ar    1  UNL1       -0.0466
      8 C          -0.8387    1.8640   -0.3765 C.ar    1  UNL1       -0.0583
      9 C           0.3681    1.7398   -1.0128 C.ar    1  UNL1       -0.0583
     10 C           1.3149    0.7612   -0.7853 C.ar    1  UNL1       -0.0466
     11 C           2.5700    0.8034   -1.5814 C.3     1  UNL1       -0.0182
     12 C           3.5789    1.6472   -0.7961 C.3     1  UNL1        0.0048
     13 S           3.8608    0.8471    0.8174 S.3     1  UNL1       -0.0910
     14 C           4.6970   -0.6955    0.4639 C.2     1  UNL1        0.1439
     15 N           5.0625   -1.6545    1.4692 N.pl3   1  UNL1       -0.3382
     16 N           5.1796   -1.3900   -0.5214 N.2     1  UNL1       -0.2801
     17 C           1.0040   -0.1795    0.1807 C.ar    1  UNL1       -0.0583
     18 C          -0.2180   -0.0812    0.8479 C.ar    1  UNL1       -0.0583
     19 H          -5.7608   -0.1476   -0.1136 H       1  UNL1        0.1442
     20 H          -5.7437   -0.1528   -0.1299 H       1  UNL1        0.1442
     21 H          -5.3884   -4.1070   -0.7903 H       1  UNL1        0.1886
     22 H          -4.4355    0.4040    1.3341 H       1  UNL1        0.0384
     23 H          -3.8728    0.6571   -0.3220 H       1  UNL1        0.0384
     24 H          -2.6864    2.1076    1.3655 H       1  UNL1        0.0321
     25 H          -2.2733    0.6547    2.3120 H       1  UNL1        0.0321
     26 H          -1.5415    2.6425   -0.5894 H       1  UNL1        0.0620
     27 H           0.5808    2.5032   -1.7724 H       1  UNL1        0.0620
     28 H           2.9455   -0.2079   -1.8019 H       1  UNL1        0.0321
     29 H           2.3906    1.3361   -2.5257 H       1  UNL1        0.0321
     30 H           4.5086    1.6475   -1.3799 H       1  UNL1        0.0384
     31 H           3.1468    2.6504   -0.7089 H       1  UNL1        0.0384
     32 H           5.9899   -1.9552    1.8741 H       1  UNL1        0.1442
     33 H           4.8207   -2.3774    2.1693 H       1  UNL1        0.1442
     34 H           5.1545   -1.0927   -1.5107 H       1  UNL1        0.1886
     35 H           1.7226   -0.9407    0.3680 H       1  UNL1        0.0620
     36 H          -0.4651   -0.8233    1.6116 H       1  UNL1        0.0620
@<TRIPOS>BOND
     1     1     2    1
     2     2     3    2
     3     2     4    1
     4     4     5    1
     5     5     6    1
     6     6     7    1
     7     7     8   ar
     8     8     9   ar
     9     9    10   ar
    10    10    11    1
    11    11    12    1
    12    12    13    1
    13    13    14    1
    14    14    15    1
    15    14    16    2
    16    10    17   ar
    17    17    18   ar
    18    18     7   ar
    19     1    19    1
    20     1    20    1
    21     3    21    1
    22     5    22    1
    23     5    23    1
    24     6    24    1
    25     6    25    1
    26     8    26    1
    27     9    27    1
    28    11    28    1
    29    11    29    1
    30    12    30    1
    31    12    31    1
    32    15    32    1
    33    15    33    1
    34    16    34    1
    35    17    35    1
    36    18    36    1
