@<TRIPOS>MOLECULE
*****
 59 62 0 0 0
SMALL
GASTEIGER

@<TRIPOS>ATOM
      1 O           7.9308    0.1956   -0.8547 O.2     1  UNL1       -0.2510
      2 C           7.0190   -0.4376   -1.4987 C.2     1  UNL1        0.3062
      3 O           6.1521    0.2809   -2.3349 O.3     1  UNL1       -0.4806
      4 C           6.9620   -1.8767   -1.3071 C.3     1  UNL1        0.0603
      5 C           6.4334   -2.3591   -0.0096 C.3     1  UNL1        0.0220
      6 N           5.1070   -2.0720    0.3685 N.am    1  UNL1       -0.3108
      7 C           4.5703   -0.8094    0.6190 C.2     1  UNL1        0.2441
      8 O           5.2870    0.2109    0.5276 O.2     1  UNL1       -0.2702
      9 C           3.1561   -0.6132    0.9976 C.ar    1  UNL1        0.0367
     10 C           2.6881    0.6892    1.1840 C.ar    1  UNL1       -0.0493
     11 C           1.3938    0.9147    1.5391 C.ar    1  UNL1       -0.0561
     12 C           0.4835   -0.1455    1.7311 C.ar    1  UNL1       -0.0261
     13 C          -0.8613    0.2671    2.1464 C.3     1  UNL1        0.0672
     14 N          -1.5938    0.9037    1.0880 N.ar    1  UNL1       -0.2588
     15 N          -1.4197    2.2301    0.8608 N.ar    1  UNL1       -0.1704
     16 C          -2.1756    2.6431   -0.1617 C.ar    1  UNL1        0.0934
     17 C          -2.2689    3.9943   -0.7173 C.ar    1  UNL1        0.0049
     18 C          -3.0954    4.2877   -1.7801 C.ar    1  UNL1       -0.0341
     19 C          -3.1742    5.5777   -2.3047 C.ar    1  UNL1        0.0430
     20 CL         -4.2228    5.9507   -3.6546 Cl      1  UNL1       -0.0835
     21 C          -2.4197    6.6003   -1.7673 C.ar    1  UNL1       -0.0250
     22 C          -1.5971    6.2964   -0.7051 C.ar    1  UNL1        0.0430
     23 CL         -0.6274    7.5698   -0.0013 Cl      1  UNL1       -0.0835
     24 C          -1.5165    5.0195   -0.1828 C.ar    1  UNL1       -0.0341
     25 C          -2.8466    1.5176   -0.5834 C.ar    1  UNL1       -0.0084
     26 C          -2.4723    0.4284    0.2108 C.ar    1  UNL1        0.0699
     27 C          -3.0485   -0.9089    0.0463 C.ar    1  UNL1        0.0003
     28 C          -4.4488   -1.0396    0.0172 C.ar    1  UNL1       -0.0491
     29 C          -5.0525   -2.2538   -0.1566 C.ar    1  UNL1       -0.0190
     30 C          -4.3163   -3.4099   -0.3116 C.ar    1  UNL1        0.1300
     31 O          -4.9238   -4.6536   -0.4889 O.3     1  UNL1       -0.4057
     32 C          -5.2544   -5.4766    0.6172 C.3     1  UNL1        0.5752
     33 F          -4.1557   -5.8209    1.3696 F       1  UNL1       -0.1328
     34 F          -6.1484   -4.8232    1.4634 F       1  UNL1       -0.1328
     35 F          -5.8649   -6.6255    0.1910 F       1  UNL1       -0.1328
     36 C          -2.9473   -3.2691   -0.2819 C.ar    1  UNL1       -0.0190
     37 C          -2.3269   -2.0497   -0.1078 C.ar    1  UNL1       -0.0491
     38 C           0.9414   -1.4152    1.5492 C.ar    1  UNL1       -0.0561
     39 C           2.2656   -1.6354    1.1861 C.ar    1  UNL1       -0.0493
     40 H           6.0247    1.2589   -2.0622 H       1  UNL1        0.2951
     41 H           6.3903   -2.3384   -2.1825 H       1  UNL1        0.0393
     42 H           8.0282   -2.2861   -1.3743 H       1  UNL1        0.0393
     43 H           6.5988   -3.4880    0.0679 H       1  UNL1        0.0467
     44 H           7.1650   -1.9884    0.7863 H       1  UNL1        0.0467
     45 H           4.4249   -2.9007    0.4784 H       1  UNL1        0.1490
     46 H           3.3764    1.5246    1.0403 H       1  UNL1        0.0625
     47 H           1.0839    1.9547    1.6706 H       1  UNL1        0.0621
     48 H          -1.4367   -0.5543    2.6298 H       1  UNL1        0.0559
     49 H          -0.7202    1.0120    2.9837 H       1  UNL1        0.0559
     50 H          -3.7007    3.5069   -2.2242 H       1  UNL1        0.0639
     51 H          -2.4762    7.6218   -2.1762 H       1  UNL1        0.0647
     52 H          -0.8645    4.7894    0.6554 H       1  UNL1        0.0639
     53 H          -3.5513    1.5051   -1.4069 H       1  UNL1        0.0661
     54 H          -5.0369   -0.1330    0.1397 H       1  UNL1        0.0625
     55 H          -6.1512   -2.3512   -0.1790 H       1  UNL1        0.0654
     56 H          -2.3431   -4.1566   -0.4010 H       1  UNL1        0.0654
     57 H          -1.2442   -1.9554   -0.1049 H       1  UNL1        0.0625
     58 H           0.2518   -2.2283    1.7017 H       1  UNL1        0.0621
     59 H           2.5694   -2.6757    1.0559 H       1  UNL1        0.0625
@<TRIPOS>BOND
     1     1     2    2
     2     2     3    1
     3     2     4    1
     4     4     5    1
     5     5     6    1
     6     6     7   am
     7     7     8    2
     8     7     9    1
     9     9    10   ar
    10    10    11   ar
    11    11    12   ar
    12    12    13    1
    13    13    14    1
    14    14    15   ar
    15    15    16   ar
    16    16    17    1
    17    17    18   ar
    18    18    19   ar
    19    19    20    1
    20    19    21   ar
    21    21    22   ar
    22    22    23    1
    23    22    24   ar
    24    16    25   ar
    25    25    26   ar
    26    26    27    1
    27    27    28   ar
    28    28    29   ar
    29    29    30   ar
    30    30    31    1
    31    31    32    1
    32    32    33    1
    33    32    34    1
    34    32    35    1
    35    30    36   ar
    36    36    37   ar
    37    12    38   ar
    38    38    39   ar
    39    39     9   ar
    40    26    14   ar
    41    37    27   ar
    42    24    17   ar
    43     3    40    1
    44     4    41    1
    45     4    42    1
    46     5    43    1
    47     5    44    1
    48     6    45    1
    49    10    46    1
    50    11    47    1
    51    13    48    1
    52    13    49    1
    53    18    50    1
    54    21    51    1
    55    24    52    1
    56    25    53    1
    57    28    54    1
    58    29    55    1
    59    36    56    1
    60    37    57    1
    61    38    58    1
    62    39    59    1
