
     RDKit          3D

 59 62  0  0  0  0  0  0  0  0999 V2000
    7.9308    0.1956   -0.8547 O   0  0  0  0  0  0  0  0  0  0  0  0
    7.0190   -0.4376   -1.4987 C   0  0  0  0  0  0  0  0  0  0  0  0
    6.1521    0.2809   -2.3349 O   0  0  0  0  0  0  0  0  0  0  0  0
    6.9620   -1.8767   -1.3071 C   0  0  0  0  0  0  0  0  0  0  0  0
    6.4334   -2.3591   -0.0096 C   0  0  0  0  0  0  0  0  0  0  0  0
    5.1070   -2.0720    0.3685 N   0  0  0  0  0  0  0  0  0  0  0  0
    4.5703   -0.8094    0.6190 C   0  0  0  0  0  0  0  0  0  0  0  0
    5.2870    0.2109    0.5276 O   0  0  0  0  0  0  0  0  0  0  0  0
    3.1561   -0.6132    0.9976 C   0  0  0  0  0  0  0  0  0  0  0  0
    2.6881    0.6892    1.1840 C   0  0  0  0  0  0  0  0  0  0  0  0
    1.3938    0.9147    1.5391 C   0  0  0  0  0  0  0  0  0  0  0  0
    0.4835   -0.1455    1.7311 C   0  0  0  0  0  0  0  0  0  0  0  0
   -0.8613    0.2671    2.1464 C   0  0  0  0  0  0  0  0  0  0  0  0
   -1.5938    0.9037    1.0880 N   0  0  0  0  0  0  0  0  0  0  0  0
   -1.4197    2.2301    0.8608 N   0  0  0  0  0  0  0  0  0  0  0  0
   -2.1756    2.6431   -0.1617 C   0  0  0  0  0  0  0  0  0  0  0  0
   -2.2689    3.9943   -0.7173 C   0  0  0  0  0  0  0  0  0  0  0  0
   -3.0954    4.2877   -1.7801 C   0  0  0  0  0  0  0  0  0  0  0  0
   -3.1742    5.5777   -2.3047 C   0  0  0  0  0  0  0  0  0  0  0  0
   -4.2228    5.9507   -3.6546 Cl  0  0  0  0  0  0  0  0  0  0  0  0
   -2.4197    6.6003   -1.7673 C   0  0  0  0  0  0  0  0  0  0  0  0
   -1.5971    6.2964   -0.7051 C   0  0  0  0  0  0  0  0  0  0  0  0
   -0.6274    7.5698   -0.0013 Cl  0  0  0  0  0  0  0  0  0  0  0  0
   -1.5165    5.0195   -0.1828 C   0  0  0  0  0  0  0  0  0  0  0  0
   -2.8466    1.5176   -0.5834 C   0  0  0  0  0  0  0  0  0  0  0  0
   -2.4723    0.4284    0.2108 C   0  0  0  0  0  0  0  0  0  0  0  0
   -3.0485   -0.9089    0.0463 C   0  0  0  0  0  0  0  0  0  0  0  0
   -4.4488   -1.0396    0.0172 C   0  0  0  0  0  0  0  0  0  0  0  0
   -5.0525   -2.2538   -0.1566 C   0  0  0  0  0  0  0  0  0  0  0  0
   -4.3163   -3.4099   -0.3116 C   0  0  0  0  0  0  0  0  0  0  0  0
   -4.9238   -4.6536   -0.4889 O   0  0  0  0  0  0  0  0  0  0  0  0
   -5.2544   -5.4766    0.6172 C   0  0  0  0  0  0  0  0  0  0  0  0
   -4.1557   -5.8209    1.3696 F   0  0  0  0  0  0  0  0  0  0  0  0
   -6.1484   -4.8232    1.4634 F   0  0  0  0  0  0  0  0  0  0  0  0
   -5.8649   -6.6255    0.1910 F   0  0  0  0  0  0  0  0  0  0  0  0
   -2.9473   -3.2691   -0.2819 C   0  0  0  0  0  0  0  0  0  0  0  0
   -2.3269   -2.0497   -0.1078 C   0  0  0  0  0  0  0  0  0  0  0  0
    0.9414   -1.4152    1.5492 C   0  0  0  0  0  0  0  0  0  0  0  0
    2.2656   -1.6354    1.1861 C   0  0  0  0  0  0  0  0  0  0  0  0
    6.0247    1.2589   -2.0622 H   0  0  0  0  0  0  0  0  0  0  0  0
    6.3903   -2.3384   -2.1825 H   0  0  0  0  0  0  0  0  0  0  0  0
    8.0282   -2.2861   -1.3743 H   0  0  0  0  0  0  0  0  0  0  0  0
    6.5988   -3.4880    0.0679 H   0  0  0  0  0  0  0  0  0  0  0  0
    7.1650   -1.9884    0.7863 H   0  0  0  0  0  0  0  0  0  0  0  0
    4.4249   -2.9007    0.4784 H   0  0  0  0  0  0  0  0  0  0  0  0
    3.3764    1.5246    1.0403 H   0  0  0  0  0  0  0  0  0  0  0  0
    1.0839    1.9547    1.6706 H   0  0  0  0  0  0  0  0  0  0  0  0
   -1.4367   -0.5543    2.6298 H   0  0  0  0  0  0  0  0  0  0  0  0
   -0.7202    1.0120    2.9837 H   0  0  0  0  0  0  0  0  0  0  0  0
   -3.7007    3.5069   -2.2242 H   0  0  0  0  0  0  0  0  0  0  0  0
   -2.4762    7.6218   -2.1762 H   0  0  0  0  0  0  0  0  0  0  0  0
   -0.8645    4.7894    0.6554 H   0  0  0  0  0  0  0  0  0  0  0  0
   -3.5513    1.5051   -1.4069 H   0  0  0  0  0  0  0  0  0  0  0  0
   -5.0369   -0.1330    0.1397 H   0  0  0  0  0  0  0  0  0  0  0  0
   -6.1512   -2.3512   -0.1790 H   0  0  0  0  0  0  0  0  0  0  0  0
   -2.3431   -4.1566   -0.4010 H   0  0  0  0  0  0  0  0  0  0  0  0
   -1.2442   -1.9554   -0.1049 H   0  0  0  0  0  0  0  0  0  0  0  0
    0.2518   -2.2283    1.7017 H   0  0  0  0  0  0  0  0  0  0  0  0
    2.5694   -2.6757    1.0559 H   0  0  0  0  0  0  0  0  0  0  0  0
  1  2  2  0
  2  3  1  0
  2  4  1  0
  4  5  1  0
  5  6  1  0
  6  7  1  0
  7  8  2  0
  7  9  1  0
  9 10  2  0
 10 11  1  0
 11 12  2  0
 12 13  1  0
 13 14  1  0
 14 15  1  0
 15 16  2  0
 16 17  1  0
 17 18  2  0
 18 19  1  0
 19 20  1  0
 19 21  2  0
 21 22  1  0
 22 23  1  0
 22 24  2  0
 16 25  1  0
 25 26  2  0
 26 27  1  0
 27 28  2  0
 28 29  1  0
 29 30  2  0
 30 31  1  0
 31 32  1  0
 32 33  1  0
 32 34  1  0
 32 35  1  0
 30 36  1  0
 36 37  2  0
 12 38  1  0
 38 39  2  0
 39  9  1  0
 26 14  1  0
 37 27  1  0
 24 17  1  0
  3 40  1  0
  4 41  1  0
  4 42  1  0
  5 43  1  0
  5 44  1  0
  6 45  1  0
 10 46  1  0
 11 47  1  0
 13 48  1  0
 13 49  1  0
 18 50  1  0
 21 51  1  0
 24 52  1  0
 25 53  1  0
 28 54  1  0
 29 55  1  0
 36 56  1  0
 37 57  1  0
 38 58  1  0
 39 59  1  0
M  END
$$$$
