@<TRIPOS>MOLECULE
*****
 62 66 0 0 0
SMALL
GASTEIGER

@<TRIPOS>ATOM
      1 C          -4.0103   -5.1705    1.3497 C.3     1  UNL1       -0.0206
      2 C          -3.4745   -3.8135    0.9584 C.ar    1  UNL1        0.0611
      3 C          -2.1566   -3.4690    0.7748 C.ar    1  UNL1       -0.0084
      4 C          -2.1327   -2.1344    0.4259 C.ar    1  UNL1        0.1296
      5 C          -0.9331   -1.3607    0.1398 C.2     1  UNL1        0.2667
      6 O          -1.0471   -0.1578   -0.1709 O.2     1  UNL1       -0.2682
      7 N           0.3625   -1.9198    0.1999 N.am    1  UNL1       -0.2802
      8 C           1.5546   -1.1927   -0.0734 C.ar    1  UNL1        0.0338
      9 C           2.1144   -1.1034   -1.3274 C.ar    1  UNL1       -0.0399
     10 C           3.2669   -0.3872   -1.5268 C.ar    1  UNL1       -0.0522
     11 C           3.9327    0.2831   -0.4943 C.ar    1  UNL1       -0.0159
     12 C           5.1276    1.0496   -0.7898 C.ar    1  UNL1        0.0084
     13 C           4.9281    2.1816   -1.5798 C.ar    1  UNL1       -0.0522
     14 C           5.9728    3.0141   -1.9106 C.ar    1  UNL1       -0.0611
     15 C           7.2388    2.7132   -1.4461 C.ar    1  UNL1       -0.0599
     16 C           7.4560    1.6020   -0.6669 C.ar    1  UNL1       -0.0348
     17 C           6.3846    0.7749   -0.3458 C.ar    1  UNL1        0.1127
     18 S           6.7206   -0.6266    0.6023 S.O2    1  UNL1        0.0565
     19 N           8.4322   -0.7466    0.9534 N.3     1  UNL1       -0.2035
     20 O           6.3369   -1.8775   -0.1470 O.2     1  UNL1       -0.1532
     21 O           6.0324   -0.6326    1.9301 O.2     1  UNL1       -0.1532
     22 C           3.3445    0.1726    0.7419 C.ar    1  UNL1       -0.0522
     23 C           2.1774   -0.5486    0.9654 C.ar    1  UNL1       -0.0399
     24 N          -3.4126   -1.6839    0.4000 N.ar    1  UNL1       -0.2271
     25 C          -3.8472   -0.3509    0.0847 C.ar    1  UNL1        0.0712
     26 C          -4.1043    0.0570   -1.2079 C.ar    1  UNL1       -0.0282
     27 C          -4.5208    1.3222   -1.5401 C.ar    1  UNL1       -0.0159
     28 C          -4.7736    1.7102   -2.8479 C.ar    1  UNL1       -0.0540
     29 C          -5.1918    2.9797   -3.1829 C.ar    1  UNL1       -0.0612
     30 C          -5.3617    3.8911   -2.1652 C.ar    1  UNL1       -0.0612
     31 C          -5.1135    3.5176   -0.8604 C.ar    1  UNL1       -0.0540
     32 C          -4.6924    2.2397   -0.5213 C.ar    1  UNL1       -0.0175
     33 C          -4.4473    1.8774    0.7879 C.ar    1  UNL1       -0.0476
     34 C          -4.0262    0.5846    1.0840 C.ar    1  UNL1       -0.0078
     35 C          -3.7645    0.2080    2.5113 C.3     1  UNL1        0.0206
     36 N          -4.8657   -0.6012    3.0006 N.3     1  UNL1       -0.3260
     37 N          -4.1870   -2.7028    0.7203 N.ar    1  UNL1       -0.1709
     38 H          -3.9589   -5.8515    0.4546 H       1  UNL1        0.0293
     39 H          -5.0834   -5.0648    1.5755 H       1  UNL1        0.0293
     40 H          -3.4225   -5.6318    2.1406 H       1  UNL1        0.0293
     41 H          -1.3123   -4.1452    0.8905 H       1  UNL1        0.0659
     42 H           0.4466   -2.9352    0.4631 H       1  UNL1        0.1552
     43 H           1.6328   -1.6111   -2.1766 H       1  UNL1        0.0636
     44 H           3.7152   -0.3142   -2.5233 H       1  UNL1        0.0624
     45 H           3.9513    2.4387   -1.9548 H       1  UNL1        0.0624
     46 H           5.7869    3.8943   -2.5314 H       1  UNL1        0.0618
     47 H           8.0577    3.3687   -1.7071 H       1  UNL1        0.0618
     48 H           8.4474    1.3720   -0.3067 H       1  UNL1        0.0637
     49 H           8.9375   -0.5729    0.0648 H       1  UNL1        0.1442
     50 H           8.6970   -0.0960    1.7058 H       1  UNL1        0.1442
     51 H           3.7900    0.6882    1.5941 H       1  UNL1        0.0624
     52 H           1.7878   -0.5763    1.9909 H       1  UNL1        0.0636
     53 H          -3.9681   -0.6639   -1.9954 H       1  UNL1        0.0645
     54 H          -4.6359    0.9851   -3.6322 H       1  UNL1        0.0624
     55 H          -5.3926    3.2977   -4.1920 H       1  UNL1        0.0618
     56 H          -5.6876    4.9056   -2.3524 H       1  UNL1        0.0618
     57 H          -5.2445    4.2338   -0.0366 H       1  UNL1        0.0624
     58 H          -4.5971    2.6319    1.5417 H       1  UNL1        0.0627
     59 H          -3.7550    1.1284    3.1319 H       1  UNL1        0.0472
     60 H          -2.8220   -0.3715    2.5815 H       1  UNL1        0.0472
     61 H          -4.8986   -0.5352    4.0521 H       1  UNL1        0.1185
     62 H          -5.7919   -0.2737    2.6121 H       1  UNL1        0.1185
@<TRIPOS>BOND
     1     1     2    1
     2     2     3   ar
     3     3     4   ar
     4     4     5    1
     5     5     6    2
     6     5     7   am
     7     7     8    1
     8     8     9   ar
     9     9    10   ar
    10    10    11   ar
    11    11    12    1
    12    12    13   ar
    13    13    14   ar
    14    14    15   ar
    15    15    16   ar
    16    16    17   ar
    17    17    18    1
    18    18    19    1
    19    18    20    2
    20    18    21    2
    21    11    22   ar
    22    22    23   ar
    23     4    24   ar
    24    24    25    1
    25    25    26   ar
    26    26    27   ar
    27    27    28   ar
    28    28    29   ar
    29    29    30   ar
    30    30    31   ar
    31    31    32   ar
    32    32    33   ar
    33    33    34   ar
    34    34    35    1
    35    35    36    1
    36    24    37   ar
    37    37     2   ar
    38    23     8   ar
    39    34    25   ar
    40    17    12   ar
    41    32    27   ar
    42     1    38    1
    43     1    39    1
    44     1    40    1
    45     3    41    1
    46     7    42    1
    47     9    43    1
    48    10    44    1
    49    13    45    1
    50    14    46    1
    51    15    47    1
    52    16    48    1
    53    19    49    1
    54    19    50    1
    55    22    51    1
    56    23    52    1
    57    26    53    1
    58    28    54    1
    59    29    55    1
    60    30    56    1
    61    31    57    1
    62    33    58    1
    63    35    59    1
    64    35    60    1
    65    36    61    1
    66    36    62    1
