
     RDKit          3D

 62 66  0  0  0  0  0  0  0  0999 V2000
   -4.0103   -5.1705    1.3497 C   0  0  0  0  0  0  0  0  0  0  0  0
   -3.4745   -3.8135    0.9584 C   0  0  0  0  0  0  0  0  0  0  0  0
   -2.1566   -3.4690    0.7748 C   0  0  0  0  0  0  0  0  0  0  0  0
   -2.1327   -2.1344    0.4259 C   0  0  0  0  0  0  0  0  0  0  0  0
   -0.9331   -1.3607    0.1398 C   0  0  0  0  0  0  0  0  0  0  0  0
   -1.0471   -0.1578   -0.1709 O   0  0  0  0  0  0  0  0  0  0  0  0
    0.3625   -1.9198    0.1999 N   0  0  0  0  0  0  0  0  0  0  0  0
    1.5546   -1.1927   -0.0734 C   0  0  0  0  0  0  0  0  0  0  0  0
    2.1144   -1.1034   -1.3274 C   0  0  0  0  0  0  0  0  0  0  0  0
    3.2669   -0.3872   -1.5268 C   0  0  0  0  0  0  0  0  0  0  0  0
    3.9327    0.2831   -0.4943 C   0  0  0  0  0  0  0  0  0  0  0  0
    5.1276    1.0496   -0.7898 C   0  0  0  0  0  0  0  0  0  0  0  0
    4.9281    2.1816   -1.5798 C   0  0  0  0  0  0  0  0  0  0  0  0
    5.9728    3.0141   -1.9106 C   0  0  0  0  0  0  0  0  0  0  0  0
    7.2388    2.7132   -1.4461 C   0  0  0  0  0  0  0  0  0  0  0  0
    7.4560    1.6020   -0.6669 C   0  0  0  0  0  0  0  0  0  0  0  0
    6.3846    0.7749   -0.3458 C   0  0  0  0  0  0  0  0  0  0  0  0
    6.7206   -0.6266    0.6023 S   0  0  0  0  0  6  0  0  0  0  0  0
    8.4322   -0.7466    0.9534 N   0  0  0  0  0  0  0  0  0  0  0  0
    6.3369   -1.8775   -0.1470 O   0  0  0  0  0  0  0  0  0  0  0  0
    6.0324   -0.6326    1.9301 O   0  0  0  0  0  0  0  0  0  0  0  0
    3.3445    0.1726    0.7419 C   0  0  0  0  0  0  0  0  0  0  0  0
    2.1774   -0.5486    0.9654 C   0  0  0  0  0  0  0  0  0  0  0  0
   -3.4126   -1.6839    0.4000 N   0  0  0  0  0  0  0  0  0  0  0  0
   -3.8472   -0.3509    0.0847 C   0  0  0  0  0  0  0  0  0  0  0  0
   -4.1043    0.0570   -1.2079 C   0  0  0  0  0  0  0  0  0  0  0  0
   -4.5208    1.3222   -1.5401 C   0  0  0  0  0  0  0  0  0  0  0  0
   -4.7736    1.7102   -2.8479 C   0  0  0  0  0  0  0  0  0  0  0  0
   -5.1918    2.9797   -3.1829 C   0  0  0  0  0  0  0  0  0  0  0  0
   -5.3617    3.8911   -2.1652 C   0  0  0  0  0  0  0  0  0  0  0  0
   -5.1135    3.5176   -0.8604 C   0  0  0  0  0  0  0  0  0  0  0  0
   -4.6924    2.2397   -0.5213 C   0  0  0  0  0  0  0  0  0  0  0  0
   -4.4473    1.8774    0.7879 C   0  0  0  0  0  0  0  0  0  0  0  0
   -4.0262    0.5846    1.0840 C   0  0  0  0  0  0  0  0  0  0  0  0
   -3.7645    0.2080    2.5113 C   0  0  0  0  0  0  0  0  0  0  0  0
   -4.8657   -0.6012    3.0006 N   0  0  0  0  0  0  0  0  0  0  0  0
   -4.1870   -2.7028    0.7203 N   0  0  0  0  0  0  0  0  0  0  0  0
   -3.9589   -5.8515    0.4546 H   0  0  0  0  0  0  0  0  0  0  0  0
   -5.0834   -5.0648    1.5755 H   0  0  0  0  0  0  0  0  0  0  0  0
   -3.4225   -5.6318    2.1406 H   0  0  0  0  0  0  0  0  0  0  0  0
   -1.3123   -4.1452    0.8905 H   0  0  0  0  0  0  0  0  0  0  0  0
    0.4466   -2.9352    0.4631 H   0  0  0  0  0  0  0  0  0  0  0  0
    1.6328   -1.6111   -2.1766 H   0  0  0  0  0  0  0  0  0  0  0  0
    3.7152   -0.3142   -2.5233 H   0  0  0  0  0  0  0  0  0  0  0  0
    3.9513    2.4387   -1.9548 H   0  0  0  0  0  0  0  0  0  0  0  0
    5.7869    3.8943   -2.5314 H   0  0  0  0  0  0  0  0  0  0  0  0
    8.0577    3.3687   -1.7071 H   0  0  0  0  0  0  0  0  0  0  0  0
    8.4474    1.3720   -0.3067 H   0  0  0  0  0  0  0  0  0  0  0  0
    8.9375   -0.5729    0.0648 H   0  0  0  0  0  0  0  0  0  0  0  0
    8.6970   -0.0960    1.7058 H   0  0  0  0  0  0  0  0  0  0  0  0
    3.7900    0.6882    1.5941 H   0  0  0  0  0  0  0  0  0  0  0  0
    1.7878   -0.5763    1.9909 H   0  0  0  0  0  0  0  0  0  0  0  0
   -3.9681   -0.6639   -1.9954 H   0  0  0  0  0  0  0  0  0  0  0  0
   -4.6359    0.9851   -3.6322 H   0  0  0  0  0  0  0  0  0  0  0  0
   -5.3926    3.2977   -4.1920 H   0  0  0  0  0  0  0  0  0  0  0  0
   -5.6876    4.9056   -2.3524 H   0  0  0  0  0  0  0  0  0  0  0  0
   -5.2445    4.2338   -0.0366 H   0  0  0  0  0  0  0  0  0  0  0  0
   -4.5971    2.6319    1.5417 H   0  0  0  0  0  0  0  0  0  0  0  0
   -3.7550    1.1284    3.1319 H   0  0  0  0  0  0  0  0  0  0  0  0
   -2.8220   -0.3715    2.5815 H   0  0  0  0  0  0  0  0  0  0  0  0
   -4.8986   -0.5352    4.0521 H   0  0  0  0  0  0  0  0  0  0  0  0
   -5.7919   -0.2737    2.6121 H   0  0  0  0  0  0  0  0  0  0  0  0
  1  2  1  0
  2  3  1  0
  3  4  2  0
  4  5  1  0
  5  6  2  0
  5  7  1  0
  7  8  1  0
  8  9  2  0
  9 10  1  0
 10 11  2  0
 11 12  1  0
 12 13  2  0
 13 14  1  0
 14 15  2  0
 15 16  1  0
 16 17  2  0
 17 18  1  0
 18 19  1  0
 18 20  2  0
 18 21  2  0
 11 22  1  0
 22 23  2  0
  4 24  1  0
 24 25  1  0
 25 26  2  0
 26 27  1  0
 27 28  2  0
 28 29  1  0
 29 30  2  0
 30 31  1  0
 31 32  2  0
 32 33  1  0
 33 34  2  0
 34 35  1  0
 35 36  1  0
 24 37  1  0
 37  2  2  0
 23  8  1  0
 34 25  1  0
 17 12  1  0
 32 27  1  0
  1 38  1  0
  1 39  1  0
  1 40  1  0
  3 41  1  0
  7 42  1  0
  9 43  1  0
 10 44  1  0
 13 45  1  0
 14 46  1  0
 15 47  1  0
 16 48  1  0
 19 49  1  0
 19 50  1  0
 22 51  1  0
 23 52  1  0
 26 53  1  0
 28 54  1  0
 29 55  1  0
 30 56  1  0
 31 57  1  0
 33 58  1  0
 35 59  1  0
 35 60  1  0
 36 61  1  0
 36 62  1  0
M  END
$$$$
