@<TRIPOS>MOLECULE
*****
 40 43 0 0 0
SMALL
GASTEIGER

@<TRIPOS>ATOM
      1 N           4.4365    1.2437   -0.5120 N.pl3   1  UNL1       -0.3430
      2 C           3.6771    1.0761    0.6777 C.ar    1  UNL1        0.1204
      3 C           4.1106    1.4048    1.9516 C.ar    1  UNL1        0.0681
      4 N           3.1003    1.0889    2.7769 N.ar    1  UNL1       -0.2342
      5 C           2.0558    0.5788    2.0825 C.ar    1  UNL1        0.1389
      6 C           0.8005    0.1085    2.4581 C.ar    1  UNL1       -0.0181
      7 C          -0.0632   -0.3626    1.4733 C.ar    1  UNL1       -0.0477
      8 C           0.3270   -0.3593    0.1520 C.ar    1  UNL1        0.0173
      9 C          -0.5855   -0.8528   -0.8520 C.ar    1  UNL1        0.0780
     10 C          -1.8136   -0.2601   -1.0965 C.ar    1  UNL1        0.0967
     11 C          -2.4111    0.8866   -0.4510 C.ar    1  UNL1        0.0026
     12 C          -3.6133    0.7465    0.2209 C.ar    1  UNL1       -0.0498
     13 C          -4.2379    1.7961    0.8589 C.ar    1  UNL1       -0.0258
     14 C          -3.6706    3.0469    0.8469 C.ar    1  UNL1        0.1234
     15 F          -4.2433    4.1262    1.4618 F       1  UNL1       -0.2055
     16 C          -2.4667    3.1938    0.1756 C.ar    1  UNL1       -0.0258
     17 C          -1.8551    2.1314   -0.4582 C.ar    1  UNL1       -0.0498
     18 N          -2.3653   -0.9939   -2.0910 N.ar    1  UNL1       -0.2351
     19 C          -1.5447   -1.9822   -2.4514 C.ar    1  UNL1        0.0972
     20 N          -0.4450   -1.8929   -1.6839 N.ar    1  UNL1       -0.3241
     21 C           0.7219   -2.7565   -1.7126 C.3     1  UNL1        0.0852
     22 C           0.4531   -3.9048   -0.7288 C.3     1  UNL1        0.2569
     23 F          -0.6719   -4.5643   -1.1549 F       1  UNL1       -0.2073
     24 F           0.3451   -3.3948    0.5404 F       1  UNL1       -0.2073
     25 C           1.5872    0.1238   -0.1321 C.ar    1  UNL1        0.0221
     26 N           2.4320    0.5798    0.7917 N.ar    1  UNL1       -0.2876
     27 H           4.4435    2.1757   -0.9762 H       1  UNL1        0.1437
     28 H           4.9772    0.4589   -0.9188 H       1  UNL1        0.1437
     29 H           5.0770    1.8267    2.1713 H       1  UNL1        0.0865
     30 H           0.5332    0.1223    3.4975 H       1  UNL1        0.0654
     31 H          -1.0219   -0.7210    1.7678 H       1  UNL1        0.0626
     32 H          -4.1095   -0.2131    0.2657 H       1  UNL1        0.0625
     33 H          -5.1693    1.6592    1.3728 H       1  UNL1        0.0646
     34 H          -1.9936    4.1665    0.1476 H       1  UNL1        0.0646
     35 H          -0.9300    2.3238   -0.9539 H       1  UNL1        0.0625
     36 H          -1.6686   -2.7599   -3.2166 H       1  UNL1        0.1029
     37 H           0.9704   -3.1153   -2.7096 H       1  UNL1        0.0548
     38 H           1.6214   -2.2479   -1.3016 H       1  UNL1        0.0548
     39 H           1.3185   -4.6103   -0.7187 H       1  UNL1        0.1037
     40 H           1.8920    0.1270   -1.1696 H       1  UNL1        0.0820
@<TRIPOS>BOND
     1     1     2    1
     2     2     3   ar
     3     3     4   ar
     4     4     5   ar
     5     5     6   ar
     6     6     7   ar
     7     7     8   ar
     8     8     9    1
     9     9    10   ar
    10    10    11    1
    11    11    12   ar
    12    12    13   ar
    13    13    14   ar
    14    14    15    1
    15    14    16   ar
    16    16    17   ar
    17    10    18   ar
    18    18    19   ar
    19    19    20   ar
    20    20    21    1
    21    21    22    1
    22    22    23    1
    23    22    24    1
    24     8    25   ar
    25    25    26   ar
    26    26     2   ar
    27    26     5   ar
    28    20     9   ar
    29    17    11   ar
    30     1    27    1
    31     1    28    1
    32     3    29    1
    33     6    30    1
    34     7    31    1
    35    12    32    1
    36    13    33    1
    37    16    34    1
    38    17    35    1
    39    19    36    1
    40    21    37    1
    41    21    38    1
    42    22    39    1
    43    25    40    1
