
     RDKit          3D

 40 43  0  0  0  0  0  0  0  0999 V2000
    4.4365    1.2437   -0.5120 N   0  0  0  0  0  0  0  0  0  0  0  0
    3.6771    1.0761    0.6777 C   0  0  0  0  0  0  0  0  0  0  0  0
    4.1106    1.4048    1.9516 C   0  0  0  0  0  0  0  0  0  0  0  0
    3.1003    1.0889    2.7769 N   0  0  0  0  0  0  0  0  0  0  0  0
    2.0558    0.5788    2.0825 C   0  0  0  0  0  0  0  0  0  0  0  0
    0.8005    0.1085    2.4581 C   0  0  0  0  0  0  0  0  0  0  0  0
   -0.0632   -0.3626    1.4733 C   0  0  0  0  0  0  0  0  0  0  0  0
    0.3270   -0.3593    0.1520 C   0  0  0  0  0  0  0  0  0  0  0  0
   -0.5855   -0.8528   -0.8520 C   0  0  0  0  0  0  0  0  0  0  0  0
   -1.8136   -0.2601   -1.0965 C   0  0  0  0  0  0  0  0  0  0  0  0
   -2.4111    0.8866   -0.4510 C   0  0  0  0  0  0  0  0  0  0  0  0
   -3.6133    0.7465    0.2209 C   0  0  0  0  0  0  0  0  0  0  0  0
   -4.2379    1.7961    0.8589 C   0  0  0  0  0  0  0  0  0  0  0  0
   -3.6706    3.0469    0.8469 C   0  0  0  0  0  0  0  0  0  0  0  0
   -4.2433    4.1262    1.4618 F   0  0  0  0  0  0  0  0  0  0  0  0
   -2.4667    3.1938    0.1756 C   0  0  0  0  0  0  0  0  0  0  0  0
   -1.8551    2.1314   -0.4582 C   0  0  0  0  0  0  0  0  0  0  0  0
   -2.3653   -0.9939   -2.0910 N   0  0  0  0  0  0  0  0  0  0  0  0
   -1.5447   -1.9822   -2.4514 C   0  0  0  0  0  0  0  0  0  0  0  0
   -0.4450   -1.8929   -1.6839 N   0  0  0  0  0  0  0  0  0  0  0  0
    0.7219   -2.7565   -1.7126 C   0  0  0  0  0  0  0  0  0  0  0  0
    0.4531   -3.9048   -0.7288 C   0  0  0  0  0  0  0  0  0  0  0  0
   -0.6719   -4.5643   -1.1549 F   0  0  0  0  0  0  0  0  0  0  0  0
    0.3451   -3.3948    0.5404 F   0  0  0  0  0  0  0  0  0  0  0  0
    1.5872    0.1238   -0.1321 C   0  0  0  0  0  0  0  0  0  0  0  0
    2.4320    0.5798    0.7917 N   0  0  0  0  0  0  0  0  0  0  0  0
    4.4435    2.1757   -0.9762 H   0  0  0  0  0  0  0  0  0  0  0  0
    4.9772    0.4589   -0.9188 H   0  0  0  0  0  0  0  0  0  0  0  0
    5.0770    1.8267    2.1713 H   0  0  0  0  0  0  0  0  0  0  0  0
    0.5332    0.1223    3.4975 H   0  0  0  0  0  0  0  0  0  0  0  0
   -1.0219   -0.7210    1.7678 H   0  0  0  0  0  0  0  0  0  0  0  0
   -4.1095   -0.2131    0.2657 H   0  0  0  0  0  0  0  0  0  0  0  0
   -5.1693    1.6592    1.3728 H   0  0  0  0  0  0  0  0  0  0  0  0
   -1.9936    4.1665    0.1476 H   0  0  0  0  0  0  0  0  0  0  0  0
   -0.9300    2.3238   -0.9539 H   0  0  0  0  0  0  0  0  0  0  0  0
   -1.6686   -2.7599   -3.2166 H   0  0  0  0  0  0  0  0  0  0  0  0
    0.9704   -3.1153   -2.7096 H   0  0  0  0  0  0  0  0  0  0  0  0
    1.6214   -2.2479   -1.3016 H   0  0  0  0  0  0  0  0  0  0  0  0
    1.3185   -4.6103   -0.7187 H   0  0  0  0  0  0  0  0  0  0  0  0
    1.8920    0.1270   -1.1696 H   0  0  0  0  0  0  0  0  0  0  0  0
  1  2  1  0
  2  3  2  0
  3  4  1  0
  4  5  2  0
  5  6  1  0
  6  7  2  0
  7  8  1  0
  8  9  1  0
  9 10  2  0
 10 11  1  0
 11 12  2  0
 12 13  1  0
 13 14  2  0
 14 15  1  0
 14 16  1  0
 16 17  2  0
 10 18  1  0
 18 19  2  0
 19 20  1  0
 20 21  1  0
 21 22  1  0
 22 23  1  0
 22 24  1  0
  8 25  2  0
 25 26  1  0
 26  2  1  0
 26  5  1  0
 20  9  1  0
 17 11  1  0
  1 27  1  0
  1 28  1  0
  3 29  1  0
  6 30  1  0
  7 31  1  0
 12 32  1  0
 13 33  1  0
 16 34  1  0
 17 35  1  0
 19 36  1  0
 21 37  1  0
 21 38  1  0
 22 39  1  0
 25 40  1  0
M  END
$$$$
