
     RDKit          3D

 52 56  0  0  0  0  0  0  0  0999 V2000
   -3.5719   -2.1714   -0.3832 O   0  0  0  0  0  0  0  0  0  0  0  0
   -2.4712   -1.4918   -0.1178 C   0  0  0  0  0  0  0  0  0  0  0  0
   -2.4727   -0.8061    1.1536 C   0  0  0  0  0  0  0  0  0  0  0  0
   -1.9805   -1.4441    2.2697 C   0  0  0  0  0  0  0  0  0  0  0  0
   -1.9987   -0.7902    3.5093 C   0  0  0  0  0  0  0  0  0  0  0  0
   -2.5053    0.4824    3.6137 C   0  0  0  0  0  0  0  0  0  0  0  0
   -3.0008    1.1395    2.5188 C   0  0  0  0  0  0  0  0  0  0  0  0
   -2.9766    0.4734    1.2836 C   0  0  0  0  0  0  0  0  0  0  0  0
   -3.4815    1.0984    0.1111 N   0  0  0  0  0  0  0  0  0  0  0  0
   -4.2355    0.5412   -0.8179 N   0  0  0  0  0  0  0  0  0  0  0  0
   -4.5244    1.4449   -1.7927 C   0  0  0  0  0  0  0  0  0  0  0  0
   -3.8919    2.6229   -1.4069 C   0  0  0  0  0  0  0  0  0  0  0  0
   -3.2823    2.3501   -0.2552 N   0  0  0  0  0  0  0  0  0  0  0  0
   -1.5166   -1.5623   -1.1088 N   0  0  0  0  0  0  0  0  0  0  0  0
   -1.8207   -2.3501   -2.3236 C   0  0  0  0  0  0  0  0  0  0  0  0
   -0.5053   -3.0763   -2.6163 C   0  0  0  0  0  0  0  0  0  0  0  0
    0.4614   -2.2029   -3.0445 O   0  0  0  0  0  0  0  0  0  0  0  0
    0.3371   -0.9184   -2.4885 C   0  0  0  0  0  0  0  0  0  0  0  0
   -0.2238   -0.9616   -1.0947 C   0  0  1  0  0  0  0  0  0  0  0  0
   -0.0674    0.3140   -0.3605 C   0  0  0  0  0  0  0  0  0  0  0  0
    1.3084    0.8524   -0.4543 C   0  0  0  0  0  0  0  0  0  0  0  0
    2.2552    0.5398    0.5302 C   0  0  0  0  0  0  0  0  0  0  0  0
    3.5532    0.9951    0.4556 C   0  0  0  0  0  0  0  0  0  0  0  0
    4.5246    0.6754    1.4558 N   0  0  0  0  0  0  0  0  0  0  0  0
    5.7774    0.3211    1.1862 N   0  0  0  0  0  0  0  0  0  0  0  0
    6.4517    0.0796    2.3358 C   0  0  0  0  0  0  0  0  0  0  0  0
    5.5576    0.2999    3.3589 C   0  0  0  0  0  0  0  0  0  0  0  0
    4.3866    0.6639    2.7749 N   0  0  0  0  0  0  0  0  0  0  0  0
    3.9322    1.7794   -0.6151 C   0  0  0  0  0  0  0  0  0  0  0  0
    3.0064    2.0799   -1.5681 C   0  0  0  0  0  0  0  0  0  0  0  0
    1.6837    1.6310   -1.5157 C   0  0  0  0  0  0  0  0  0  0  0  0
    0.8131    1.9992   -2.4922 F   0  0  0  0  0  0  0  0  0  0  0  0
   -1.5763   -2.4453    2.2176 H   0  0  0  0  0  0  0  0  0  0  0  0
   -1.6159   -1.2769    4.3966 H   0  0  0  0  0  0  0  0  0  0  0  0
   -2.5334    1.0132    4.5613 H   0  0  0  0  0  0  0  0  0  0  0  0
   -3.4072    2.1429    2.5679 H   0  0  0  0  0  0  0  0  0  0  0  0
   -5.1256    1.2467   -2.6701 H   0  0  0  0  0  0  0  0  0  0  0  0
   -3.9200    3.5499   -1.9666 H   0  0  0  0  0  0  0  0  0  0  0  0
   -2.0497   -1.7135   -3.1759 H   0  0  0  0  0  0  0  0  0  0  0  0
   -2.5685   -3.1294   -2.1131 H   0  0  0  0  0  0  0  0  0  0  0  0
   -0.1452   -3.5373   -1.6609 H   0  0  0  0  0  0  0  0  0  0  0  0
   -0.6264   -3.8945   -3.3439 H   0  0  0  0  0  0  0  0  0  0  0  0
   -0.2636   -0.3140   -3.1887 H   0  0  0  0  0  0  0  0  0  0  0  0
    1.4021   -0.5685   -2.4033 H   0  0  0  0  0  0  0  0  0  0  0  0
    0.5052   -1.6889   -0.5500 H   0  0  0  0  0  0  0  0  0  0  0  0
   -0.8198    1.0894   -0.6703 H   0  0  0  0  0  0  0  0  0  0  0  0
   -0.2512    0.1749    0.7499 H   0  0  0  0  0  0  0  0  0  0  0  0
    1.9883   -0.0713    1.3785 H   0  0  0  0  0  0  0  0  0  0  0  0
    7.4749   -0.2246    2.4868 H   0  0  0  0  0  0  0  0  0  0  0  0
    5.7845    0.1925    4.4022 H   0  0  0  0  0  0  0  0  0  0  0  0
    4.9645    2.1513   -0.6900 H   0  0  0  0  0  0  0  0  0  0  0  0
    3.2619    2.6951   -2.4291 H   0  0  0  0  0  0  0  0  0  0  0  0
  1  2  2  0
  2  3  1  0
  3  4  2  0
  4  5  1  0
  5  6  2  0
  6  7  1  0
  7  8  2  0
  8  9  1  0
  9 10  1  0
 10 11  2  0
 11 12  1  0
 12 13  2  0
  2 14  1  0
 14 15  1  0
 15 16  1  0
 16 17  1  0
 17 18  1  0
 18 19  1  0
 19 20  1  0
 20 21  1  0
 21 22  2  0
 22 23  1  0
 23 24  1  0
 24 25  1  0
 25 26  2  0
 26 27  1  0
 27 28  2  0
 23 29  2  0
 29 30  1  0
 30 31  2  0
 31 32  1  0
  8  3  1  0
 13  9  1  0
 19 14  1  0
 31 21  1  0
 28 24  1  0
  4 33  1  0
  5 34  1  0
  6 35  1  0
  7 36  1  0
 11 37  1  0
 12 38  1  0
 15 39  1  0
 15 40  1  0
 16 41  1  0
 16 42  1  0
 18 43  1  0
 18 44  1  0
 19 45  1  1
 20 46  1  0
 20 47  1  0
 22 48  1  0
 26 49  1  0
 27 50  1  0
 29 51  1  0
 30 52  1  0
M  END
$$$$
