@<TRIPOS>MOLECULE
*****
 52 56 0 0 0
SMALL
GASTEIGER

@<TRIPOS>ATOM
      1 O          -3.5719   -2.1714   -0.3832 O.2     1  UNL1       -0.2699
      2 C          -2.4712   -1.4918   -0.1178 C.2     1  UNL1        0.2491
      3 C          -2.4727   -0.8061    1.1536 C.ar    1  UNL1        0.0640
      4 C          -1.9805   -1.4441    2.2697 C.ar    1  UNL1       -0.0475
      5 C          -1.9987   -0.7902    3.5093 C.ar    1  UNL1       -0.0609
      6 C          -2.5053    0.4824    3.6137 C.ar    1  UNL1       -0.0597
      7 C          -3.0008    1.1395    2.5188 C.ar    1  UNL1       -0.0338
      8 C          -2.9766    0.4734    1.2836 C.ar    1  UNL1        0.0982
      9 N          -3.4815    1.0984    0.1111 N.ar    1  UNL1       -0.1496
     10 N          -4.2355    0.5412   -0.8179 N.ar    1  UNL1       -0.1556
     11 C          -4.5244    1.4449   -1.7927 C.ar    1  UNL1        0.0697
     12 C          -3.8919    2.6229   -1.4069 C.ar    1  UNL1        0.0697
     13 N          -3.2823    2.3501   -0.2552 N.ar    1  UNL1       -0.1556
     14 N          -1.5166   -1.5623   -1.1088 N.am    1  UNL1       -0.2897
     15 C          -1.8207   -2.3501   -2.3236 C.3     1  UNL1        0.0388
     16 C          -0.5053   -3.0763   -2.6163 C.3     1  UNL1        0.0635
     17 O           0.4614   -2.2029   -3.0445 O.3     1  UNL1       -0.3764
     18 C           0.3371   -0.9184   -2.4885 C.3     1  UNL1        0.0666
     19 C          -0.2238   -0.9616   -1.0947 C.3     1  UNL1        0.0537
     20 C          -0.0674    0.3140   -0.3605 C.3     1  UNL1       -0.0040
     21 C           1.3084    0.8524   -0.4543 C.ar    1  UNL1       -0.0083
     22 C           2.2552    0.5398    0.5302 C.ar    1  UNL1       -0.0286
     23 C           3.5532    0.9951    0.4556 C.ar    1  UNL1        0.0866
     24 N           4.5246    0.6754    1.4558 N.ar    1  UNL1       -0.1503
     25 N           5.7774    0.3211    1.1862 N.ar    1  UNL1       -0.1556
     26 C           6.4517    0.0796    2.3358 C.ar    1  UNL1        0.0697
     27 C           5.5576    0.2999    3.3589 C.ar    1  UNL1        0.0697
     28 N           4.3866    0.6639    2.7749 N.ar    1  UNL1       -0.1556
     29 C           3.9322    1.7794   -0.6151 C.ar    1  UNL1       -0.0318
     30 C           3.0064    2.0799   -1.5681 C.ar    1  UNL1       -0.0241
     31 C           1.6837    1.6310   -1.5157 C.ar    1  UNL1        0.1267
     32 F           0.8131    1.9992   -2.4922 F       1  UNL1       -0.2052
     33 H          -1.5763   -2.4453    2.2176 H       1  UNL1        0.0626
     34 H          -1.6159   -1.2769    4.3966 H       1  UNL1        0.0618
     35 H          -2.5334    1.0132    4.5613 H       1  UNL1        0.0618
     36 H          -3.4072    2.1429    2.5679 H       1  UNL1        0.0639
     37 H          -5.1256    1.2467   -2.6701 H       1  UNL1        0.0864
     38 H          -3.9200    3.5499   -1.9666 H       1  UNL1        0.0864
     39 H          -2.0497   -1.7135   -3.1759 H       1  UNL1        0.0487
     40 H          -2.5685   -3.1294   -2.1131 H       1  UNL1        0.0487
     41 H          -0.1452   -3.5373   -1.6609 H       1  UNL1        0.0575
     42 H          -0.6264   -3.8945   -3.3439 H       1  UNL1        0.0575
     43 H          -0.2636   -0.3140   -3.1887 H       1  UNL1        0.0578
     44 H           1.4021   -0.5685   -2.4033 H       1  UNL1        0.0578
     45 H           0.5052   -1.6889   -0.5500 H       1  UNL1        0.0526
     46 H          -0.8198    1.0894   -0.6703 H       1  UNL1        0.0333
     47 H          -0.2512    0.1749    0.7499 H       1  UNL1        0.0333
     48 H           1.9883   -0.0713    1.3785 H       1  UNL1        0.0643
     49 H           7.4749   -0.2246    2.4868 H       1  UNL1        0.0864
     50 H           5.7845    0.1925    4.4022 H       1  UNL1        0.0864
     51 H           4.9645    2.1513   -0.6900 H       1  UNL1        0.0640
     52 H           3.2619    2.6951   -2.4291 H       1  UNL1        0.0647
@<TRIPOS>BOND
     1     1     2    2
     2     2     3    1
     3     3     4   ar
     4     4     5   ar
     5     5     6   ar
     6     6     7   ar
     7     7     8   ar
     8     8     9    1
     9     9    10   ar
    10    10    11   ar
    11    11    12   ar
    12    12    13   ar
    13     2    14   am
    14    14    15    1
    15    15    16    1
    16    16    17    1
    17    17    18    1
    18    18    19    1
    19    19    20    1
    20    20    21    1
    21    21    22   ar
    22    22    23   ar
    23    23    24    1
    24    24    25   ar
    25    25    26   ar
    26    26    27   ar
    27    27    28   ar
    28    23    29   ar
    29    29    30   ar
    30    30    31   ar
    31    31    32    1
    32     8     3   ar
    33    13     9   ar
    34    19    14    1
    35    31    21   ar
    36    28    24   ar
    37     4    33    1
    38     5    34    1
    39     6    35    1
    40     7    36    1
    41    11    37    1
    42    12    38    1
    43    15    39    1
    44    15    40    1
    45    16    41    1
    46    16    42    1
    47    18    43    1
    48    18    44    1
    49    19    45    1
    50    20    46    1
    51    20    47    1
    52    22    48    1
    53    26    49    1
    54    27    50    1
    55    29    51    1
    56    30    52    1
