
     RDKit          3D

 43 44  0  0  0  0  0  0  0  0999 V2000
    0.9541   -2.4032   -0.7390 C   0  0  0  0  0  0  0  0  0  0  0  0
    0.1907   -1.3080   -0.0737 C   0  0  0  0  0  0  0  0  0  0  0  0
   -1.1585   -1.1114   -0.3518 C   0  0  0  0  0  0  0  0  0  0  0  0
   -1.9162   -0.1076    0.2400 C   0  0  0  0  0  0  0  0  0  0  0  0
   -1.2980    0.7285    1.1432 C   0  0  0  0  0  0  0  0  0  0  0  0
   -1.9347    1.7590    1.7957 O   0  0  0  0  0  0  0  0  0  0  0  0
    0.0397    0.5122    1.4017 C   0  0  0  0  0  0  0  0  0  0  0  0
    0.7415    1.4092    2.3844 C   0  0  0  0  0  0  0  0  0  0  0  0
    0.8353   -0.4859    0.8265 C   0  0  0  0  0  0  0  0  0  0  0  0
    2.2691   -0.6178    1.1936 C   0  0  0  0  0  0  0  0  0  0  0  0
    3.1722   -0.1006    0.1540 C   0  0  0  0  0  0  0  0  0  0  0  0
    2.9505    0.4287   -1.0134 N   0  0  0  0  0  0  0  0  0  0  0  0
    4.1797    0.7829   -1.6710 C   0  0  0  0  0  0  0  0  0  0  0  0
    5.2494    0.6278   -0.6215 C   0  0  0  0  0  0  0  0  0  0  0  0
    4.5874   -0.1499    0.3976 N   0  0  0  0  0  0  0  0  0  0  0  0
   -3.3396    0.0728   -0.0714 C   0  0  0  0  0  0  0  0  0  0  0  0
   -3.8707   -0.9322   -1.0879 C   0  0  0  0  0  0  0  0  0  0  0  0
   -4.1365   -0.2245    1.2038 C   0  0  0  0  0  0  0  0  0  0  0  0
   -3.7167    1.4356   -0.5437 C   0  0  0  0  0  0  0  0  0  0  0  0
    1.5421   -3.0058   -0.0247 H   0  0  0  0  0  0  0  0  0  0  0  0
    1.5990   -1.9721   -1.5582 H   0  0  0  0  0  0  0  0  0  0  0  0
    0.2633   -3.0806   -1.2473 H   0  0  0  0  0  0  0  0  0  0  0  0
   -1.6020   -1.7970   -1.0685 H   0  0  0  0  0  0  0  0  0  0  0  0
   -1.8268    2.7366    1.5470 H   0  0  0  0  0  0  0  0  0  0  0  0
    1.6504    1.8430    1.9630 H   0  0  0  0  0  0  0  0  0  0  0  0
    0.0638    2.2320    2.6927 H   0  0  0  0  0  0  0  0  0  0  0  0
    0.9026    0.8044    3.2960 H   0  0  0  0  0  0  0  0  0  0  0  0
    2.5045   -1.6988    1.3021 H   0  0  0  0  0  0  0  0  0  0  0  0
    2.4173   -0.0457    2.1213 H   0  0  0  0  0  0  0  0  0  0  0  0
    4.2122    1.8019   -2.0629 H   0  0  0  0  0  0  0  0  0  0  0  0
    4.3716    0.0513   -2.5038 H   0  0  0  0  0  0  0  0  0  0  0  0
    5.6274    1.5925   -0.2311 H   0  0  0  0  0  0  0  0  0  0  0  0
    6.1106    0.0518   -1.0490 H   0  0  0  0  0  0  0  0  0  0  0  0
    5.1506   -0.6269    1.1443 H   0  0  0  0  0  0  0  0  0  0  0  0
   -4.9925   -0.8653   -0.9754 H   0  0  0  0  0  0  0  0  0  0  0  0
   -3.6640   -0.6565   -2.1280 H   0  0  0  0  0  0  0  0  0  0  0  0
   -3.6155   -1.9554   -0.7962 H   0  0  0  0  0  0  0  0  0  0  0  0
   -4.1467   -1.3437    1.3151 H   0  0  0  0  0  0  0  0  0  0  0  0
   -5.1605    0.1403    1.1348 H   0  0  0  0  0  0  0  0  0  0  0  0
   -3.5836    0.1390    2.0897 H   0  0  0  0  0  0  0  0  0  0  0  0
   -4.7043    1.3502   -1.0643 H   0  0  0  0  0  0  0  0  0  0  0  0
   -3.8989    2.1464    0.2853 H   0  0  0  0  0  0  0  0  0  0  0  0
   -3.0197    1.8431   -1.3076 H   0  0  0  0  0  0  0  0  0  0  0  0
  1  2  1  0
  2  3  2  0
  3  4  1  0
  4  5  2  0
  5  6  1  0
  5  7  1  0
  7  8  1  0
  7  9  2  0
  9 10  1  0
 10 11  1  0
 11 12  2  0
 12 13  1  0
 13 14  1  0
 14 15  1  0
  4 16  1  0
 16 17  1  0
 16 18  1  0
 16 19  1  0
  9  2  1  0
 15 11  1  0
  1 20  1  0
  1 21  1  0
  1 22  1  0
  3 23  1  0
  6 24  1  0
  8 25  1  0
  8 26  1  0
  8 27  1  0
 10 28  1  0
 10 29  1  0
 13 30  1  0
 13 31  1  0
 14 32  1  0
 14 33  1  0
 15 34  1  0
 17 35  1  0
 17 36  1  0
 17 37  1  0
 18 38  1  0
 18 39  1  0
 18 40  1  0
 19 41  1  0
 19 42  1  0
 19 43  1  0
M  END
$$$$
