
     RDKit          3D

 87 90  0  0  0  0  0  0  0  0999 V2000
   -2.9641    2.2105    0.2469 C   0  0  1  0  0  0  0  0  0  0  0  0
   -2.3834    2.8479    1.4597 C   0  0  0  0  0  0  0  0  0  0  0  0
   -2.0722    1.7112   -0.6654 O   0  0  0  0  0  0  0  0  0  0  0  0
   -1.4082    0.5925   -0.1695 C   0  0  2  0  0  0  0  0  0  0  0  0
   -0.4023    0.1689   -0.9923 O   0  0  0  0  0  0  0  0  0  0  0  0
    0.8614    0.2561   -0.3655 C   0  0  2  0  0  0  0  0  0  0  0  0
    1.7322    1.2684   -1.0174 C   0  0  1  0  0  0  0  0  0  0  0  0
    1.9802    2.4971   -0.1520 C   0  0  0  0  0  0  0  0  0  0  0  0
    2.5677    3.5114   -0.8974 O   0  0  0  0  0  0  0  0  0  0  0  0
    2.9370    0.8465   -1.4985 O   0  0  0  0  0  0  0  0  0  0  0  0
    3.5658    0.0338   -0.5596 C   0  0  2  0  0  0  0  0  0  0  0  0
    4.8986   -0.1805   -0.8507 O   0  0  0  0  0  0  0  0  0  0  0  0
    5.6894    0.1083    0.2813 C   0  0  0  0  0  0  0  0  0  0  0  0
    7.1747   -0.1237   -0.0213 C   0  0  1  0  0  0  0  0  0  0  0  0
    7.9717    0.1621    1.1017 O   0  0  0  0  0  0  0  0  0  0  0  0
    9.2737    0.2841    0.6054 C   0  0  1  0  0  0  0  0  0  0  0  0
   10.1003    0.8378    1.5645 O   0  0  0  0  0  0  0  0  0  0  0  0
    9.8033   -1.0552    0.1382 C   0  0  2  0  0  0  0  0  0  0  0  0
   10.3435   -0.9978   -1.1491 O   0  0  0  0  0  0  0  0  0  0  0  0
    8.7100   -2.1078    0.1701 C   0  0  1  0  0  0  0  0  0  0  0  0
    8.5189   -2.5233    1.4784 O   0  0  0  0  0  0  0  0  0  0  0  0
    7.3861   -1.5909   -0.3407 C   0  0  2  0  0  0  0  0  0  0  0  0
    7.3269   -1.7574   -1.7082 O   0  0  0  0  0  0  0  0  0  0  0  0
    2.8331   -1.3028   -0.6698 C   0  0  2  0  0  0  0  0  0  0  0  0
    2.7333   -1.6696   -2.0327 O   0  0  0  0  0  0  0  0  0  0  0  0
    1.4486   -1.1003   -0.1655 C   0  0  1  0  0  0  0  0  0  0  0  0
    1.4485   -1.4638    1.1936 O   0  0  0  0  0  0  0  0  0  0  0  0
   -2.3460   -0.5535    0.1487 C   0  0  2  0  0  0  0  0  0  0  0  0
   -2.8338   -1.1855   -0.9644 O   0  0  0  0  0  0  0  0  0  0  0  0
   -3.3894   -0.0904    1.1126 C   0  0  1  0  0  0  0  0  0  0  0  0
   -2.8534    0.1330    2.3860 O   0  0  0  0  0  0  0  0  0  0  0  0
   -4.0335    1.1619    0.5620 C   0  0  2  0  0  0  0  0  0  0  0  0
   -4.6363    0.8483   -0.7081 N   0  0  0  0  0  0  0  0  0  0  0  0
   -5.7321   -0.0500   -0.6270 C   0  0  1  0  0  0  0  0  0  0  0  0
   -6.8331    0.4776    0.2644 C   0  0  0  0  0  0  0  0  0  0  0  0
   -7.8557   -0.3664    0.3695 C   0  0  0  0  0  0  0  0  0  0  0  0
   -9.0384   -0.0253    1.2048 C   0  0  0  0  0  0  0  0  0  0  0  0
   -8.8546    1.2215    1.7792 O   0  0  0  0  0  0  0  0  0  0  0  0
   -7.7765   -1.6555   -0.3722 C   0  0  1  0  0  0  0  0  0  0  0  0
   -8.9648   -2.3626   -0.3201 O   0  0  0  0  0  0  0  0  0  0  0  0
   -7.3793   -1.4115   -1.7963 C   0  0  2  0  0  0  0  0  0  0  0  0
   -6.7341   -2.5805   -2.2491 O   0  0  0  0  0  0  0  0  0  0  0  0
   -6.4130   -0.2594   -1.9720 C   0  0  1  0  0  0  0  0  0  0  0  0
   -7.0978    0.8690   -2.4058 O   0  0  0  0  0  0  0  0  0  0  0  0
   -3.5373    3.0186   -0.2892 H   0  0  0  0  0  0  0  0  0  0  0  0
   -1.8182    3.7392    1.1287 H   0  0  0  0  0  0  0  0  0  0  0  0
   -1.8150    2.2099    2.1308 H   0  0  0  0  0  0  0  0  0  0  0  0
   -3.2405    3.2418    2.0599 H   0  0  0  0  0  0  0  0  0  0  0  0
   -0.9853    0.9056    0.8022 H   0  0  0  0  0  0  0  0  0  0  0  0
    0.6359    0.6655    0.6611 H   0  0  0  0  0  0  0  0  0  0  0  0
    1.1678    1.6747   -1.9093 H   0  0  0  0  0  0  0  0  0  0  0  0
    1.0058    2.9111    0.2041 H   0  0  0  0  0  0  0  0  0  0  0  0
    2.6730    2.2414    0.6614 H   0  0  0  0  0  0  0  0  0  0  0  0
    3.5425    3.4495   -0.9695 H   0  0  0  0  0  0  0  0  0  0  0  0
    3.4652    0.3728    0.4769 H   0  0  0  0  0  0  0  0  0  0  0  0
    5.3866   -0.4537    1.1744 H   0  0  0  0  0  0  0  0  0  0  0  0
    5.5186    1.1791    0.4794 H   0  0  0  0  0  0  0  0  0  0  0  0
    7.4778    0.5222   -0.8597 H   0  0  0  0  0  0  0  0  0  0  0  0
    9.2245    0.9697   -0.2668 H   0  0  0  0  0  0  0  0  0  0  0  0
    9.8273    1.7900    1.7003 H   0  0  0  0  0  0  0  0  0  0  0  0
   10.6011   -1.4050    0.8281 H   0  0  0  0  0  0  0  0  0  0  0  0
    9.7706   -0.4726   -1.7680 H   0  0  0  0  0  0  0  0  0  0  0  0
    9.0388   -2.9286   -0.4941 H   0  0  0  0  0  0  0  0  0  0  0  0
    7.6542   -3.0187    1.4959 H   0  0  0  0  0  0  0  0  0  0  0  0
    6.5451   -2.1522    0.1405 H   0  0  0  0  0  0  0  0  0  0  0  0
    7.1122   -0.9150   -2.1639 H   0  0  0  0  0  0  0  0  0  0  0  0
    3.3275   -2.0867   -0.0892 H   0  0  0  0  0  0  0  0  0  0  0  0
    2.3060   -0.9018   -2.4874 H   0  0  0  0  0  0  0  0  0  0  0  0
    0.8236   -1.8981   -0.6604 H   0  0  0  0  0  0  0  0  0  0  0  0
    1.8203   -0.7396    1.7531 H   0  0  0  0  0  0  0  0  0  0  0  0
   -1.7098   -1.2938    0.7109 H   0  0  0  0  0  0  0  0  0  0  0  0
   -2.4295   -0.8226   -1.7821 H   0  0  0  0  0  0  0  0  0  0  0  0
   -4.1651   -0.8504    1.2493 H   0  0  0  0  0  0  0  0  0  0  0  0
   -2.6723   -0.7427    2.7712 H   0  0  0  0  0  0  0  0  0  0  0  0
   -4.7437    1.6391    1.2597 H   0  0  0  0  0  0  0  0  0  0  0  0
   -4.8154    1.6976   -1.2670 H   0  0  0  0  0  0  0  0  0  0  0  0
   -5.4653   -1.0393   -0.2405 H   0  0  0  0  0  0  0  0  0  0  0  0
   -6.8459    1.4133    0.7784 H   0  0  0  0  0  0  0  0  0  0  0  0
   -9.9950   -0.0077    0.6077 H   0  0  0  0  0  0  0  0  0  0  0  0
   -9.1617   -0.8379    1.9424 H   0  0  0  0  0  0  0  0  0  0  0  0
   -8.1741    1.1095    2.4826 H   0  0  0  0  0  0  0  0  0  0  0  0
   -7.0316   -2.2744    0.1957 H   0  0  0  0  0  0  0  0  0  0  0  0
   -9.7511   -1.7824   -0.3697 H   0  0  0  0  0  0  0  0  0  0  0  0
   -8.3067   -1.2779   -2.3991 H   0  0  0  0  0  0  0  0  0  0  0  0
   -7.3159   -3.3562   -2.0814 H   0  0  0  0  0  0  0  0  0  0  0  0
   -5.6939   -0.5215   -2.7682 H   0  0  0  0  0  0  0  0  0  0  0  0
   -6.5541    1.3945   -3.0515 H   0  0  0  0  0  0  0  0  0  0  0  0
  1  2  1  0
  1  3  1  0
  3  4  1  0
  4  5  1  0
  5  6  1  0
  6  7  1  0
  7  8  1  0
  8  9  1  0
  7 10  1  0
 10 11  1  0
 11 12  1  0
 12 13  1  0
 13 14  1  0
 14 15  1  0
 15 16  1  0
 16 17  1  0
 16 18  1  0
 18 19  1  0
 18 20  1  0
 20 21  1  0
 20 22  1  0
 22 23  1  0
 11 24  1  0
 24 25  1  0
 24 26  1  0
 26 27  1  0
  4 28  1  0
 28 29  1  0
 28 30  1  0
 30 31  1  0
 30 32  1  0
 32 33  1  0
 33 34  1  0
 34 35  1  0
 35 36  2  0
 36 37  1  0
 37 38  1  0
 36 39  1  0
 39 40  1  0
 39 41  1  0
 41 42  1  0
 41 43  1  0
 43 44  1  0
 32  1  1  0
 43 34  1  0
 26  6  1  0
 22 14  1  0
  1 45  1  6
  2 46  1  0
  2 47  1  0
  2 48  1  0
  4 49  1  1
  6 50  1  1
  7 51  1  6
  8 52  1  0
  8 53  1  0
  9 54  1  0
 11 55  1  1
 13 56  1  0
 13 57  1  0
 14 58  1  6
 16 59  1  6
 17 60  1  0
 18 61  1  1
 19 62  1  0
 20 63  1  6
 21 64  1  0
 22 65  1  1
 23 66  1  0
 24 67  1  1
 25 68  1  0
 26 69  1  6
 27 70  1  0
 28 71  1  1
 29 72  1  0
 30 73  1  1
 31 74  1  0
 32 75  1  1
 33 76  1  0
 34 77  1  1
 35 78  1  0
 37 79  1  0
 37 80  1  0
 38 81  1  0
 39 82  1  1
 40 83  1  0
 41 84  1  6
 42 85  1  0
 43 86  1  6
 44 87  1  0
M  END
$$$$
