@<TRIPOS>MOLECULE
*****
 87 90 0 0 0
SMALL
GASTEIGER

@<TRIPOS>ATOM
      1 C          -2.9641    2.2105    0.2469 C.3     1  UNL1        0.0768
      2 C          -2.3834    2.8479    1.4597 C.3     1  UNL1       -0.0370
      3 O          -2.0722    1.7112   -0.6654 O.3     1  UNL1       -0.3441
      4 C          -1.4082    0.5925   -0.1695 C.3     1  UNL1        0.1882
      5 O          -0.4023    0.1689   -0.9923 O.3     1  UNL1       -0.3401
      6 C           0.8614    0.2561   -0.3655 C.3     1  UNL1        0.1184
      7 C           1.7322    1.2684   -1.0174 C.3     1  UNL1        0.1134
      8 C           1.9802    2.4971   -0.1520 C.3     1  UNL1        0.0730
      9 O           2.5677    3.5114   -0.8974 O.3     1  UNL1       -0.3924
     10 O           2.9370    0.8465   -1.4985 O.3     1  UNL1       -0.3405
     11 C           3.5658    0.0338   -0.5596 C.3     1  UNL1        0.1880
     12 O           4.8986   -0.1805   -0.8507 O.3     1  UNL1       -0.3460
     13 C           5.6894    0.1083    0.2813 C.3     1  UNL1        0.0796
     14 C           7.1747   -0.1237   -0.0213 C.3     1  UNL1        0.1134
     15 O           7.9717    0.1621    1.1017 O.3     1  UNL1       -0.3407
     16 C           9.2737    0.2841    0.6054 C.3     1  UNL1        0.1854
     17 O          10.1003    0.8378    1.5645 O.3     1  UNL1       -0.3649
     18 C           9.8033   -1.0552    0.1382 C.3     1  UNL1        0.1339
     19 O          10.3435   -0.9978   -1.1491 O.3     1  UNL1       -0.3841
     20 C           8.7100   -2.1078    0.1701 C.3     1  UNL1        0.1141
     21 O           8.5189   -2.5233    1.4784 O.3     1  UNL1       -0.3864
     22 C           7.3861   -1.5909   -0.3407 C.3     1  UNL1        0.1119
     23 O           7.3269   -1.7574   -1.7082 O.3     1  UNL1       -0.3865
     24 C           2.8331   -1.3028   -0.6698 C.3     1  UNL1        0.1341
     25 O           2.7333   -1.6696   -2.0327 O.3     1  UNL1       -0.3841
     26 C           1.4486   -1.1003   -0.1655 C.3     1  UNL1        0.1144
     27 O           1.4485   -1.4638    1.1936 O.3     1  UNL1       -0.3864
     28 C          -2.3460   -0.5535    0.1487 C.3     1  UNL1        0.1332
     29 O          -2.8338   -1.1855   -0.9644 O.3     1  UNL1       -0.3841
     30 C          -3.3894   -0.0904    1.1126 C.3     1  UNL1        0.1035
     31 O          -2.8534    0.1330    2.3860 O.3     1  UNL1       -0.3874
     32 C          -4.0335    1.1619    0.5620 C.3     1  UNL1        0.0631
     33 N          -4.6363    0.8483   -0.7081 N.3     1  UNL1       -0.3002
     34 C          -5.7321   -0.0500   -0.6270 C.3     1  UNL1        0.0555
     35 C          -6.8331    0.4776    0.2644 C.2     1  UNL1       -0.0608
     36 C          -7.8557   -0.3664    0.3695 C.2     1  UNL1       -0.0162
     37 C          -9.0384   -0.0253    1.2048 C.3     1  UNL1        0.0678
     38 O          -8.8546    1.2215    1.7792 O.3     1  UNL1       -0.3906
     39 C          -7.7765   -1.6555   -0.3722 C.3     1  UNL1        0.1067
     40 O          -8.9648   -2.3626   -0.3201 O.3     1  UNL1       -0.3848
     41 C          -7.3793   -1.4115   -1.7963 C.3     1  UNL1        0.1124
     42 O          -6.7341   -2.5805   -2.2491 O.3     1  UNL1       -0.3863
     43 C          -6.4130   -0.2594   -1.9720 C.3     1  UNL1        0.1026
     44 O          -7.0978    0.8690   -2.4058 O.3     1  UNL1       -0.3873
     45 H          -3.5373    3.0186   -0.2892 H       1  UNL1        0.0611
     46 H          -1.8182    3.7392    1.1287 H       1  UNL1        0.0255
     47 H          -1.8150    2.2099    2.1308 H       1  UNL1        0.0255
     48 H          -3.2405    3.2418    2.0599 H       1  UNL1        0.0255
     49 H          -0.9853    0.9056    0.8022 H       1  UNL1        0.0937
     50 H           0.6359    0.6655    0.6611 H       1  UNL1        0.0651
     51 H           1.1678    1.6747   -1.9093 H       1  UNL1        0.0647
     52 H           1.0058    2.9111    0.2041 H       1  UNL1        0.0584
     53 H           2.6730    2.2414    0.6614 H       1  UNL1        0.0584
     54 H           3.5425    3.4495   -0.9695 H       1  UNL1        0.2095
     55 H           3.4652    0.3728    0.4769 H       1  UNL1        0.0937
     56 H           5.3866   -0.4537    1.1744 H       1  UNL1        0.0587
     57 H           5.5186    1.1791    0.4794 H       1  UNL1        0.0587
     58 H           7.4778    0.5222   -0.8597 H       1  UNL1        0.0647
     59 H           9.2245    0.9697   -0.2668 H       1  UNL1        0.0935
     60 H           9.8273    1.7900    1.7003 H       1  UNL1        0.2126
     61 H          10.6011   -1.4050    0.8281 H       1  UNL1        0.0671
     62 H           9.7706   -0.4726   -1.7680 H       1  UNL1        0.2101
     63 H           9.0388   -2.9286   -0.4941 H       1  UNL1        0.0648
     64 H           7.6542   -3.0187    1.4959 H       1  UNL1        0.2100
     65 H           6.5451   -2.1522    0.1405 H       1  UNL1        0.0647
     66 H           7.1122   -0.9150   -2.1639 H       1  UNL1        0.2100
     67 H           3.3275   -2.0867   -0.0892 H       1  UNL1        0.0671
     68 H           2.3060   -0.9018   -2.4874 H       1  UNL1        0.2101
     69 H           0.8236   -1.8981   -0.6604 H       1  UNL1        0.0648
     70 H           1.8203   -0.7396    1.7531 H       1  UNL1        0.2100
     71 H          -1.7098   -1.2938    0.7109 H       1  UNL1        0.0671
     72 H          -2.4295   -0.8226   -1.7821 H       1  UNL1        0.2101
     73 H          -4.1651   -0.8504    1.2493 H       1  UNL1        0.0637
     74 H          -2.6723   -0.7427    2.7712 H       1  UNL1        0.2100
     75 H          -4.7437    1.6391    1.2597 H       1  UNL1        0.0512
     76 H          -4.8154    1.6976   -1.2670 H       1  UNL1        0.1230
     77 H          -5.4653   -1.0393   -0.2405 H       1  UNL1        0.0531
     78 H          -6.8459    1.4133    0.7784 H       1  UNL1        0.0589
     79 H          -9.9950   -0.0077    0.6077 H       1  UNL1        0.0605
     80 H          -9.1617   -0.8379    1.9424 H       1  UNL1        0.0605
     81 H          -8.1741    1.1095    2.4826 H       1  UNL1        0.2098
     82 H          -7.0316   -2.2744    0.1957 H       1  UNL1        0.0668
     83 H          -9.7511   -1.7824   -0.3697 H       1  UNL1        0.2103
     84 H          -8.3067   -1.2779   -2.3991 H       1  UNL1        0.0649
     85 H          -7.3159   -3.3562   -2.0814 H       1  UNL1        0.2100
     86 H          -5.6939   -0.5215   -2.7682 H       1  UNL1        0.0639
     87 H          -6.5541    1.3945   -3.0515 H       1  UNL1        0.2100
@<TRIPOS>BOND
     1     1     2    1
     2     1     3    1
     3     3     4    1
     4     4     5    1
     5     5     6    1
     6     6     7    1
     7     7     8    1
     8     8     9    1
     9     7    10    1
    10    10    11    1
    11    11    12    1
    12    12    13    1
    13    13    14    1
    14    14    15    1
    15    15    16    1
    16    16    17    1
    17    16    18    1
    18    18    19    1
    19    18    20    1
    20    20    21    1
    21    20    22    1
    22    22    23    1
    23    11    24    1
    24    24    25    1
    25    24    26    1
    26    26    27    1
    27     4    28    1
    28    28    29    1
    29    28    30    1
    30    30    31    1
    31    30    32    1
    32    32    33    1
    33    33    34    1
    34    34    35    1
    35    35    36    2
    36    36    37    1
    37    37    38    1
    38    36    39    1
    39    39    40    1
    40    39    41    1
    41    41    42    1
    42    41    43    1
    43    43    44    1
    44    32     1    1
    45    43    34    1
    46    26     6    1
    47    22    14    1
    48     1    45    1
    49     2    46    1
    50     2    47    1
    51     2    48    1
    52     4    49    1
    53     6    50    1
    54     7    51    1
    55     8    52    1
    56     8    53    1
    57     9    54    1
    58    11    55    1
    59    13    56    1
    60    13    57    1
    61    14    58    1
    62    16    59    1
    63    17    60    1
    64    18    61    1
    65    19    62    1
    66    20    63    1
    67    21    64    1
    68    22    65    1
    69    23    66    1
    70    24    67    1
    71    25    68    1
    72    26    69    1
    73    27    70    1
    74    28    71    1
    75    29    72    1
    76    30    73    1
    77    31    74    1
    78    32    75    1
    79    33    76    1
    80    34    77    1
    81    35    78    1
    82    37    79    1
    83    37    80    1
    84    38    81    1
    85    39    82    1
    86    40    83    1
    87    41    84    1
    88    42    85    1
    89    43    86    1
    90    44    87    1
