@<TRIPOS>MOLECULE
*****
 49 52 0 0 0
SMALL
GASTEIGER

@<TRIPOS>ATOM
      1 N           7.4485    0.2177   -1.1316 N.am    1  UNL1       -0.3252
      2 C           6.2876   -0.4038   -0.6011 C.2     1  UNL1        0.2452
      3 O           6.1575   -1.6256   -0.7618 O.2     1  UNL1       -0.2703
      4 C           5.3226    0.4390    0.0996 C.ar    1  UNL1        0.0817
      5 C           5.5203    1.7890    0.2471 C.ar    1  UNL1       -0.0459
      6 C           4.5751    2.5283    0.9169 C.ar    1  UNL1       -0.0574
      7 C           3.4614    1.8907    1.4177 C.ar    1  UNL1       -0.0162
      8 C           3.2675    0.5282    1.2657 C.ar    1  UNL1        0.1637
      9 C           4.2026   -0.2178    0.6004 C.ar    1  UNL1        0.1742
     10 O           4.0188   -1.5753    0.4437 O.3     1  UNL1       -0.4835
     11 C           3.0946   -2.2639    1.2641 C.3     1  UNL1        0.1308
     12 C           1.8110   -1.4655    1.4217 C.3     1  UNL1        0.1605
     13 C           0.9448   -1.5041    0.2403 C.ar    1  UNL1        0.0143
     14 C           1.1437   -2.3555   -0.8226 C.ar    1  UNL1        0.0343
     15 N           0.3002   -2.3456   -1.8964 N.ar    1  UNL1       -0.2626
     16 C          -0.7427   -1.4976   -1.9288 C.ar    1  UNL1        0.0312
     17 C          -0.9566   -0.6380   -0.8726 C.ar    1  UNL1       -0.0202
     18 C          -2.1338    0.2875   -0.9589 C.3     1  UNL1        0.0507
     19 C          -3.3456   -0.3497   -0.3865 C.2     1  UNL1        0.2201
     20 O          -3.2368   -1.5135    0.0697 O.2     1  UNL1       -0.2752
     21 N          -4.5777    0.3364   -0.3590 N.am    1  UNL1       -0.2968
     22 C          -5.7384   -0.3118    0.2048 C.3     1  UNL1        0.0382
     23 C          -6.8519   -0.1665   -0.8411 C.3     1  UNL1        0.0635
     24 O          -7.1215    1.1586   -1.0752 O.3     1  UNL1       -0.3767
     25 C          -6.2172    2.0493   -0.5528 C.3     1  UNL1        0.0635
     26 C          -4.7659    1.6724   -0.8663 C.3     1  UNL1        0.0382
     27 C          -0.1315   -0.6099    0.2364 C.ar    1  UNL1       -0.0484
     28 O           2.1392   -0.1075    1.7752 O.3     1  UNL1       -0.4771
     29 H           7.5074    0.3127   -2.1770 H       1  UNL1        0.1453
     30 H           8.2285    0.5767   -0.5482 H       1  UNL1        0.1453
     31 H           6.4013    2.2512   -0.1572 H       1  UNL1        0.0626
     32 H           4.7010    3.6172    1.0545 H       1  UNL1        0.0619
     33 H           2.7000    2.4686    1.9539 H       1  UNL1        0.0655
     34 H           3.5940   -2.3115    2.2781 H       1  UNL1        0.0738
     35 H           2.9030   -3.2922    0.9898 H       1  UNL1        0.0738
     36 H           1.2938   -1.8781    2.3126 H       1  UNL1        0.0820
     37 H           1.9841   -3.0238   -0.7764 H       1  UNL1        0.0833
     38 H          -1.4281   -1.4651   -2.7634 H       1  UNL1        0.0832
     39 H          -2.2887    0.5055   -2.0255 H       1  UNL1        0.0407
     40 H          -1.9078    1.2616   -0.4784 H       1  UNL1        0.0407
     41 H          -5.5657   -1.3575    0.4638 H       1  UNL1        0.0487
     42 H          -6.1012    0.2572    1.0902 H       1  UNL1        0.0487
     43 H          -7.7269   -0.7778   -0.5992 H       1  UNL1        0.0575
     44 H          -6.4265   -0.5879   -1.7891 H       1  UNL1        0.0575
     45 H          -6.3788    3.0257   -1.0551 H       1  UNL1        0.0575
     46 H          -6.3763    2.1937    0.5154 H       1  UNL1        0.0575
     47 H          -4.5366    1.7906   -1.9245 H       1  UNL1        0.0487
     48 H          -4.1539    2.4204   -0.2814 H       1  UNL1        0.0487
     49 H          -0.2981    0.0668    1.0702 H       1  UNL1        0.0625
@<TRIPOS>BOND
     1     1     2   am
     2     2     3    2
     3     2     4    1
     4     4     5   ar
     5     5     6   ar
     6     6     7   ar
     7     7     8   ar
     8     8     9   ar
     9     9    10    1
    10    10    11    1
    11    11    12    1
    12    12    13    1
    13    13    14   ar
    14    14    15   ar
    15    15    16   ar
    16    16    17   ar
    17    17    18    1
    18    18    19    1
    19    19    20    2
    20    19    21   am
    21    21    22    1
    22    22    23    1
    23    23    24    1
    24    24    25    1
    25    25    26    1
    26    17    27   ar
    27    12    28    1
    28     9     4   ar
    29    27    13   ar
    30    28     8    1
    31    26    21    1
    32     1    29    1
    33     1    30    1
    34     5    31    1
    35     6    32    1
    36     7    33    1
    37    11    34    1
    38    11    35    1
    39    12    36    1
    40    14    37    1
    41    16    38    1
    42    18    39    1
    43    18    40    1
    44    22    41    1
    45    22    42    1
    46    23    43    1
    47    23    44    1
    48    25    45    1
    49    25    46    1
    50    26    47    1
    51    26    48    1
    52    27    49    1
