
     RDKit          3D

 49 52  0  0  0  0  0  0  0  0999 V2000
    7.4485    0.2177   -1.1316 N   0  0  0  0  0  0  0  0  0  0  0  0
    6.2876   -0.4038   -0.6011 C   0  0  0  0  0  0  0  0  0  0  0  0
    6.1575   -1.6256   -0.7618 O   0  0  0  0  0  0  0  0  0  0  0  0
    5.3226    0.4390    0.0996 C   0  0  0  0  0  0  0  0  0  0  0  0
    5.5203    1.7890    0.2471 C   0  0  0  0  0  0  0  0  0  0  0  0
    4.5751    2.5283    0.9169 C   0  0  0  0  0  0  0  0  0  0  0  0
    3.4614    1.8907    1.4177 C   0  0  0  0  0  0  0  0  0  0  0  0
    3.2675    0.5282    1.2657 C   0  0  0  0  0  0  0  0  0  0  0  0
    4.2026   -0.2178    0.6004 C   0  0  0  0  0  0  0  0  0  0  0  0
    4.0188   -1.5753    0.4437 O   0  0  0  0  0  0  0  0  0  0  0  0
    3.0946   -2.2639    1.2641 C   0  0  0  0  0  0  0  0  0  0  0  0
    1.8110   -1.4655    1.4217 C   0  0  0  0  0  0  0  0  0  0  0  0
    0.9448   -1.5041    0.2403 C   0  0  0  0  0  0  0  0  0  0  0  0
    1.1437   -2.3555   -0.8226 C   0  0  0  0  0  0  0  0  0  0  0  0
    0.3002   -2.3456   -1.8964 N   0  0  0  0  0  0  0  0  0  0  0  0
   -0.7427   -1.4976   -1.9288 C   0  0  0  0  0  0  0  0  0  0  0  0
   -0.9566   -0.6380   -0.8726 C   0  0  0  0  0  0  0  0  0  0  0  0
   -2.1338    0.2875   -0.9589 C   0  0  0  0  0  0  0  0  0  0  0  0
   -3.3456   -0.3497   -0.3865 C   0  0  0  0  0  0  0  0  0  0  0  0
   -3.2368   -1.5135    0.0697 O   0  0  0  0  0  0  0  0  0  0  0  0
   -4.5777    0.3364   -0.3590 N   0  0  0  0  0  0  0  0  0  0  0  0
   -5.7384   -0.3118    0.2048 C   0  0  0  0  0  0  0  0  0  0  0  0
   -6.8519   -0.1665   -0.8411 C   0  0  0  0  0  0  0  0  0  0  0  0
   -7.1215    1.1586   -1.0752 O   0  0  0  0  0  0  0  0  0  0  0  0
   -6.2172    2.0493   -0.5528 C   0  0  0  0  0  0  0  0  0  0  0  0
   -4.7659    1.6724   -0.8663 C   0  0  0  0  0  0  0  0  0  0  0  0
   -0.1315   -0.6099    0.2364 C   0  0  0  0  0  0  0  0  0  0  0  0
    2.1392   -0.1075    1.7752 O   0  0  0  0  0  0  0  0  0  0  0  0
    7.5074    0.3127   -2.1770 H   0  0  0  0  0  0  0  0  0  0  0  0
    8.2285    0.5767   -0.5482 H   0  0  0  0  0  0  0  0  0  0  0  0
    6.4013    2.2512   -0.1572 H   0  0  0  0  0  0  0  0  0  0  0  0
    4.7010    3.6172    1.0545 H   0  0  0  0  0  0  0  0  0  0  0  0
    2.7000    2.4686    1.9539 H   0  0  0  0  0  0  0  0  0  0  0  0
    3.5940   -2.3115    2.2781 H   0  0  0  0  0  0  0  0  0  0  0  0
    2.9030   -3.2922    0.9898 H   0  0  0  0  0  0  0  0  0  0  0  0
    1.2938   -1.8781    2.3126 H   0  0  0  0  0  0  0  0  0  0  0  0
    1.9841   -3.0238   -0.7764 H   0  0  0  0  0  0  0  0  0  0  0  0
   -1.4281   -1.4651   -2.7634 H   0  0  0  0  0  0  0  0  0  0  0  0
   -2.2887    0.5055   -2.0255 H   0  0  0  0  0  0  0  0  0  0  0  0
   -1.9078    1.2616   -0.4784 H   0  0  0  0  0  0  0  0  0  0  0  0
   -5.5657   -1.3575    0.4638 H   0  0  0  0  0  0  0  0  0  0  0  0
   -6.1012    0.2572    1.0902 H   0  0  0  0  0  0  0  0  0  0  0  0
   -7.7269   -0.7778   -0.5992 H   0  0  0  0  0  0  0  0  0  0  0  0
   -6.4265   -0.5879   -1.7891 H   0  0  0  0  0  0  0  0  0  0  0  0
   -6.3788    3.0257   -1.0551 H   0  0  0  0  0  0  0  0  0  0  0  0
   -6.3763    2.1937    0.5154 H   0  0  0  0  0  0  0  0  0  0  0  0
   -4.5366    1.7906   -1.9245 H   0  0  0  0  0  0  0  0  0  0  0  0
   -4.1539    2.4204   -0.2814 H   0  0  0  0  0  0  0  0  0  0  0  0
   -0.2981    0.0668    1.0702 H   0  0  0  0  0  0  0  0  0  0  0  0
  1  2  1  0
  2  3  2  0
  2  4  1  0
  4  5  2  0
  5  6  1  0
  6  7  2  0
  7  8  1  0
  8  9  2  0
  9 10  1  0
 10 11  1  0
 11 12  1  0
 12 13  1  0
 13 14  2  0
 14 15  1  0
 15 16  2  0
 16 17  1  0
 17 18  1  0
 18 19  1  0
 19 20  2  0
 19 21  1  0
 21 22  1  0
 22 23  1  0
 23 24  1  0
 24 25  1  0
 25 26  1  0
 17 27  2  0
 12 28  1  0
  9  4  1  0
 27 13  1  0
 28  8  1  0
 26 21  1  0
  1 29  1  0
  1 30  1  0
  5 31  1  0
  6 32  1  0
  7 33  1  0
 11 34  1  0
 11 35  1  0
 12 36  1  0
 14 37  1  0
 16 38  1  0
 18 39  1  0
 18 40  1  0
 22 41  1  0
 22 42  1  0
 23 43  1  0
 23 44  1  0
 25 45  1  0
 25 46  1  0
 26 47  1  0
 26 48  1  0
 27 49  1  0
M  END
$$$$
