
     RDKit          3D

 41 44  0  0  0  0  0  0  0  0999 V2000
   -1.0353   -2.6833   -0.5831 C   0  0  0  0  0  0  0  0  0  0  0  0
    0.0961   -1.8653   -0.3153 N   0  0  0  0  0  0  0  0  0  0  0  0
    0.0208   -0.5424   -0.2311 C   0  0  0  0  0  0  0  0  0  0  0  0
   -1.2103    0.1220   -0.3998 N   0  0  0  0  0  0  0  0  0  0  0  0
   -1.6485    0.5049   -1.7494 C   0  0  0  0  0  0  0  0  0  0  0  0
   -2.4399    1.8147   -1.6700 C   0  0  0  0  0  0  0  0  0  0  0  0
   -3.5323    1.6908   -0.8145 O   0  0  0  0  0  0  0  0  0  0  0  0
   -3.4986    0.5223   -0.0829 C   0  0  2  0  0  0  0  0  0  0  0  0
   -4.3849    0.4866    1.1058 C   0  0  0  0  0  0  0  0  0  0  0  0
   -3.6036    0.1532    2.2314 O   0  0  0  0  0  0  0  0  0  0  0  0
   -2.4208   -0.4372    1.7096 C   0  0  0  0  0  0  0  0  0  0  0  0
   -2.1261    0.5120    0.6173 C   0  0  1  0  0  0  0  0  0  0  0  0
    1.1300    0.1836    0.0228 N   0  0  0  0  0  0  0  0  0  0  0  0
    2.3568   -0.3975    0.2013 C   0  0  0  0  0  0  0  0  0  0  0  0
    3.4892    0.4413    0.4684 C   0  0  0  0  0  0  0  0  0  0  0  0
    3.2722    1.8243    0.5286 C   0  0  0  0  0  0  0  0  0  0  0  0
    4.2636    2.7280    0.7756 C   0  0  0  0  0  0  0  0  0  0  0  0
    5.5303    2.2685    0.9746 N   0  0  0  0  0  0  0  0  0  0  0  0
    5.7694    0.9518    0.9231 C   0  0  0  0  0  0  0  0  0  0  0  0
    4.7714    0.0156    0.6726 C   0  0  0  0  0  0  0  0  0  0  0  0
    5.1173   -1.2808    0.6420 F   0  0  0  0  0  0  0  0  0  0  0  0
    2.4525   -1.7560    0.1182 C   0  0  0  0  0  0  0  0  0  0  0  0
    1.2952   -2.5020   -0.1459 C   0  0  0  0  0  0  0  0  0  0  0  0
    1.3571   -3.7490   -0.2270 O   0  0  0  0  0  0  0  0  0  0  0  0
   -1.1640   -3.3774    0.2787 H   0  0  0  0  0  0  0  0  0  0  0  0
   -0.8482   -3.3374   -1.4806 H   0  0  0  0  0  0  0  0  0  0  0  0
   -1.9317   -2.0664   -0.7561 H   0  0  0  0  0  0  0  0  0  0  0  0
   -0.7506    0.7437   -2.3562 H   0  0  0  0  0  0  0  0  0  0  0  0
   -2.1964   -0.2699   -2.2736 H   0  0  0  0  0  0  0  0  0  0  0  0
   -2.8413    1.9934   -2.6809 H   0  0  0  0  0  0  0  0  0  0  0  0
   -1.7761    2.6165   -1.3209 H   0  0  0  0  0  0  0  0  0  0  0  0
   -3.5820   -0.3396   -0.7456 H   0  0  0  0  0  0  0  0  0  0  0  0
   -5.1133   -0.3490    0.9962 H   0  0  0  0  0  0  0  0  0  0  0  0
   -4.9312    1.4361    1.2635 H   0  0  0  0  0  0  0  0  0  0  0  0
   -1.6875   -0.4277    2.5379 H   0  0  0  0  0  0  0  0  0  0  0  0
   -2.7240   -1.4324    1.3951 H   0  0  0  0  0  0  0  0  0  0  0  0
   -1.9149    1.5191    1.0413 H   0  0  0  0  0  0  0  0  0  0  0  0
    2.2739    2.2436    0.3759 H   0  0  0  0  0  0  0  0  0  0  0  0
    4.0568    3.7854    0.8137 H   0  0  0  0  0  0  0  0  0  0  0  0
    6.7683    0.5845    1.0796 H   0  0  0  0  0  0  0  0  0  0  0  0
    3.3410   -2.3283    0.2362 H   0  0  0  0  0  0  0  0  0  0  0  0
  1  2  1  0
  2  3  1  0
  3  4  1  0
  4  5  1  0
  5  6  1  0
  6  7  1  0
  7  8  1  0
  8  9  1  0
  9 10  1  0
 10 11  1  0
 11 12  1  0
  3 13  2  0
 13 14  1  0
 14 15  1  0
 15 16  2  0
 16 17  1  0
 17 18  2  0
 18 19  1  0
 19 20  2  0
 20 21  1  0
 14 22  2  0
 22 23  1  0
 23 24  2  0
 23  2  1  0
 12  4  1  0
 20 15  1  0
 12  8  1  0
  1 25  1  0
  1 26  1  0
  1 27  1  0
  5 28  1  0
  5 29  1  0
  6 30  1  0
  6 31  1  0
  8 32  1  6
  9 33  1  0
  9 34  1  0
 11 35  1  0
 11 36  1  0
 12 37  1  1
 16 38  1  0
 17 39  1  0
 19 40  1  0
 22 41  1  0
M  END
$$$$
