@<TRIPOS>MOLECULE
*****
 41 44 0 0 0
SMALL
GASTEIGER

@<TRIPOS>ATOM
      1 C          -1.0353   -2.6833   -0.5831 C.3     1  UNL1        0.0178
      2 N           0.0961   -1.8653   -0.3153 N.ar    1  UNL1       -0.2839
      3 C           0.0208   -0.5424   -0.2311 C.ar    1  UNL1        0.2016
      4 N          -1.2103    0.1220   -0.3998 N.pl3   1  UNL1       -0.2909
      5 C          -1.6485    0.5049   -1.7494 C.3     1  UNL1        0.0387
      6 C          -2.4399    1.8147   -1.6700 C.3     1  UNL1        0.0640
      7 O          -3.5323    1.6908   -0.8145 O.3     1  UNL1       -0.3708
      8 C          -3.4986    0.5223   -0.0829 C.3     1  UNL1        0.1026
      9 C          -4.3849    0.4866    1.1058 C.3     1  UNL1        0.0757
     10 O          -3.6036    0.1532    2.2314 O.3     1  UNL1       -0.3752
     11 C          -2.4208   -0.4372    1.7096 C.3     1  UNL1        0.0688
     12 C          -2.1261    0.5120    0.6173 C.3     1  UNL1        0.0778
     13 N           1.1300    0.1836    0.0228 N.ar    1  UNL1       -0.2154
     14 C           2.3568   -0.3975    0.2013 C.ar    1  UNL1        0.0825
     15 C           3.4892    0.4413    0.4684 C.ar    1  UNL1        0.0387
     16 C           3.2722    1.8243    0.5286 C.ar    1  UNL1       -0.0316
     17 C           4.2636    2.7280    0.7756 C.ar    1  UNL1        0.0284
     18 N           5.5303    2.2685    0.9746 N.ar    1  UNL1       -0.2604
     19 C           5.7694    0.9518    0.9231 C.ar    1  UNL1        0.0634
     20 C           4.7714    0.0156    0.6726 C.ar    1  UNL1        0.1505
     21 F           5.1173   -1.2808    0.6420 F       1  UNL1       -0.2032
     22 C           2.4525   -1.7560    0.1182 C.ar    1  UNL1        0.0292
     23 C           1.2952   -2.5020   -0.1459 C.ar    1  UNL1        0.2555
     24 O           1.3571   -3.7490   -0.2270 O.2     1  UNL1       -0.2675
     25 H          -1.1640   -3.3774    0.2787 H       1  UNL1        0.0458
     26 H          -0.8482   -3.3374   -1.4806 H       1  UNL1        0.0458
     27 H          -1.9317   -2.0664   -0.7561 H       1  UNL1        0.0458
     28 H          -0.7506    0.7437   -2.3562 H       1  UNL1        0.0487
     29 H          -2.1964   -0.2699   -2.2736 H       1  UNL1        0.0487
     30 H          -2.8413    1.9934   -2.6809 H       1  UNL1        0.0575
     31 H          -1.7761    2.6165   -1.3209 H       1  UNL1        0.0575
     32 H          -3.5820   -0.3396   -0.7456 H       1  UNL1        0.0638
     33 H          -5.1133   -0.3490    0.9962 H       1  UNL1        0.0586
     34 H          -4.9312    1.4361    1.2635 H       1  UNL1        0.0586
     35 H          -1.6875   -0.4277    2.5379 H       1  UNL1        0.0579
     36 H          -2.7240   -1.4324    1.3951 H       1  UNL1        0.0579
     37 H          -1.9149    1.5191    1.0413 H       1  UNL1        0.0550
     38 H           2.2739    2.2436    0.3759 H       1  UNL1        0.0640
     39 H           4.0568    3.7854    0.8137 H       1  UNL1        0.0830
     40 H           6.7683    0.5845    1.0796 H       1  UNL1        0.0859
     41 H           3.3410   -2.3283    0.2362 H       1  UNL1        0.0693
@<TRIPOS>BOND
     1     1     2    1
     2     2     3   ar
     3     3     4    1
     4     4     5    1
     5     5     6    1
     6     6     7    1
     7     7     8    1
     8     8     9    1
     9     9    10    1
    10    10    11    1
    11    11    12    1
    12     3    13   ar
    13    13    14   ar
    14    14    15    1
    15    15    16   ar
    16    16    17   ar
    17    17    18   ar
    18    18    19   ar
    19    19    20   ar
    20    20    21    1
    21    14    22   ar
    22    22    23   ar
    23    23    24    2
    24    23     2   ar
    25    12     4    1
    26    20    15   ar
    27    12     8    1
    28     1    25    1
    29     1    26    1
    30     1    27    1
    31     5    28    1
    32     5    29    1
    33     6    30    1
    34     6    31    1
    35     8    32    1
    36     9    33    1
    37     9    34    1
    38    11    35    1
    39    11    36    1
    40    12    37    1
    41    16    38    1
    42    17    39    1
    43    19    40    1
    44    22    41    1
