@<TRIPOS>MOLECULE
*****
 46 48 0 0 0
SMALL
GASTEIGER

@<TRIPOS>ATOM
      1 C           5.0304   -1.9975   -0.4467 C.3     1  UNL1       -0.0375
      2 C           5.3722   -0.5565   -0.3174 C.ar    1  UNL1       -0.0186
      3 C           6.6779   -0.1833   -0.6475 C.ar    1  UNL1       -0.0368
      4 C           7.0400    1.1284   -0.5451 C.ar    1  UNL1        0.0593
      5 CL          8.6943    1.5812   -0.9665 Cl      1  UNL1       -0.0820
      6 C           6.1147    2.0588   -0.1195 C.ar    1  UNL1        0.0467
      7 N           4.8570    1.6590    0.1920 N.ar    1  UNL1       -0.2486
      8 C           4.4633    0.3828    0.1047 C.ar    1  UNL1        0.1286
      9 C           3.1178   -0.0496    0.4372 C.2     1  UNL1        0.2669
     10 O           2.7542   -1.2466    0.3536 O.2     1  UNL1       -0.2682
     11 N           2.1124    0.8754    0.8858 N.am    1  UNL1       -0.2789
     12 C           0.7957    0.4728    1.2144 C.ar    1  UNL1        0.0525
     13 C           0.5157    0.0993    2.5117 C.ar    1  UNL1        0.0519
     14 N          -0.7414   -0.2926    2.8580 N.ar    1  UNL1       -0.2255
     15 C          -1.7169   -0.3123    1.9133 C.ar    1  UNL1        0.2188
     16 F          -2.9415   -0.6998    2.2726 F       1  UNL1       -0.1835
     17 C          -1.4835    0.0507    0.6118 C.ar    1  UNL1        0.0359
     18 C          -2.5965    0.0037   -0.3544 C.3     1  UNL1        0.0966
     19 C          -1.9643    0.2432   -1.7428 C.3     1  UNL1       -0.0352
     20 C          -3.6246    1.0560   -0.1383 C.3     1  UNL1        0.0224
     21 C          -4.9384    0.5935    0.3984 C.3     1  UNL1        0.1997
     22 C          -6.1093    1.3518   -0.2421 C.3     1  UNL1        0.4266
     23 F          -6.1338    1.1709   -1.6043 F       1  UNL1       -0.1669
     24 F          -7.2599    0.7666    0.2801 F       1  UNL1       -0.1669
     25 F          -6.0749    2.6557    0.1466 F       1  UNL1       -0.1669
     26 O          -5.1901   -0.7612    0.2218 O.2     1  UNL1       -0.4534
     27 C          -4.2749   -1.7043   -0.1584 C.2     1  UNL1        0.2765
     28 N          -4.6046   -3.0954   -0.2738 N.pl3   1  UNL1       -0.3134
     29 N          -3.0844   -1.3473   -0.4220 N.2     1  UNL1       -0.2256
     30 C          -0.2174    0.4489    0.2484 C.ar    1  UNL1       -0.0292
     31 H           5.8943   -2.5807   -0.8155 H       1  UNL1        0.0278
     32 H           4.2395   -2.1049   -1.2251 H       1  UNL1        0.0278
     33 H           4.7459   -2.4464    0.5275 H       1  UNL1        0.0278
     34 H           7.3805   -0.9299   -0.9771 H       1  UNL1        0.0636
     35 H           6.4394    3.0836   -0.0520 H       1  UNL1        0.0844
     36 H           2.3972    1.8729    0.9608 H       1  UNL1        0.1552
     37 H           1.3186    0.1289    3.2320 H       1  UNL1        0.0849
     38 H          -1.1607   -0.5081   -1.8916 H       1  UNL1        0.0256
     39 H          -2.7563   -0.0220   -2.5014 H       1  UNL1        0.0256
     40 H          -1.6377    1.2810   -1.8520 H       1  UNL1        0.0256
     41 H          -3.8332    1.6031   -1.0835 H       1  UNL1        0.0330
     42 H          -3.1542    1.8363    0.5314 H       1  UNL1        0.0330
     43 H          -4.9870    0.8712    1.4821 H       1  UNL1        0.0826
     44 H          -3.9120   -3.8328   -0.0722 H       1  UNL1        0.1466
     45 H          -5.5580   -3.3410   -0.5652 H       1  UNL1        0.1466
     46 H          -0.0058    0.7366   -0.7555 H       1  UNL1        0.0641
@<TRIPOS>BOND
     1     1     2    1
     2     2     3   ar
     3     3     4   ar
     4     4     5    1
     5     4     6   ar
     6     6     7   ar
     7     7     8   ar
     8     8     9    1
     9     9    10    2
    10     9    11   am
    11    11    12    1
    12    12    13   ar
    13    13    14   ar
    14    14    15   ar
    15    15    16    1
    16    15    17   ar
    17    17    18    1
    18    18    19    1
    19    18    20    1
    20    20    21    1
    21    21    22    1
    22    22    23    1
    23    22    24    1
    24    22    25    1
    25    21    26    1
    26    26    27    1
    27    27    28    1
    28    27    29    2
    29    17    30   ar
    30     8     2   ar
    31    30    12   ar
    32    29    18    1
    33     1    31    1
    34     1    32    1
    35     1    33    1
    36     3    34    1
    37     6    35    1
    38    11    36    1
    39    13    37    1
    40    19    38    1
    41    19    39    1
    42    19    40    1
    43    20    41    1
    44    20    42    1
    45    21    43    1
    46    28    44    1
    47    28    45    1
    48    30    46    1
