
     RDKit          3D

 46 48  0  0  0  0  0  0  0  0999 V2000
    5.0304   -1.9975   -0.4467 C   0  0  0  0  0  0  0  0  0  0  0  0
    5.3722   -0.5565   -0.3174 C   0  0  0  0  0  0  0  0  0  0  0  0
    6.6779   -0.1833   -0.6475 C   0  0  0  0  0  0  0  0  0  0  0  0
    7.0400    1.1284   -0.5451 C   0  0  0  0  0  0  0  0  0  0  0  0
    8.6943    1.5812   -0.9665 Cl  0  0  0  0  0  0  0  0  0  0  0  0
    6.1147    2.0588   -0.1195 C   0  0  0  0  0  0  0  0  0  0  0  0
    4.8570    1.6590    0.1920 N   0  0  0  0  0  0  0  0  0  0  0  0
    4.4633    0.3828    0.1047 C   0  0  0  0  0  0  0  0  0  0  0  0
    3.1178   -0.0496    0.4372 C   0  0  0  0  0  0  0  0  0  0  0  0
    2.7542   -1.2466    0.3536 O   0  0  0  0  0  0  0  0  0  0  0  0
    2.1124    0.8754    0.8858 N   0  0  0  0  0  0  0  0  0  0  0  0
    0.7957    0.4728    1.2144 C   0  0  0  0  0  0  0  0  0  0  0  0
    0.5157    0.0993    2.5117 C   0  0  0  0  0  0  0  0  0  0  0  0
   -0.7414   -0.2926    2.8580 N   0  0  0  0  0  0  0  0  0  0  0  0
   -1.7169   -0.3123    1.9133 C   0  0  0  0  0  0  0  0  0  0  0  0
   -2.9415   -0.6998    2.2726 F   0  0  0  0  0  0  0  0  0  0  0  0
   -1.4835    0.0507    0.6118 C   0  0  0  0  0  0  0  0  0  0  0  0
   -2.5965    0.0037   -0.3544 C   0  0  2  0  0  0  0  0  0  0  0  0
   -1.9643    0.2432   -1.7428 C   0  0  0  0  0  0  0  0  0  0  0  0
   -3.6246    1.0560   -0.1383 C   0  0  0  0  0  0  0  0  0  0  0  0
   -4.9384    0.5935    0.3984 C   0  0  1  0  0  0  0  0  0  0  0  0
   -6.1093    1.3518   -0.2421 C   0  0  0  0  0  0  0  0  0  0  0  0
   -6.1338    1.1709   -1.6043 F   0  0  0  0  0  0  0  0  0  0  0  0
   -7.2599    0.7666    0.2801 F   0  0  0  0  0  0  0  0  0  0  0  0
   -6.0749    2.6557    0.1466 F   0  0  0  0  0  0  0  0  0  0  0  0
   -5.1901   -0.7612    0.2218 O   0  0  0  0  0  0  0  0  0  0  0  0
   -4.2749   -1.7043   -0.1584 C   0  0  0  0  0  0  0  0  0  0  0  0
   -4.6046   -3.0954   -0.2738 N   0  0  0  0  0  0  0  0  0  0  0  0
   -3.0844   -1.3473   -0.4220 N   0  0  0  0  0  0  0  0  0  0  0  0
   -0.2174    0.4489    0.2484 C   0  0  0  0  0  0  0  0  0  0  0  0
    5.8943   -2.5807   -0.8155 H   0  0  0  0  0  0  0  0  0  0  0  0
    4.2395   -2.1049   -1.2251 H   0  0  0  0  0  0  0  0  0  0  0  0
    4.7459   -2.4464    0.5275 H   0  0  0  0  0  0  0  0  0  0  0  0
    7.3805   -0.9299   -0.9771 H   0  0  0  0  0  0  0  0  0  0  0  0
    6.4394    3.0836   -0.0520 H   0  0  0  0  0  0  0  0  0  0  0  0
    2.3972    1.8729    0.9608 H   0  0  0  0  0  0  0  0  0  0  0  0
    1.3186    0.1289    3.2320 H   0  0  0  0  0  0  0  0  0  0  0  0
   -1.1607   -0.5081   -1.8916 H   0  0  0  0  0  0  0  0  0  0  0  0
   -2.7563   -0.0220   -2.5014 H   0  0  0  0  0  0  0  0  0  0  0  0
   -1.6377    1.2810   -1.8520 H   0  0  0  0  0  0  0  0  0  0  0  0
   -3.8332    1.6031   -1.0835 H   0  0  0  0  0  0  0  0  0  0  0  0
   -3.1542    1.8363    0.5314 H   0  0  0  0  0  0  0  0  0  0  0  0
   -4.9870    0.8712    1.4821 H   0  0  0  0  0  0  0  0  0  0  0  0
   -3.9120   -3.8328   -0.0722 H   0  0  0  0  0  0  0  0  0  0  0  0
   -5.5580   -3.3410   -0.5652 H   0  0  0  0  0  0  0  0  0  0  0  0
   -0.0058    0.7366   -0.7555 H   0  0  0  0  0  0  0  0  0  0  0  0
  1  2  1  0
  2  3  2  0
  3  4  1  0
  4  5  1  0
  4  6  2  0
  6  7  1  0
  7  8  2  0
  8  9  1  0
  9 10  2  0
  9 11  1  0
 11 12  1  0
 12 13  2  0
 13 14  1  0
 14 15  2  0
 15 16  1  0
 15 17  1  0
 17 18  1  0
 18 19  1  6
 18 20  1  0
 20 21  1  0
 21 22  1  0
 22 23  1  0
 22 24  1  0
 22 25  1  0
 21 26  1  0
 26 27  1  0
 27 28  1  0
 27 29  2  0
 17 30  2  0
  8  2  1  0
 30 12  1  0
 29 18  1  0
  1 31  1  0
  1 32  1  0
  1 33  1  0
  3 34  1  0
  6 35  1  0
 11 36  1  0
 13 37  1  0
 19 38  1  0
 19 39  1  0
 19 40  1  0
 20 41  1  0
 20 42  1  0
 21 43  1  1
 28 44  1  0
 28 45  1  0
 30 46  1  0
M  END
$$$$
