
     RDKit          3D

 33 34  0  0  0  0  0  0  0  0999 V2000
    3.6398    1.6602    0.1951 C   0  0  0  0  0  0  0  0  0  0  0  0
    2.8105    0.4898    0.4602 N   0  0  0  0  0  0  0  0  0  0  0  0
    3.3058   -0.8441    0.7103 C   0  0  0  0  0  0  0  0  0  0  0  0
    4.5348   -0.9912    0.6917 O   0  0  0  0  0  0  0  0  0  0  0  0
    2.3181   -1.8700    0.9564 N   0  0  0  0  0  0  0  0  0  0  0  0
    0.8890   -1.6551    0.9693 C   0  0  0  0  0  0  0  0  0  0  0  0
    0.4002   -2.5412    1.7326 O   0  0  0  0  0  0  0  0  0  0  0  0
    0.5232   -0.5040    0.1052 C   0  0  0  0  0  0  0  0  0  0  0  0
    0.8601   -0.8646   -1.3496 C   0  0  0  0  0  0  0  0  0  0  0  0
    1.3927    0.6260    0.4876 C   0  0  0  0  0  0  0  0  0  0  0  0
    0.8666    1.7129    0.8384 O   0  0  0  0  0  0  0  0  0  0  0  0
   -0.9057   -0.2078    0.1454 C   0  0  0  0  0  0  0  0  0  0  0  0
   -1.9483   -0.7358    0.7832 C   0  0  0  0  0  0  0  0  0  0  0  0
   -3.3764   -0.3680    0.7647 C   0  0  0  0  0  0  0  0  0  0  0  0
   -3.6527    0.8085   -0.1466 C   0  0  0  0  0  0  0  0  0  0  0  0
   -2.6757    0.6776   -1.2969 C   0  0  0  0  0  0  0  0  0  0  0  0
   -1.2916    0.9600   -0.7313 C   0  0  0  0  0  0  0  0  0  0  0  0
    4.6442    1.4312    0.6472 H   0  0  0  0  0  0  0  0  0  0  0  0
    3.8363    1.7987   -0.8906 H   0  0  0  0  0  0  0  0  0  0  0  0
    3.2369    2.5598    0.6597 H   0  0  0  0  0  0  0  0  0  0  0  0
    2.8226   -2.7797    1.1205 H   0  0  0  0  0  0  0  0  0  0  0  0
    1.1258    0.0549   -1.9072 H   0  0  0  0  0  0  0  0  0  0  0  0
    1.6983   -1.5771   -1.3825 H   0  0  0  0  0  0  0  0  0  0  0  0
   -0.0011   -1.3601   -1.8258 H   0  0  0  0  0  0  0  0  0  0  0  0
   -1.6542   -1.5708    1.4080 H   0  0  0  0  0  0  0  0  0  0  0  0
   -3.6467   -0.1276    1.8250 H   0  0  0  0  0  0  0  0  0  0  0  0
   -3.9711   -1.2395    0.4213 H   0  0  0  0  0  0  0  0  0  0  0  0
   -3.4599    1.7183    0.4397 H   0  0  0  0  0  0  0  0  0  0  0  0
   -4.7026    0.7022   -0.4943 H   0  0  0  0  0  0  0  0  0  0  0  0
   -2.9727    1.4116   -2.0409 H   0  0  0  0  0  0  0  0  0  0  0  0
   -2.6793   -0.3700   -1.6788 H   0  0  0  0  0  0  0  0  0  0  0  0
   -1.3650    1.8592   -0.0910 H   0  0  0  0  0  0  0  0  0  0  0  0
   -0.6021    1.1360   -1.5555 H   0  0  0  0  0  0  0  0  0  0  0  0
  1  2  1  0
  2  3  1  0
  3  4  2  0
  3  5  1  0
  5  6  1  0
  6  7  2  0
  6  8  1  0
  8  9  1  0
  8 10  1  0
 10 11  2  0
  8 12  1  0
 12 13  2  0
 13 14  1  0
 14 15  1  0
 15 16  1  0
 16 17  1  0
 10  2  1  0
 17 12  1  0
  1 18  1  0
  1 19  1  0
  1 20  1  0
  5 21  1  0
  9 22  1  0
  9 23  1  0
  9 24  1  0
 13 25  1  0
 14 26  1  0
 14 27  1  0
 15 28  1  0
 15 29  1  0
 16 30  1  0
 16 31  1  0
 17 32  1  0
 17 33  1  0
M  END
$$$$
