@<TRIPOS>MOLECULE
*****
 76 80 0 0 0
SMALL
GASTEIGER

@<TRIPOS>ATOM
      1 C          -4.0030   -5.7230   -0.5683 C.3     1  UNL1       -0.0397
      2 C          -4.2143   -4.2636   -0.3118 C.ar    1  UNL1       -0.0503
      3 C          -4.6604   -3.7911    0.8972 C.ar    1  UNL1       -0.0568
      4 C          -4.8430   -2.4339    1.0936 C.ar    1  UNL1       -0.0359
      5 C          -4.5879   -1.5158    0.0967 C.ar    1  UNL1        0.0674
      6 N          -4.7752   -0.1218    0.2999 N.ar    1  UNL1       -0.2181
      7 N          -5.8493    0.5574   -0.0619 N.ar    1  UNL1       -0.1691
      8 C          -5.7058    1.8592    0.2744 C.ar    1  UNL1        0.0706
      9 C          -6.6719    2.9741    0.0540 C.3     1  UNL1        0.0063
     10 C          -7.5908    3.0943    1.2520 C.3     1  UNL1       -0.0546
     11 C          -7.5012    2.7566   -1.1896 C.3     1  UNL1       -0.0546
     12 C          -5.9300    4.2800   -0.1240 C.3     1  UNL1       -0.0546
     13 C          -4.4660    1.9480    0.8727 C.ar    1  UNL1        0.0021
     14 C          -3.8721    0.6819    0.8886 C.ar    1  UNL1        0.1299
     15 N          -2.5927    0.3509    1.4185 N.am    1  UNL1       -0.2538
     16 C          -1.3929    0.3679    0.6888 C.2     1  UNL1        0.3092
     17 O          -1.4502    0.6991   -0.5269 O.2     1  UNL1       -0.2521
     18 N          -0.1709    0.0185    1.3256 N.am    1  UNL1       -0.2686
     19 C           1.0310    0.0395    0.5662 C.ar    1  UNL1        0.0427
     20 C           1.5149   -1.0241   -0.1195 C.ar    1  UNL1       -0.0364
     21 C           2.6995   -0.9587   -0.8537 C.ar    1  UNL1       -0.0176
     22 C           3.4426    0.2068   -0.9152 C.ar    1  UNL1        0.1283
     23 O           4.5911    0.3945   -1.5845 O.3     1  UNL1       -0.4901
     24 C           5.4188   -0.3547   -2.3620 C.3     1  UNL1        0.1023
     25 C           6.0253   -1.5040   -1.5911 C.3     1  UNL1        0.0333
     26 N           6.7926   -0.9985   -0.4751 N.3     1  UNL1       -0.2948
     27 C           7.9690   -0.3063   -0.8412 C.3     1  UNL1        0.0225
     28 C           9.1459   -1.0452   -0.1896 C.3     1  UNL1        0.0604
     29 O           8.9696   -0.8821    1.1781 O.3     1  UNL1       -0.3772
     30 C           7.8758   -1.5738    1.6632 C.3     1  UNL1        0.0604
     31 C           6.8269   -1.8608    0.6387 C.3     1  UNL1        0.0225
     32 C           2.9345    1.3064   -0.2020 C.ar    1  UNL1        0.0256
     33 C           3.6495    2.4823   -0.2445 C.ar    1  UNL1       -0.0505
     34 C           3.1717    3.5915    0.4512 C.ar    1  UNL1       -0.0611
     35 C           2.0059    3.4857    1.1586 C.ar    1  UNL1       -0.0611
     36 C           1.2835    2.3194    1.2095 C.ar    1  UNL1       -0.0521
     37 C           1.7509    1.2195    0.5236 C.ar    1  UNL1        0.0069
     38 C          -4.1380   -2.0021   -1.1198 C.ar    1  UNL1       -0.0359
     39 C          -3.9561   -3.3556   -1.3149 C.ar    1  UNL1       -0.0568
     40 H          -4.3333   -5.9299   -1.6266 H       1  UNL1        0.0278
     41 H          -4.5521   -6.3383    0.1649 H       1  UNL1        0.0278
     42 H          -2.8981   -5.8877   -0.4873 H       1  UNL1        0.0278
     43 H          -4.8571   -4.5206    1.6725 H       1  UNL1        0.0621
     44 H          -5.1944   -2.0557    2.0442 H       1  UNL1        0.0639
     45 H          -8.5022    2.4828    1.0988 H       1  UNL1        0.0239
     46 H          -7.0389    2.6575    2.1342 H       1  UNL1        0.0239
     47 H          -7.8229    4.1686    1.4104 H       1  UNL1        0.0239
     48 H          -7.7137    1.6818   -1.3780 H       1  UNL1        0.0239
     49 H          -8.5074    3.2235   -0.9837 H       1  UNL1        0.0239
     50 H          -7.1077    3.2801   -2.0714 H       1  UNL1        0.0239
     51 H          -5.1983    4.4682    0.6752 H       1  UNL1        0.0239
     52 H          -6.6870    5.0950   -0.0712 H       1  UNL1        0.0239
     53 H          -5.4798    4.3585   -1.1505 H       1  UNL1        0.0239
     54 H          -4.0001    2.8574    1.2793 H       1  UNL1        0.0671
     55 H          -2.5488    0.0724    2.4417 H       1  UNL1        0.1578
     56 H          -0.1366   -0.2511    2.3317 H       1  UNL1        0.1564
     57 H           0.9834   -1.9640   -0.1126 H       1  UNL1        0.0637
     58 H           3.0526   -1.8229   -1.4044 H       1  UNL1        0.0655
     59 H           4.9439   -0.7268   -3.3061 H       1  UNL1        0.0709
     60 H           6.3025    0.2973   -2.6480 H       1  UNL1        0.0709
     61 H           6.7058   -2.0890   -2.2687 H       1  UNL1        0.0460
     62 H           5.2911   -2.2145   -1.1777 H       1  UNL1        0.0460
     63 H           7.9842    0.7266   -0.4408 H       1  UNL1        0.0449
     64 H           8.0873   -0.3233   -1.9547 H       1  UNL1        0.0449
     65 H           9.1456   -2.1138   -0.4980 H       1  UNL1        0.0572
     66 H          10.0583   -0.5145   -0.4928 H       1  UNL1        0.0572
     67 H           7.4169   -0.9449    2.4548 H       1  UNL1        0.0572
     68 H           8.2562   -2.4844    2.1718 H       1  UNL1        0.0572
     69 H           7.0300   -2.9061    0.2565 H       1  UNL1        0.0449
     70 H           5.8075   -1.9223    1.0834 H       1  UNL1        0.0449
     71 H           4.5855    2.5618   -0.8135 H       1  UNL1        0.0625
     72 H           3.7296    4.5231    0.4224 H       1  UNL1        0.0618
     73 H           1.6460    4.3647    1.6978 H       1  UNL1        0.0618
     74 H           0.3680    2.2423    1.7667 H       1  UNL1        0.0624
     75 H          -3.9431   -1.2608   -1.8899 H       1  UNL1        0.0639
     76 H          -3.6006   -3.7094   -2.2859 H       1  UNL1        0.0621
@<TRIPOS>BOND
     1     1     2    1
     2     2     3   ar
     3     3     4   ar
     4     4     5   ar
     5     5     6    1
     6     6     7   ar
     7     7     8   ar
     8     8     9    1
     9     9    10    1
    10     9    11    1
    11     9    12    1
    12     8    13   ar
    13    13    14   ar
    14    14    15    1
    15    15    16   am
    16    16    17    2
    17    16    18   am
    18    18    19    1
    19    19    20   ar
    20    20    21   ar
    21    21    22   ar
    22    22    23    1
    23    23    24    1
    24    24    25    1
    25    25    26    1
    26    26    27    1
    27    27    28    1
    28    28    29    1
    29    29    30    1
    30    30    31    1
    31    22    32   ar
    32    32    33   ar
    33    33    34   ar
    34    34    35   ar
    35    35    36   ar
    36    36    37   ar
    37     5    38   ar
    38    38    39   ar
    39    39     2   ar
    40    14     6   ar
    41    37    19   ar
    42    31    26    1
    43    37    32   ar
    44     1    40    1
    45     1    41    1
    46     1    42    1
    47     3    43    1
    48     4    44    1
    49    10    45    1
    50    10    46    1
    51    10    47    1
    52    11    48    1
    53    11    49    1
    54    11    50    1
    55    12    51    1
    56    12    52    1
    57    12    53    1
    58    13    54    1
    59    15    55    1
    60    18    56    1
    61    20    57    1
    62    21    58    1
    63    24    59    1
    64    24    60    1
    65    25    61    1
    66    25    62    1
    67    27    63    1
    68    27    64    1
    69    28    65    1
    70    28    66    1
    71    30    67    1
    72    30    68    1
    73    31    69    1
    74    31    70    1
    75    33    71    1
    76    34    72    1
    77    35    73    1
    78    36    74    1
    79    38    75    1
    80    39    76    1
