@<TRIPOS>MOLECULE
*****
 53 56 0 0 0
SMALL
GASTEIGER

@<TRIPOS>ATOM
      1 C          -3.3261    0.4601   -3.8812 C.3     1  UNL1        0.0833
      2 O          -2.7842    0.6299   -2.5977 O.3     1  UNL1       -0.4523
      3 C          -3.5594    0.3523   -1.4898 C.2     1  UNL1        0.4238
      4 O          -4.7357   -0.0470   -1.6707 O.2     1  UNL1       -0.2242
      5 N          -3.0692    0.5040   -0.1784 N.am    1  UNL1       -0.1532
      6 N          -1.7613    0.9480    0.0114 N.am    1  UNL1       -0.2205
      7 C          -0.6544    0.0807    0.1036 C.2     1  UNL1        0.2649
      8 O          -0.9110   -1.1655   -0.0194 O.2     1  UNL1       -0.2685
      9 C           0.7215    0.4642    0.3111 C.ar    1  UNL1        0.0910
     10 C           1.7163   -0.1385   -0.4796 C.ar    1  UNL1        0.1587
     11 O           1.3895   -1.0530   -1.4262 O.3     1  UNL1       -0.4922
     12 C           1.2887   -2.4359   -1.2683 C.3     1  UNL1        0.0789
     13 C           3.0085    0.2287   -0.2596 C.ar    1  UNL1        0.1139
     14 C           4.0433   -0.3965   -1.0812 C.ar    1  UNL1        0.0040
     15 C           5.1978   -0.8589   -0.4845 C.ar    1  UNL1       -0.0524
     16 C           6.2032   -1.4600   -1.2422 C.ar    1  UNL1       -0.0611
     17 C           6.0820   -1.6140   -2.6073 C.ar    1  UNL1       -0.0617
     18 C           4.9263   -1.1506   -3.2007 C.ar    1  UNL1       -0.0611
     19 C           3.9203   -0.5497   -2.4470 C.ar    1  UNL1       -0.0524
     20 N           3.3427    1.1368    0.6799 N.ar    1  UNL1       -0.2430
     21 C           2.4034    1.7278    1.4541 C.ar    1  UNL1        0.0726
     22 C           2.7598    2.6364    2.4345 C.ar    1  UNL1       -0.0357
     23 C           1.8471    3.2407    3.2668 C.ar    1  UNL1       -0.0597
     24 C           0.5209    2.9106    3.1000 C.ar    1  UNL1       -0.0611
     25 C           0.1532    1.9949    2.1122 C.ar    1  UNL1       -0.0517
     26 C           1.0587    1.3883    1.2728 C.ar    1  UNL1        0.0161
     27 C          -3.8972    0.2085    0.9251 C.ar    1  UNL1        0.0593
     28 C          -4.6892    1.2007    1.4776 C.ar    1  UNL1       -0.0385
     29 C          -5.5188    0.9746    2.5555 C.ar    1  UNL1       -0.0599
     30 C          -5.5606   -0.2760    3.0987 C.ar    1  UNL1       -0.0616
     31 C          -4.7970   -1.2998    2.5926 C.ar    1  UNL1       -0.0599
     32 C          -3.9787   -1.0387    1.5143 C.ar    1  UNL1       -0.0385
     33 H          -4.3669    0.8518   -3.9090 H       1  UNL1        0.0661
     34 H          -2.7545    1.0638   -4.6420 H       1  UNL1        0.0661
     35 H          -3.3222   -0.6216   -4.1696 H       1  UNL1        0.0661
     36 H          -1.6583    2.0034    0.0400 H       1  UNL1        0.1738
     37 H           2.1662   -2.8886   -1.8135 H       1  UNL1        0.0660
     38 H           0.3959   -2.8796   -1.7364 H       1  UNL1        0.0660
     39 H           1.4201   -2.7363   -0.2057 H       1  UNL1        0.0660
     40 H           5.3095   -0.7457    0.5891 H       1  UNL1        0.0624
     41 H           7.1199   -1.8281   -0.7748 H       1  UNL1        0.0618
     42 H           6.8674   -2.0796   -3.1731 H       1  UNL1        0.0618
     43 H           4.7838   -1.2480   -4.2678 H       1  UNL1        0.0618
     44 H           3.0045   -0.1783   -2.8904 H       1  UNL1        0.0624
     45 H           3.8215    2.8661    2.5298 H       1  UNL1        0.0639
     46 H           2.1468    3.9576    4.0363 H       1  UNL1        0.0618
     47 H          -0.1987    3.3694    3.7384 H       1  UNL1        0.0618
     48 H          -0.8848    1.7293    2.0369 H       1  UNL1        0.0624
     49 H          -4.6312    2.1845    1.0202 H       1  UNL1        0.0637
     50 H          -6.0936    1.8088    2.9115 H       1  UNL1        0.0618
     51 H          -6.2321   -0.4162    3.9544 H       1  UNL1        0.0618
     52 H          -4.8693   -2.2615    3.0581 H       1  UNL1        0.0618
     53 H          -3.3644   -1.8223    1.0912 H       1  UNL1        0.0637
@<TRIPOS>BOND
     1     1     2    1
     2     2     3    1
     3     3     4    2
     4     3     5   am
     5     5     6    1
     6     6     7   am
     7     7     8    2
     8     7     9    1
     9     9    10   ar
    10    10    11    1
    11    11    12    1
    12    10    13   ar
    13    13    14    1
    14    14    15   ar
    15    15    16   ar
    16    16    17   ar
    17    17    18   ar
    18    18    19   ar
    19    13    20   ar
    20    20    21   ar
    21    21    22   ar
    22    22    23   ar
    23    23    24   ar
    24    24    25   ar
    25    25    26   ar
    26     5    27    1
    27    27    28   ar
    28    28    29   ar
    29    29    30   ar
    30    30    31   ar
    31    31    32   ar
    32    26     9   ar
    33    32    27   ar
    34    19    14   ar
    35    26    21   ar
    36     1    33    1
    37     1    34    1
    38     1    35    1
    39     6    36    1
    40    12    37    1
    41    12    38    1
    42    12    39    1
    43    15    40    1
    44    16    41    1
    45    17    42    1
    46    18    43    1
    47    19    44    1
    48    22    45    1
    49    23    46    1
    50    24    47    1
    51    25    48    1
    52    28    49    1
    53    29    50    1
    54    30    51    1
    55    31    52    1
    56    32    53    1
