
     RDKit          3D

 52 55  0  0  0  0  0  0  0  0999 V2000
   -1.1516   -3.8721   -0.7741 C   0  0  0  0  0  0  0  0  0  0  0  0
   -1.2802   -2.6492    0.0042 N   0  0  0  0  0  0  0  0  0  0  0  0
   -2.4719   -2.3662    0.5604 C   0  0  0  0  0  0  0  0  0  0  0  0
   -3.4397   -3.1640    0.3944 O   0  0  0  0  0  0  0  0  0  0  0  0
   -2.6440   -1.2365    1.2963 N   0  0  0  0  0  0  0  0  0  0  0  0
   -3.9090   -0.8957    1.9120 C   0  0  0  0  0  0  0  0  0  0  0  0
   -4.8001   -0.0843    1.0572 C   0  0  0  0  0  0  0  0  0  0  0  0
   -4.7546    1.3115    1.0583 C   0  0  0  0  0  0  0  0  0  0  0  0
   -5.6019    2.0386    0.2497 C   0  0  0  0  0  0  0  0  0  0  0  0
   -6.5249    1.4175   -0.5894 C   0  0  0  0  0  0  0  0  0  0  0  0
   -7.4154    2.1871   -1.4395 C   0  0  0  0  0  0  0  0  0  0  0  0
   -7.3530    3.4320   -1.4187 O   0  0  0  0  0  0  0  0  0  0  0  0
   -8.3191    1.5600   -2.2604 O   0  0  0  0  0  0  0  0  0  0  0  0
   -6.5315    0.0392   -0.5545 C   0  0  0  0  0  0  0  0  0  0  0  0
   -5.7041   -0.7263    0.2369 C   0  0  0  0  0  0  0  0  0  0  0  0
   -1.5540   -0.4495    1.4179 C   0  0  0  0  0  0  0  0  0  0  0  0
   -1.6608    0.6070    2.0903 O   0  0  0  0  0  0  0  0  0  0  0  0
   -0.3339   -0.7198    0.8601 C   0  0  0  0  0  0  0  0  0  0  0  0
    0.7617    0.1168    1.0095 C   0  0  0  0  0  0  0  0  0  0  0  0
    1.9838   -0.1725    0.4396 C   0  0  0  0  0  0  0  0  0  0  0  0
    3.1215    0.6938    0.5932 C   0  0  0  0  0  0  0  0  0  0  0  0
    4.0711    1.4430    0.7196 C   0  0  0  0  0  0  0  0  0  0  0  0
    5.2158    2.3428    0.8494 C   0  0  0  0  0  0  0  0  0  0  0  0
    6.4334    1.7725    0.2196 C   0  0  0  0  0  0  0  0  0  0  0  0
    6.7627    1.9888   -1.0981 C   0  0  0  0  0  0  0  0  0  0  0  0
    7.9020    1.4415   -1.6446 C   0  0  0  0  0  0  0  0  0  0  0  0
    8.7105    0.6689   -0.8423 C   0  0  0  0  0  0  0  0  0  0  0  0
    8.4024    0.4332    0.4937 C   0  0  0  0  0  0  0  0  0  0  0  0
    7.2535    0.9932    1.0198 C   0  0  0  0  0  0  0  0  0  0  0  0
    2.1186   -1.3408   -0.3080 C   0  0  0  0  0  0  0  0  0  0  0  0
    1.0243   -2.1706   -0.4536 C   0  0  0  0  0  0  0  0  0  0  0  0
   -0.1955   -1.8754    0.1191 C   0  0  0  0  0  0  0  0  0  0  0  0
   -2.0422   -4.5268   -0.6530 H   0  0  0  0  0  0  0  0  0  0  0  0
   -0.2905   -4.4262   -0.3883 H   0  0  0  0  0  0  0  0  0  0  0  0
   -1.0498   -3.6683   -1.8593 H   0  0  0  0  0  0  0  0  0  0  0  0
   -3.7114   -0.3055    2.8287 H   0  0  0  0  0  0  0  0  0  0  0  0
   -4.4262   -1.8308    2.2742 H   0  0  0  0  0  0  0  0  0  0  0  0
   -4.0480    1.8274    1.7054 H   0  0  0  0  0  0  0  0  0  0  0  0
   -5.5797    3.1071    0.2386 H   0  0  0  0  0  0  0  0  0  0  0  0
   -9.1024    2.0184   -2.7083 H   0  0  0  0  0  0  0  0  0  0  0  0
   -7.2441   -0.4963   -1.2004 H   0  0  0  0  0  0  0  0  0  0  0  0
   -5.7859   -1.8267    0.2001 H   0  0  0  0  0  0  0  0  0  0  0  0
    0.6229    1.0250    1.6016 H   0  0  0  0  0  0  0  0  0  0  0  0
    4.9957    3.2924    0.2831 H   0  0  0  0  0  0  0  0  0  0  0  0
    5.4037    2.6257    1.8956 H   0  0  0  0  0  0  0  0  0  0  0  0
    6.0957    2.6114   -1.7140 H   0  0  0  0  0  0  0  0  0  0  0  0
    8.1455    1.6210   -2.6798 H   0  0  0  0  0  0  0  0  0  0  0  0
    9.6182    0.2079   -1.2005 H   0  0  0  0  0  0  0  0  0  0  0  0
    9.0476   -0.1814    1.1277 H   0  0  0  0  0  0  0  0  0  0  0  0
    7.0469    0.7888    2.0593 H   0  0  0  0  0  0  0  0  0  0  0  0
    3.0843   -1.5474   -0.7450 H   0  0  0  0  0  0  0  0  0  0  0  0
    1.1033   -3.0802   -1.0272 H   0  0  0  0  0  0  0  0  0  0  0  0
  1  2  1  0
  2  3  1  0
  3  4  2  0
  3  5  1  0
  5  6  1  0
  6  7  1  0
  7  8  2  0
  8  9  1  0
  9 10  2  0
 10 11  1  0
 11 12  2  0
 11 13  1  0
 10 14  1  0
 14 15  2  0
  5 16  1  0
 16 17  2  0
 16 18  1  0
 18 19  2  0
 19 20  1  0
 20 21  1  0
 21 22  3  0
 22 23  1  0
 23 24  1  0
 24 25  2  0
 25 26  1  0
 26 27  2  0
 27 28  1  0
 28 29  2  0
 20 30  2  0
 30 31  1  0
 31 32  2  0
 32  2  1  0
 15  7  1  0
 32 18  1  0
 29 24  1  0
  1 33  1  0
  1 34  1  0
  1 35  1  0
  6 36  1  0
  6 37  1  0
  8 38  1  0
  9 39  1  0
 13 40  1  0
 14 41  1  0
 15 42  1  0
 19 43  1  0
 23 44  1  0
 23 45  1  0
 25 46  1  0
 26 47  1  0
 27 48  1  0
 28 49  1  0
 29 50  1  0
 30 51  1  0
 31 52  1  0
M  END
$$$$
