@<TRIPOS>MOLECULE
*****
 52 55 0 0 0
SMALL
GASTEIGER

@<TRIPOS>ATOM
      1 C          -1.1516   -3.8721   -0.7741 C.3     1  UNL1        0.0167
      2 N          -1.2802   -2.6492    0.0042 N.ar    1  UNL1       -0.2962
      3 C          -2.4719   -2.3662    0.5604 C.ar    1  UNL1        0.3324
      4 O          -3.4397   -3.1640    0.3944 O.2     1  UNL1       -0.2462
      5 N          -2.6440   -1.2365    1.2963 N.ar    1  UNL1       -0.2560
      6 C          -3.9090   -0.8957    1.9120 C.3     1  UNL1        0.0560
      7 C          -4.8001   -0.0843    1.0572 C.ar    1  UNL1       -0.0275
      8 C          -4.7546    1.3115    1.0583 C.ar    1  UNL1       -0.0561
      9 C          -5.6019    2.0386    0.2497 C.ar    1  UNL1       -0.0475
     10 C          -6.5249    1.4175   -0.5894 C.ar    1  UNL1        0.0589
     11 C          -7.4154    2.1871   -1.4395 C.2     1  UNL1        0.3368
     12 O          -7.3530    3.4320   -1.4187 O.2     1  UNL1       -0.2451
     13 O          -8.3191    1.5600   -2.2604 O.3     1  UNL1       -0.4771
     14 C          -6.5315    0.0392   -0.5545 C.ar    1  UNL1       -0.0475
     15 C          -5.7041   -0.7263    0.2369 C.ar    1  UNL1       -0.0561
     16 C          -1.5540   -0.4495    1.4179 C.ar    1  UNL1        0.2646
     17 O          -1.6608    0.6070    2.0903 O.2     1  UNL1       -0.2668
     18 C          -0.3339   -0.7198    0.8601 C.ar    1  UNL1        0.0643
     19 C           0.7617    0.1168    1.0095 C.ar    1  UNL1       -0.0320
     20 C           1.9838   -0.1725    0.4396 C.ar    1  UNL1        0.0258
     21 C           3.1215    0.6938    0.5932 C.1     1  UNL1       -0.0660
     22 C           4.0711    1.4430    0.7196 C.1     1  UNL1       -0.0923
     23 C           5.2158    2.3428    0.8494 C.3     1  UNL1        0.0346
     24 C           6.4334    1.7725    0.2196 C.ar    1  UNL1       -0.0356
     25 C           6.7627    1.9888   -1.0981 C.ar    1  UNL1       -0.0577
     26 C           7.9020    1.4415   -1.6446 C.ar    1  UNL1       -0.0615
     27 C           8.7105    0.6689   -0.8423 C.ar    1  UNL1       -0.0617
     28 C           8.4024    0.4332    0.4937 C.ar    1  UNL1       -0.0615
     29 C           7.2535    0.9932    1.0198 C.ar    1  UNL1       -0.0577
     30 C           2.1186   -1.3408   -0.3080 C.ar    1  UNL1       -0.0443
     31 C           1.0243   -2.1706   -0.4536 C.ar    1  UNL1       -0.0361
     32 C          -0.1955   -1.8754    0.1191 C.ar    1  UNL1        0.0584
     33 H          -2.0422   -4.5268   -0.6530 H       1  UNL1        0.0457
     34 H          -0.2905   -4.4262   -0.3883 H       1  UNL1        0.0457
     35 H          -1.0498   -3.6683   -1.8593 H       1  UNL1        0.0457
     36 H          -3.7114   -0.3055    2.8287 H       1  UNL1        0.0544
     37 H          -4.4262   -1.8308    2.2742 H       1  UNL1        0.0544
     38 H          -4.0480    1.8274    1.7054 H       1  UNL1        0.0621
     39 H          -5.5797    3.1071    0.2386 H       1  UNL1        0.0626
     40 H          -9.1024    2.0184   -2.7083 H       1  UNL1        0.2954
     41 H          -7.2441   -0.4963   -1.2004 H       1  UNL1        0.0626
     42 H          -5.7859   -1.8267    0.2001 H       1  UNL1        0.0621
     43 H           0.6229    1.0250    1.6016 H       1  UNL1        0.0638
     44 H           4.9957    3.2924    0.2831 H       1  UNL1        0.0446
     45 H           5.4037    2.6257    1.8956 H       1  UNL1        0.0446
     46 H           6.0957    2.6114   -1.7140 H       1  UNL1        0.0621
     47 H           8.1455    1.6210   -2.6798 H       1  UNL1        0.0618
     48 H           9.6182    0.2079   -1.2005 H       1  UNL1        0.0618
     49 H           9.0476   -0.1814    1.1277 H       1  UNL1        0.0618
     50 H           7.0469    0.7888    2.0593 H       1  UNL1        0.0621
     51 H           3.0843   -1.5474   -0.7450 H       1  UNL1        0.0630
     52 H           1.1033   -3.0802   -1.0272 H       1  UNL1        0.0639
@<TRIPOS>BOND
     1     1     2    1
     2     2     3   ar
     3     3     4    2
     4     3     5   ar
     5     5     6    1
     6     6     7    1
     7     7     8   ar
     8     8     9   ar
     9     9    10   ar
    10    10    11    1
    11    11    12    2
    12    11    13    1
    13    10    14   ar
    14    14    15   ar
    15     5    16   ar
    16    16    17    2
    17    16    18   ar
    18    18    19   ar
    19    19    20   ar
    20    20    21    1
    21    21    22    3
    22    22    23    1
    23    23    24    1
    24    24    25   ar
    25    25    26   ar
    26    26    27   ar
    27    27    28   ar
    28    28    29   ar
    29    20    30   ar
    30    30    31   ar
    31    31    32   ar
    32    32     2   ar
    33    15     7   ar
    34    32    18   ar
    35    29    24   ar
    36     1    33    1
    37     1    34    1
    38     1    35    1
    39     6    36    1
    40     6    37    1
    41     8    38    1
    42     9    39    1
    43    13    40    1
    44    14    41    1
    45    15    42    1
    46    19    43    1
    47    23    44    1
    48    23    45    1
    49    25    46    1
    50    26    47    1
    51    27    48    1
    52    28    49    1
    53    29    50    1
    54    30    51    1
    55    31    52    1
