
     RDKit          3D

 56 59  0  0  0  0  0  0  0  0999 V2000
    8.6546   -1.7122   -0.3685 C   0  0  0  0  0  0  0  0  0  0  0  0
    7.4282   -1.9066    0.2980 O   0  0  0  0  0  0  0  0  0  0  0  0
    6.3742   -1.0150    0.2054 C   0  0  0  0  0  0  0  0  0  0  0  0
    5.2070   -1.2607    0.8771 C   0  0  0  0  0  0  0  0  0  0  0  0
    4.1612   -0.4243    0.8163 N   0  0  0  0  0  0  0  0  0  0  0  0
    4.2526    0.7059    0.0665 C   0  0  0  0  0  0  0  0  0  0  0  0
    3.1988    1.6026   -0.0233 C   0  0  0  0  0  0  0  0  0  0  0  0
    1.9759    1.3491    0.6549 N   0  0  0  0  0  0  0  0  0  0  0  0
    0.9239    0.7307   -0.0942 C   0  0  0  0  0  0  0  0  0  0  0  0
    1.0860    0.4346   -1.4379 C   0  0  0  0  0  0  0  0  0  0  0  0
    0.0652   -0.1561   -2.1521 C   0  0  0  0  0  0  0  0  0  0  0  0
   -1.1617   -0.4756   -1.5517 C   0  0  0  0  0  0  0  0  0  0  0  0
   -2.0748   -1.0223   -2.3813 F   0  0  0  0  0  0  0  0  0  0  0  0
   -1.3362   -0.1907   -0.2255 C   0  0  0  0  0  0  0  0  0  0  0  0
   -2.6220   -0.5549    0.4155 C   0  0  0  0  0  0  0  0  0  0  0  0
   -2.7366   -2.0504    0.4585 C   0  0  0  0  0  0  0  0  0  0  0  0
   -2.7297   -2.6818   -0.7565 F   0  0  0  0  0  0  0  0  0  0  0  0
   -2.6373   -0.0946    1.8758 C   0  0  0  0  0  0  0  0  0  0  0  0
   -4.2843   -0.2233    2.4783 S   0  0  0  0  0  6  0  0  0  0  0  0
   -4.5043    0.9108    3.4843 O   0  0  0  0  0  0  0  0  0  0  0  0
   -4.4915   -1.4747    3.2909 O   0  0  0  0  0  0  0  0  0  0  0  0
   -5.4413   -0.0734    1.2004 C   0  0  0  0  0  0  0  0  0  0  0  0
   -6.2842   -1.3291    0.9875 C   0  0  0  0  0  0  0  0  0  0  0  0
   -6.4646    1.0112    1.5673 C   0  0  0  0  0  0  0  0  0  0  0  0
   -4.8336    0.3756   -0.0697 C   0  0  0  0  0  0  0  0  0  0  0  0
   -5.6591    1.1117   -1.0217 N   0  0  0  0  0  0  0  0  0  0  0  0
   -3.6307    0.1302   -0.3263 N   0  0  0  0  0  0  0  0  0  0  0  0
   -0.2958    0.4019    0.4650 C   0  0  0  0  0  0  0  0  0  0  0  0
    3.3300    2.7153   -0.7739 N   0  0  0  0  0  0  0  0  0  0  0  0
    4.4334    2.9990   -1.4406 C   0  0  0  0  0  0  0  0  0  0  0  0
    5.4928    2.1468   -1.3819 C   0  0  0  0  0  0  0  0  0  0  0  0
    5.4075    0.9825   -0.6191 C   0  0  0  0  0  0  0  0  0  0  0  0
    6.4828    0.1171   -0.5532 C   0  0  0  0  0  0  0  0  0  0  0  0
    8.9635   -0.6532   -0.3745 H   0  0  0  0  0  0  0  0  0  0  0  0
    9.4105   -2.3404    0.1892 H   0  0  0  0  0  0  0  0  0  0  0  0
    8.6171   -2.1518   -1.4077 H   0  0  0  0  0  0  0  0  0  0  0  0
    5.1353   -2.1751    1.4833 H   0  0  0  0  0  0  0  0  0  0  0  0
    1.8814    1.6114    1.6531 H   0  0  0  0  0  0  0  0  0  0  0  0
    2.0484    0.6888   -1.8964 H   0  0  0  0  0  0  0  0  0  0  0  0
    0.2309   -0.3725   -3.2050 H   0  0  0  0  0  0  0  0  0  0  0  0
   -1.9013   -2.4772    1.1177 H   0  0  0  0  0  0  0  0  0  0  0  0
   -3.6500   -2.3911    1.0023 H   0  0  0  0  0  0  0  0  0  0  0  0
   -1.9401   -0.7465    2.4152 H   0  0  0  0  0  0  0  0  0  0  0  0
   -2.3535    0.9879    1.9469 H   0  0  0  0  0  0  0  0  0  0  0  0
   -7.2748   -1.0169    0.6141 H   0  0  0  0  0  0  0  0  0  0  0  0
   -6.3275   -1.8382    1.9708 H   0  0  0  0  0  0  0  0  0  0  0  0
   -5.8633   -1.9882    0.1959 H   0  0  0  0  0  0  0  0  0  0  0  0
   -7.3479    0.5428    2.0622 H   0  0  0  0  0  0  0  0  0  0  0  0
   -6.0614    1.7509    2.2588 H   0  0  0  0  0  0  0  0  0  0  0  0
   -6.8505    1.4960    0.6529 H   0  0  0  0  0  0  0  0  0  0  0  0
   -6.1850    0.6186   -1.7439 H   0  0  0  0  0  0  0  0  0  0  0  0
   -5.6898    2.1325   -0.9368 H   0  0  0  0  0  0  0  0  0  0  0  0
   -0.4270    0.6238    1.4987 H   0  0  0  0  0  0  0  0  0  0  0  0
    4.5184    3.8970   -2.0384 H   0  0  0  0  0  0  0  0  0  0  0  0
    6.4089    2.3554   -1.9216 H   0  0  0  0  0  0  0  0  0  0  0  0
    7.3713    0.3671   -1.1061 H   0  0  0  0  0  0  0  0  0  0  0  0
  1  2  1  0
  2  3  1  0
  3  4  2  0
  4  5  1  0
  5  6  2  0
  6  7  1  0
  7  8  1  0
  8  9  1  0
  9 10  2  0
 10 11  1  0
 11 12  2  0
 12 13  1  0
 12 14  1  0
 14 15  1  0
 15 16  1  0
 16 17  1  0
 15 18  1  0
 18 19  1  0
 19 20  2  0
 19 21  2  0
 19 22  1  0
 22 23  1  0
 22 24  1  0
 22 25  1  0
 25 26  1  0
 25 27  2  0
 14 28  2  0
  7 29  2  0
 29 30  1  0
 30 31  2  0
 31 32  1  0
 32 33  2  0
 33  3  1  0
 32  6  1  0
 28  9  1  0
 27 15  1  0
  1 34  1  0
  1 35  1  0
  1 36  1  0
  4 37  1  0
  8 38  1  0
 10 39  1  0
 11 40  1  0
 16 41  1  0
 16 42  1  0
 18 43  1  0
 18 44  1  0
 23 45  1  0
 23 46  1  0
 23 47  1  0
 24 48  1  0
 24 49  1  0
 24 50  1  0
 26 51  1  0
 26 52  1  0
 28 53  1  0
 30 54  1  0
 31 55  1  0
 33 56  1  0
M  END
$$$$
