@<TRIPOS>MOLECULE
*****
 56 59 0 0 0
SMALL
GASTEIGER

@<TRIPOS>ATOM
      1 C           8.6546   -1.7122   -0.3685 C.3     1  UNL1        0.0789
      2 O           7.4282   -1.9066    0.2980 O.3     1  UNL1       -0.4936
      3 C           6.3742   -1.0150    0.2054 C.ar    1  UNL1        0.1387
      4 C           5.2070   -1.2607    0.8771 C.ar    1  UNL1        0.0700
      5 N           4.1612   -0.4243    0.8163 N.ar    1  UNL1       -0.2479
      6 C           4.2526    0.7059    0.0665 C.ar    1  UNL1        0.1111
      7 C           3.1988    1.6026   -0.0233 C.ar    1  UNL1        0.1490
      8 N           1.9759    1.3491    0.6549 N.pl3   1  UNL1       -0.2977
      9 C           0.9239    0.7307   -0.0942 C.ar    1  UNL1        0.0330
     10 C           1.0860    0.4346   -1.4379 C.ar    1  UNL1       -0.0378
     11 C           0.0652   -0.1561   -2.1521 C.ar    1  UNL1       -0.0243
     12 C          -1.1617   -0.4756   -1.5517 C.ar    1  UNL1        0.1312
     13 F          -2.0748   -1.0223   -2.3813 F       1  UNL1       -0.2050
     14 C          -1.3362   -0.1907   -0.2255 C.ar    1  UNL1        0.0448
     15 C          -2.6220   -0.5549    0.4155 C.3     1  UNL1        0.2263
     16 C          -2.7366   -2.0504    0.4585 C.3     1  UNL1        0.1433
     17 F          -2.7297   -2.6818   -0.7565 F       1  UNL1       -0.2438
     18 C          -2.6373   -0.0946    1.8758 C.3     1  UNL1        0.1211
     19 S          -4.2843   -0.2233    2.4783 S.O2    1  UNL1       -0.0100
     20 O          -4.5043    0.9108    3.4843 O.2     1  UNL1       -0.1731
     21 O          -4.4915   -1.4747    3.2909 O.2     1  UNL1       -0.1731
     22 C          -5.4413   -0.0734    1.2004 C.3     1  UNL1        0.1831
     23 C          -6.2842   -1.3291    0.9875 C.3     1  UNL1       -0.0288
     24 C          -6.4646    1.0112    1.5673 C.3     1  UNL1       -0.0288
     25 C          -4.8336    0.3756   -0.0697 C.2     1  UNL1        0.3068
     26 N          -5.6591    1.1117   -1.0217 N.pl3   1  UNL1       -0.2488
     27 N          -3.6307    0.1302   -0.3263 N.2     1  UNL1       -0.0698
     28 C          -0.2958    0.4019    0.4650 C.ar    1  UNL1       -0.0300
     29 N           3.3300    2.7153   -0.7739 N.ar    1  UNL1       -0.2380
     30 C           4.4334    2.9990   -1.4406 C.ar    1  UNL1        0.0304
     31 C           5.4928    2.1468   -1.3819 C.ar    1  UNL1       -0.0342
     32 C           5.4075    0.9825   -0.6191 C.ar    1  UNL1        0.0086
     33 C           6.4828    0.1171   -0.5532 C.ar    1  UNL1       -0.0091
     34 H           8.9635   -0.6532   -0.3745 H       1  UNL1        0.0660
     35 H           9.4105   -2.3404    0.1892 H       1  UNL1        0.0660
     36 H           8.6171   -2.1518   -1.4077 H       1  UNL1        0.0660
     37 H           5.1353   -2.1751    1.4833 H       1  UNL1        0.0867
     38 H           1.8814    1.6114    1.6531 H       1  UNL1        0.1536
     39 H           2.0484    0.6888   -1.8964 H       1  UNL1        0.0637
     40 H           0.2309   -0.3725   -3.2050 H       1  UNL1        0.0647
     41 H          -1.9013   -2.4772    1.1177 H       1  UNL1        0.0666
     42 H          -3.6500   -2.3911    1.0023 H       1  UNL1        0.0666
     43 H          -1.9401   -0.7465    2.4152 H       1  UNL1        0.0551
     44 H          -2.3535    0.9879    1.9469 H       1  UNL1        0.0551
     45 H          -7.2748   -1.0169    0.6141 H       1  UNL1        0.0256
     46 H          -6.3275   -1.8382    1.9708 H       1  UNL1        0.0256
     47 H          -5.8633   -1.9882    0.1959 H       1  UNL1        0.0256
     48 H          -7.3479    0.5428    2.0622 H       1  UNL1        0.0256
     49 H          -6.0614    1.7509    2.2588 H       1  UNL1        0.0256
     50 H          -6.8505    1.4960    0.6529 H       1  UNL1        0.0256
     51 H          -6.1850    0.6186   -1.7439 H       1  UNL1        0.2881
     52 H          -5.6898    2.1325   -0.9368 H       1  UNL1        0.2881
     53 H          -0.4270    0.6238    1.4987 H       1  UNL1        0.0641
     54 H           4.5184    3.8970   -2.0384 H       1  UNL1        0.0830
     55 H           6.4089    2.3554   -1.9216 H       1  UNL1        0.0639
     56 H           7.3713    0.3671   -1.1061 H       1  UNL1        0.0661
@<TRIPOS>BOND
     1     1     2    1
     2     2     3    1
     3     3     4   ar
     4     4     5   ar
     5     5     6   ar
     6     6     7   ar
     7     7     8    1
     8     8     9    1
     9     9    10   ar
    10    10    11   ar
    11    11    12   ar
    12    12    13    1
    13    12    14   ar
    14    14    15    1
    15    15    16    1
    16    16    17    1
    17    15    18    1
    18    18    19    1
    19    19    20    2
    20    19    21    2
    21    19    22    1
    22    22    23    1
    23    22    24    1
    24    22    25    1
    25    25    26    1
    26    25    27    2
    27    14    28   ar
    28     7    29   ar
    29    29    30   ar
    30    30    31   ar
    31    31    32   ar
    32    32    33   ar
    33    33     3   ar
    34    32     6   ar
    35    28     9   ar
    36    27    15    1
    37     1    34    1
    38     1    35    1
    39     1    36    1
    40     4    37    1
    41     8    38    1
    42    10    39    1
    43    11    40    1
    44    16    41    1
    45    16    42    1
    46    18    43    1
    47    18    44    1
    48    23    45    1
    49    23    46    1
    50    23    47    1
    51    24    48    1
    52    24    49    1
    53    24    50    1
    54    26    51    1
    55    26    52    1
    56    28    53    1
    57    30    54    1
    58    31    55    1
    59    33    56    1
