
     RDKit          3D

 14 13  0  0  0  0  0  0  0  0999 V2000
   -1.6820    1.2935   -0.4331 O   0  0  0  0  0  0  0  0  0  0  0  0
   -1.4042   -0.0357   -0.2343 C   0  0  0  0  0  0  0  0  0  0  0  0
   -0.0148   -0.3043    0.2888 C   0  0  1  0  0  0  0  0  0  0  0  0
    0.2215   -1.6582    0.4744 O   0  0  0  0  0  0  0  0  0  0  0  0
    1.0279    0.1879   -0.7138 C   0  0  0  0  0  0  0  0  0  0  0  0
    2.6827   -0.1460   -0.0625 S   0  0  0  0  0  0  0  0  0  0  0  0
   -2.0224    1.7894    0.3510 H   0  0  0  0  0  0  0  0  0  0  0  0
   -1.5710   -0.5983   -1.1918 H   0  0  0  0  0  0  0  0  0  0  0  0
   -2.1312   -0.4470    0.4872 H   0  0  0  0  0  0  0  0  0  0  0  0
    0.1306    0.3014    1.2052 H   0  0  0  0  0  0  0  0  0  0  0  0
   -0.0002   -1.9741    1.3723 H   0  0  0  0  0  0  0  0  0  0  0  0
    0.9064   -0.3280   -1.6878 H   0  0  0  0  0  0  0  0  0  0  0  0
    0.9448    1.2723   -0.9133 H   0  0  0  0  0  0  0  0  0  0  0  0
    2.9117    0.6471    1.0577 H   0  0  0  0  0  0  0  0  0  0  0  0
  1  2  1  0
  2  3  1  0
  3  4  1  0
  3  5  1  0
  5  6  1  0
  1  7  1  0
  2  8  1  0
  2  9  1  0
  3 10  1  1
  4 11  1  0
  5 12  1  0
  5 13  1  0
  6 14  1  0
M  END
$$$$
