@<TRIPOS>MOLECULE
*****
 14 13 0 0 0
SMALL
GASTEIGER

@<TRIPOS>ATOM
      1 O          -1.6820    1.2935   -0.4331 O.3     1  UNL1       -0.3924
      2 C          -1.4042   -0.0357   -0.2343 C.3     1  UNL1        0.0709
      3 C          -0.0148   -0.3043    0.2888 C.3     1  UNL1        0.0869
      4 O           0.2215   -1.6582    0.4744 O.3     1  UNL1       -0.3887
      5 C           1.0279    0.1879   -0.7138 C.3     1  UNL1        0.0189
      6 S           2.6827   -0.1460   -0.0625 S.3     1  UNL1       -0.1756
      7 H          -2.0224    1.7894    0.3510 H       1  UNL1        0.2095
      8 H          -1.5710   -0.5983   -1.1918 H       1  UNL1        0.0583
      9 H          -2.1312   -0.4470    0.4872 H       1  UNL1        0.0583
     10 H           0.1306    0.3014    1.2052 H       1  UNL1        0.0624
     11 H          -0.0002   -1.9741    1.3723 H       1  UNL1        0.2099
     12 H           0.9064   -0.3280   -1.6878 H       1  UNL1        0.0400
     13 H           0.9448    1.2723   -0.9133 H       1  UNL1        0.0400
     14 H           2.9117    0.6471    1.0577 H       1  UNL1        0.1017
@<TRIPOS>BOND
     1     1     2    1
     2     2     3    1
     3     3     4    1
     4     3     5    1
     5     5     6    1
     6     1     7    1
     7     2     8    1
     8     2     9    1
     9     3    10    1
    10     4    11    1
    11     5    12    1
    12     5    13    1
    13     6    14    1
