@<TRIPOS>MOLECULE
*****
 44 46 0 0 0
SMALL
GASTEIGER

@<TRIPOS>ATOM
      1 N           1.3896    4.7268   -2.7627 N.am    1  UNL1       -0.3131
      2 C           1.8672    3.5711   -2.0320 C.2     1  UNL1        0.3013
      3 O           3.0775    3.4677   -1.9281 O.2     1  UNL1       -0.2527
      4 N           0.9502    2.6623   -1.4999 N.am    1  UNL1       -0.2684
      5 C           1.3306    1.4641   -0.7462 C.ar    1  UNL1        0.0546
      6 C           2.5929    1.1011   -0.4801 C.ar    1  UNL1       -0.0249
      7 C           2.8340   -0.0202    0.2216 C.ar    1  UNL1        0.0219
      8 C           4.0689   -0.6733    0.6662 C.ar    1  UNL1       -0.0085
      9 C           3.9886   -1.8633    1.3997 C.ar    1  UNL1       -0.0534
     10 C           5.1302   -2.4987    1.8303 C.ar    1  UNL1       -0.0585
     11 C           6.3521   -1.9613    1.5381 C.ar    1  UNL1       -0.0264
     12 C           6.4484   -0.7859    0.8142 C.ar    1  UNL1        0.1240
     13 F           7.6769   -0.2573    0.5276 F       1  UNL1       -0.2055
     14 C           5.2981   -0.1716    0.3963 C.ar    1  UNL1       -0.0182
     15 S           1.1922   -0.6993    0.5878 S.2     1  UNL1       -0.0818
     16 C           0.3292    0.6624   -0.2830 C.ar    1  UNL1        0.0956
     17 C          -1.1192    0.7022   -0.3553 C.2     1  UNL1        0.2528
     18 O          -1.6833    1.6356   -0.9513 O.2     1  UNL1       -0.2696
     19 N          -1.9184   -0.3181    0.2497 N.am    1  UNL1       -0.3068
     20 C          -3.3471   -0.3176    0.2025 C.3     1  UNL1        0.0359
     21 C          -3.7942   -1.5484   -0.5755 C.3     1  UNL1       -0.0322
     22 C          -5.2914   -1.5481   -0.6973 C.3     1  UNL1       -0.0387
     23 C          -5.8525   -1.6579    0.7204 C.3     1  UNL1       -0.0040
     24 N          -5.4076   -0.4941    1.4430 N.3     1  UNL1       -0.3142
     25 C          -3.9680   -0.4279    1.5769 C.3     1  UNL1        0.0144
     26 H           1.8791    5.0871   -3.5930 H       1  UNL1        0.1465
     27 H           0.5331    5.1954   -2.4334 H       1  UNL1        0.1465
     28 H          -0.0553    2.8849   -1.6708 H       1  UNL1        0.1564
     29 H           3.4863    1.6951   -0.8183 H       1  UNL1        0.0648
     30 H           3.0278   -2.2827    1.6275 H       1  UNL1        0.0624
     31 H           5.0739   -3.4087    2.3913 H       1  UNL1        0.0619
     32 H           7.2519   -2.4616    1.8772 H       1  UNL1        0.0646
     33 H           5.3503    0.7527   -0.1737 H       1  UNL1        0.0652
     34 H          -1.4108   -1.0803    0.7380 H       1  UNL1        0.1494
     35 H          -3.7109    0.5558   -0.3499 H       1  UNL1        0.0511
     36 H          -3.4636   -2.4445    0.0247 H       1  UNL1        0.0284
     37 H          -3.3588   -1.5811   -1.5925 H       1  UNL1        0.0284
     38 H          -5.6177   -2.4033   -1.3182 H       1  UNL1        0.0278
     39 H          -5.6114   -0.5774   -1.0916 H       1  UNL1        0.0278
     40 H          -5.4357   -2.5517    1.2250 H       1  UNL1        0.0424
     41 H          -6.9535   -1.6453    0.7149 H       1  UNL1        0.0424
     42 H          -5.8076    0.3903    1.1090 H       1  UNL1        0.1220
     43 H          -3.5761   -1.3203    2.0628 H       1  UNL1        0.0442
     44 H          -3.7457    0.4454    2.2216 H       1  UNL1        0.0442
@<TRIPOS>BOND
     1     1     2   am
     2     2     3    2
     3     2     4   am
     4     4     5    1
     5     5     6   ar
     6     6     7   ar
     7     7     8    1
     8     8     9   ar
     9     9    10   ar
    10    10    11   ar
    11    11    12   ar
    12    12    13    1
    13    12    14   ar
    14     7    15   ar
    15    15    16   ar
    16    16    17    1
    17    17    18    2
    18    17    19   am
    19    19    20    1
    20    20    21    1
    21    21    22    1
    22    22    23    1
    23    23    24    1
    24    24    25    1
    25    16     5   ar
    26    25    20    1
    27    14     8   ar
    28     1    26    1
    29     1    27    1
    30     4    28    1
    31     6    29    1
    32     9    30    1
    33    10    31    1
    34    11    32    1
    35    14    33    1
    36    19    34    1
    37    20    35    1
    38    21    36    1
    39    21    37    1
    40    22    38    1
    41    22    39    1
    42    23    40    1
    43    23    41    1
    44    24    42    1
    45    25    43    1
    46    25    44    1
