
     RDKit          3D

 44 46  0  0  0  0  0  0  0  0999 V2000
    1.3896    4.7268   -2.7627 N   0  0  0  0  0  0  0  0  0  0  0  0
    1.8672    3.5711   -2.0320 C   0  0  0  0  0  0  0  0  0  0  0  0
    3.0775    3.4677   -1.9281 O   0  0  0  0  0  0  0  0  0  0  0  0
    0.9502    2.6623   -1.4999 N   0  0  0  0  0  0  0  0  0  0  0  0
    1.3306    1.4641   -0.7462 C   0  0  0  0  0  0  0  0  0  0  0  0
    2.5929    1.1011   -0.4801 C   0  0  0  0  0  0  0  0  0  0  0  0
    2.8340   -0.0202    0.2216 C   0  0  0  0  0  0  0  0  0  0  0  0
    4.0689   -0.6733    0.6662 C   0  0  0  0  0  0  0  0  0  0  0  0
    3.9886   -1.8633    1.3997 C   0  0  0  0  0  0  0  0  0  0  0  0
    5.1302   -2.4987    1.8303 C   0  0  0  0  0  0  0  0  0  0  0  0
    6.3521   -1.9613    1.5381 C   0  0  0  0  0  0  0  0  0  0  0  0
    6.4484   -0.7859    0.8142 C   0  0  0  0  0  0  0  0  0  0  0  0
    7.6769   -0.2573    0.5276 F   0  0  0  0  0  0  0  0  0  0  0  0
    5.2981   -0.1716    0.3963 C   0  0  0  0  0  0  0  0  0  0  0  0
    1.1922   -0.6993    0.5878 S   0  0  0  0  0  0  0  0  0  0  0  0
    0.3292    0.6624   -0.2830 C   0  0  0  0  0  0  0  0  0  0  0  0
   -1.1192    0.7022   -0.3553 C   0  0  0  0  0  0  0  0  0  0  0  0
   -1.6833    1.6356   -0.9513 O   0  0  0  0  0  0  0  0  0  0  0  0
   -1.9184   -0.3181    0.2497 N   0  0  0  0  0  0  0  0  0  0  0  0
   -3.3471   -0.3176    0.2025 C   0  0  1  0  0  0  0  0  0  0  0  0
   -3.7942   -1.5484   -0.5755 C   0  0  0  0  0  0  0  0  0  0  0  0
   -5.2914   -1.5481   -0.6973 C   0  0  0  0  0  0  0  0  0  0  0  0
   -5.8525   -1.6579    0.7204 C   0  0  0  0  0  0  0  0  0  0  0  0
   -5.4076   -0.4941    1.4430 N   0  0  0  0  0  0  0  0  0  0  0  0
   -3.9680   -0.4279    1.5769 C   0  0  0  0  0  0  0  0  0  0  0  0
    1.8791    5.0871   -3.5930 H   0  0  0  0  0  0  0  0  0  0  0  0
    0.5331    5.1954   -2.4334 H   0  0  0  0  0  0  0  0  0  0  0  0
   -0.0553    2.8849   -1.6708 H   0  0  0  0  0  0  0  0  0  0  0  0
    3.4863    1.6951   -0.8183 H   0  0  0  0  0  0  0  0  0  0  0  0
    3.0278   -2.2827    1.6275 H   0  0  0  0  0  0  0  0  0  0  0  0
    5.0739   -3.4087    2.3913 H   0  0  0  0  0  0  0  0  0  0  0  0
    7.2519   -2.4616    1.8772 H   0  0  0  0  0  0  0  0  0  0  0  0
    5.3503    0.7527   -0.1737 H   0  0  0  0  0  0  0  0  0  0  0  0
   -1.4108   -1.0803    0.7380 H   0  0  0  0  0  0  0  0  0  0  0  0
   -3.7109    0.5558   -0.3499 H   0  0  0  0  0  0  0  0  0  0  0  0
   -3.4636   -2.4445    0.0247 H   0  0  0  0  0  0  0  0  0  0  0  0
   -3.3588   -1.5811   -1.5925 H   0  0  0  0  0  0  0  0  0  0  0  0
   -5.6177   -2.4033   -1.3182 H   0  0  0  0  0  0  0  0  0  0  0  0
   -5.6114   -0.5774   -1.0916 H   0  0  0  0  0  0  0  0  0  0  0  0
   -5.4357   -2.5517    1.2250 H   0  0  0  0  0  0  0  0  0  0  0  0
   -6.9535   -1.6453    0.7149 H   0  0  0  0  0  0  0  0  0  0  0  0
   -5.8076    0.3903    1.1090 H   0  0  0  0  0  0  0  0  0  0  0  0
   -3.5761   -1.3203    2.0628 H   0  0  0  0  0  0  0  0  0  0  0  0
   -3.7457    0.4454    2.2216 H   0  0  0  0  0  0  0  0  0  0  0  0
  1  2  1  0
  2  3  2  0
  2  4  1  0
  4  5  1  0
  5  6  1  0
  6  7  2  0
  7  8  1  0
  8  9  2  0
  9 10  1  0
 10 11  2  0
 11 12  1  0
 12 13  1  0
 12 14  2  0
  7 15  1  0
 15 16  1  0
 16 17  1  0
 17 18  2  0
 17 19  1  0
 19 20  1  0
 20 21  1  0
 21 22  1  0
 22 23  1  0
 23 24  1  0
 24 25  1  0
 16  5  2  0
 25 20  1  0
 14  8  1  0
  1 26  1  0
  1 27  1  0
  4 28  1  0
  6 29  1  0
  9 30  1  0
 10 31  1  0
 11 32  1  0
 14 33  1  0
 19 34  1  0
 20 35  1  6
 21 36  1  0
 21 37  1  0
 22 38  1  0
 22 39  1  0
 23 40  1  0
 23 41  1  0
 24 42  1  0
 25 43  1  0
 25 44  1  0
M  END
$$$$
