@<TRIPOS>MOLECULE
*****
 44 45 0 0 0
SMALL
GASTEIGER

@<TRIPOS>ATOM
      1 C           2.1557    1.0580   -0.7510 C.3     1  UNL1       -0.0601
      2 C           3.2680    0.5824    0.1296 C.3     1  UNL1       -0.0374
      3 C           3.9115   -0.6502   -0.4844 C.3     1  UNL1       -0.0601
      4 C           4.3963    1.6311    0.1601 C.3     1  UNL1       -0.0601
      5 C           2.8341    0.3861    1.5199 C.3     1  UNL1       -0.0427
      6 C           1.7922   -0.5966    1.8534 C.3     1  UNL1       -0.0085
      7 C           0.4640   -0.4599    1.2658 C.ar    1  UNL1        0.0595
      8 C          -0.0039   -1.0802    0.1136 C.ar    1  UNL1        0.0280
      9 N          -1.2764   -0.7485   -0.0802 N.ar    1  UNL1       -0.3241
     10 C          -1.6506    0.0722    0.9158 C.ar    1  UNL1        0.1417
     11 N          -0.5899    0.2378    1.7211 N.ar    1  UNL1       -0.2345
     12 C          -3.0490    0.5763    0.9102 C.3     1  UNL1        0.1409
     13 O          -3.1660    1.7404    1.6761 O.3     1  UNL1       -0.3814
     14 C          -3.5983    0.8388   -0.4414 C.3     1  UNL1        0.1158
     15 O          -3.4572    2.2129   -0.7348 O.3     1  UNL1       -0.3861
     16 C          -3.0025    0.0714   -1.5667 C.3     1  UNL1        0.1067
     17 O          -2.1385    0.9018   -2.2785 O.3     1  UNL1       -0.3870
     18 C          -2.2109   -1.1292   -1.1355 C.3     1  UNL1        0.0871
     19 C          -3.0288   -2.3125   -0.7404 C.3     1  UNL1        0.0675
     20 O          -2.1232   -3.3664   -0.4966 O.3     1  UNL1       -0.3929
     21 H           1.8734    0.2896   -1.4878 H       1  UNL1        0.0235
     22 H           1.2994    1.4084   -0.1583 H       1  UNL1        0.0235
     23 H           2.4926    2.0051   -1.3062 H       1  UNL1        0.0235
     24 H           5.0138   -0.6586   -0.3507 H       1  UNL1        0.0235
     25 H           3.7203   -0.7082   -1.5767 H       1  UNL1        0.0235
     26 H           3.5339   -1.5824   -0.0338 H       1  UNL1        0.0235
     27 H           3.9656    2.6244    0.3597 H       1  UNL1        0.0235
     28 H           4.9694    1.6172   -0.7736 H       1  UNL1        0.0235
     29 H           5.0171    1.3626    1.0477 H       1  UNL1        0.0235
     30 H           3.7868    0.1954    2.1238 H       1  UNL1        0.0274
     31 H           2.4780    1.4035    1.8877 H       1  UNL1        0.0274
     32 H           1.6470   -0.5683    2.9732 H       1  UNL1        0.0329
     33 H           2.2061   -1.6164    1.6464 H       1  UNL1        0.0329
     34 H           0.6101   -1.7371   -0.5163 H       1  UNL1        0.0828
     35 H          -3.7169   -0.1701    1.4280 H       1  UNL1        0.0702
     36 H          -2.4330    1.8172    2.3394 H       1  UNL1        0.2105
     37 H          -4.7229    0.6968   -0.4374 H       1  UNL1        0.0650
     38 H          -4.1907    2.7444   -0.3301 H       1  UNL1        0.2100
     39 H          -3.8086   -0.2979   -2.2403 H       1  UNL1        0.0642
     40 H          -1.8857    1.7105   -1.7748 H       1  UNL1        0.2100
     41 H          -1.6145   -1.4456   -2.0424 H       1  UNL1        0.0577
     42 H          -3.6596   -2.6585   -1.5770 H       1  UNL1        0.0579
     43 H          -3.6699   -2.1801    0.1290 H       1  UNL1        0.0579
     44 H          -2.4383   -4.2176   -0.8856 H       1  UNL1        0.2095
@<TRIPOS>BOND
     1     1     2    1
     2     2     3    1
     3     2     4    1
     4     2     5    1
     5     5     6    1
     6     6     7    1
     7     7     8   ar
     8     8     9   ar
     9     9    10   ar
    10    10    11   ar
    11    10    12    1
    12    12    13    1
    13    12    14    1
    14    14    15    1
    15    14    16    1
    16    16    17    1
    17    16    18    1
    18    18    19    1
    19    19    20    1
    20    11     7   ar
    21    18     9    1
    22     1    21    1
    23     1    22    1
    24     1    23    1
    25     3    24    1
    26     3    25    1
    27     3    26    1
    28     4    27    1
    29     4    28    1
    30     4    29    1
    31     5    30    1
    32     5    31    1
    33     6    32    1
    34     6    33    1
    35     8    34    1
    36    12    35    1
    37    13    36    1
    38    14    37    1
    39    15    38    1
    40    16    39    1
    41    17    40    1
    42    18    41    1
    43    19    42    1
    44    19    43    1
    45    20    44    1
