@<TRIPOS>MOLECULE
*****
 55 59 0 0 0
SMALL
GASTEIGER

@<TRIPOS>ATOM
      1 C          -6.3664    0.1291   -1.0420 C.3     1  UNL1       -0.0376
      2 C          -5.2003    1.0228   -1.2052 C.ar    1  UNL1       -0.0226
      3 C          -5.2079    2.1315   -2.0339 C.ar    1  UNL1       -0.0567
      4 C          -4.1072    2.9557   -2.1735 C.ar    1  UNL1       -0.0607
      5 C          -2.9632    2.6508   -1.4540 C.ar    1  UNL1       -0.0475
      6 C          -2.9071    1.5547   -0.6139 C.ar    1  UNL1        0.0642
      7 C          -1.7328    1.1954    0.1591 C.2     1  UNL1        0.2491
      8 O          -1.6076    1.6690    1.3138 O.2     1  UNL1       -0.2699
      9 N          -0.7543    0.3261   -0.3905 N.am    1  UNL1       -0.2897
     10 C          -0.8873   -0.2270   -1.7220 C.3     1  UNL1        0.0388
     11 C           0.4578   -0.1924   -2.4002 C.3     1  UNL1        0.0635
     12 O           1.4610   -0.7989   -1.6846 O.3     1  UNL1       -0.3764
     13 C           1.0907   -1.1869   -0.4051 C.3     1  UNL1        0.0666
     14 C           0.4403   -0.0554    0.3625 C.3     1  UNL1        0.0537
     15 C           1.4183    1.0824    0.4501 C.3     1  UNL1       -0.0067
     16 C           2.6076    0.6515    1.2224 C.ar    1  UNL1       -0.0421
     17 C           2.5786    0.8227    2.5922 C.ar    1  UNL1       -0.0400
     18 C           3.6675    0.4395    3.3469 C.ar    1  UNL1        0.0433
     19 CL          3.6067    0.6682    5.0945 Cl      1  UNL1       -0.0835
     20 C           4.7872   -0.1157    2.7321 C.ar    1  UNL1       -0.0162
     21 C           4.8344   -0.2940    1.3676 C.ar    1  UNL1        0.0878
     22 N           5.9883   -0.8630    0.7609 N.ar    1  UNL1       -0.1503
     23 N           6.0083   -2.0984    0.2523 N.ar    1  UNL1       -0.1556
     24 C           7.2094   -2.3826   -0.2540 C.ar    1  UNL1        0.0697
     25 C           7.9869   -1.2538   -0.0483 C.ar    1  UNL1        0.0697
     26 N           7.1880   -0.3655    0.5727 N.ar    1  UNL1       -0.1556
     27 C           3.7221    0.1036    0.6502 C.ar    1  UNL1       -0.0312
     28 C          -4.0436    0.7508   -0.5048 C.ar    1  UNL1        0.1011
     29 N          -3.9971   -0.3717    0.3508 N.ar    1  UNL1       -0.1493
     30 N          -3.4423   -0.5303    1.5279 N.ar    1  UNL1       -0.1556
     31 C          -3.6354   -1.7604    1.9953 C.ar    1  UNL1        0.0697
     32 C          -4.3693   -2.4263    1.0360 C.ar    1  UNL1        0.0697
     33 N          -4.5656   -1.5409    0.0537 N.ar    1  UNL1       -0.1556
     34 H          -6.2137   -0.8493   -1.5667 H       1  UNL1        0.0278
     35 H          -7.2603    0.5825   -1.5475 H       1  UNL1        0.0278
     36 H          -6.5846   -0.1158    0.0185 H       1  UNL1        0.0278
     37 H          -6.1233    2.3350   -2.5794 H       1  UNL1        0.0621
     38 H          -4.1431    3.8181   -2.8309 H       1  UNL1        0.0618
     39 H          -2.0791    3.2889   -1.5484 H       1  UNL1        0.0626
     40 H          -1.5827    0.3626   -2.3534 H       1  UNL1        0.0487
     41 H          -1.1971   -1.3011   -1.6821 H       1  UNL1        0.0487
     42 H           0.3304   -0.6699   -3.3936 H       1  UNL1        0.0575
     43 H           0.6961    0.8893   -2.6183 H       1  UNL1        0.0575
     44 H           2.0011   -1.5583    0.1060 H       1  UNL1        0.0578
     45 H           0.4022   -2.0735   -0.4477 H       1  UNL1        0.0578
     46 H           0.1284   -0.4376    1.3385 H       1  UNL1        0.0526
     47 H           1.7836    1.4045   -0.5419 H       1  UNL1        0.0332
     48 H           0.9727    1.9728    0.9390 H       1  UNL1        0.0332
     49 H           1.7091    1.2525    3.0579 H       1  UNL1        0.0635
     50 H           5.6319   -0.4144    3.3053 H       1  UNL1        0.0654
     51 H           7.5100   -3.3180   -0.7319 H       1  UNL1        0.0864
     52 H           9.0270   -1.1503   -0.3447 H       1  UNL1        0.0864
     53 H           3.7797   -0.0447   -0.4316 H       1  UNL1        0.0642
     54 H          -3.3211   -2.2267    2.9189 H       1  UNL1        0.0864
     55 H          -4.7332   -3.4374    1.0252 H       1  UNL1        0.0864
@<TRIPOS>BOND
     1     1     2    1
     2     2     3   ar
     3     3     4   ar
     4     4     5   ar
     5     5     6   ar
     6     6     7    1
     7     7     8    2
     8     7     9   am
     9     9    10    1
    10    10    11    1
    11    11    12    1
    12    12    13    1
    13    13    14    1
    14    14    15    1
    15    15    16    1
    16    16    17   ar
    17    17    18   ar
    18    18    19    1
    19    18    20   ar
    20    20    21   ar
    21    21    22    1
    22    22    23   ar
    23    23    24   ar
    24    24    25   ar
    25    25    26   ar
    26    21    27   ar
    27     6    28   ar
    28    28    29    1
    29    29    30   ar
    30    30    31   ar
    31    31    32   ar
    32    32    33   ar
    33    28     2   ar
    34    33    29   ar
    35    14     9    1
    36    27    16   ar
    37    26    22   ar
    38     1    34    1
    39     1    35    1
    40     1    36    1
    41     3    37    1
    42     4    38    1
    43     5    39    1
    44    10    40    1
    45    10    41    1
    46    11    42    1
    47    11    43    1
    48    13    44    1
    49    13    45    1
    50    14    46    1
    51    15    47    1
    52    15    48    1
    53    17    49    1
    54    20    50    1
    55    24    51    1
    56    25    52    1
    57    27    53    1
    58    31    54    1
    59    32    55    1
