
     RDKit          3D

 55 57  0  0  0  0  0  0  0  0999 V2000
    0.2974   -0.9350    0.0220 C   0  0  1  0  0  0  0  0  0  0  0  0
    0.9344    0.2661   -0.7101 C   0  0  0  0  0  0  0  0  0  0  0  0
    1.8258   -0.1321   -1.7259 N   0  0  0  0  0  0  0  0  0  0  0  0
    2.3250    1.0132   -2.5002 C   0  0  0  0  0  0  0  0  0  0  0  0
    2.8475   -1.0572   -1.4405 C   0  0  0  0  0  0  0  0  0  0  0  0
    4.0096   -0.6955   -0.6192 C   0  0  0  0  0  0  0  0  0  0  0  0
    3.8269   -0.2307    0.7712 C   0  0  0  0  0  0  0  0  0  0  0  0
    5.2449    0.0031    1.3328 C   0  0  0  0  0  0  0  0  0  0  0  0
    5.8415    0.9588    0.5303 O   0  0  0  0  0  0  0  0  0  0  0  0
    7.0906    1.2810    0.9372 N   0  0  0  0  0  0  0  0  0  0  0  0
   -0.5033   -0.3918    1.0204 O   0  0  0  0  0  0  0  0  0  0  0  0
   -1.7338   -0.9411    1.0329 C   0  0  1  0  0  0  0  0  0  0  0  0
   -2.8293   -0.0396    0.8043 N   0  0  0  0  0  0  0  0  0  0  0  0
   -2.7562    1.2917    0.8356 C   0  0  0  0  0  0  0  0  0  0  0  0
   -1.6970    2.2532    1.0805 C   0  0  0  0  0  0  0  0  0  0  0  0
   -1.6888    3.5657    1.0986 C   0  0  0  0  0  0  0  0  0  0  0  0
   -3.9764    1.8470    0.5743 N   0  0  0  0  0  0  0  0  0  0  0  0
   -4.8507    0.8343    0.3706 C   0  0  0  0  0  0  0  0  0  0  0  0
   -6.2042    0.8722    0.0754 C   0  0  0  0  0  0  0  0  0  0  0  0
   -6.8861    2.1261   -0.0606 N   0  0  0  0  0  0  0  0  0  0  0  0
   -6.8402   -0.3061   -0.0763 N   0  0  0  0  0  0  0  0  0  0  0  0
   -6.1201   -1.4522    0.0683 C   0  0  0  0  0  0  0  0  0  0  0  0
   -4.7980   -1.4565    0.3572 N   0  0  0  0  0  0  0  0  0  0  0  0
   -4.1034   -0.3179    0.5215 C   0  0  0  0  0  0  0  0  0  0  0  0
   -1.7786   -2.0457    0.0101 C   0  0  2  0  0  0  0  0  0  0  0  0
   -1.5042   -3.2596    0.6288 O   0  0  0  0  0  0  0  0  0  0  0  0
   -0.6189   -1.6809   -0.9023 C   0  0  2  0  0  0  0  0  0  0  0  0
   -0.0946   -2.8734   -1.3465 O   0  0  0  0  0  0  0  0  0  0  0  0
    1.0375   -1.6200    0.4342 H   0  0  0  0  0  0  0  0  0  0  0  0
    1.2484    0.9594    0.0530 H   0  0  0  0  0  0  0  0  0  0  0  0
    0.0619    0.8046   -1.2263 H   0  0  0  0  0  0  0  0  0  0  0  0
    2.8795    0.6068   -3.3528 H   0  0  0  0  0  0  0  0  0  0  0  0
    2.8996    1.7228   -1.9068 H   0  0  0  0  0  0  0  0  0  0  0  0
    1.4307    1.5328   -2.9059 H   0  0  0  0  0  0  0  0  0  0  0  0
    2.4005   -1.9982   -1.0160 H   0  0  0  0  0  0  0  0  0  0  0  0
    3.2712   -1.3734   -2.4517 H   0  0  0  0  0  0  0  0  0  0  0  0
    4.7231   -0.0170   -1.1938 H   0  0  0  0  0  0  0  0  0  0  0  0
    4.6452   -1.6387   -0.5370 H   0  0  0  0  0  0  0  0  0  0  0  0
    3.3538    0.7654    0.8811 H   0  0  0  0  0  0  0  0  0  0  0  0
    3.3065   -0.9258    1.4391 H   0  0  0  0  0  0  0  0  0  0  0  0
    5.7425   -0.9741    1.3350 H   0  0  0  0  0  0  0  0  0  0  0  0
    5.0892    0.3602    2.3724 H   0  0  0  0  0  0  0  0  0  0  0  0
    7.2338    0.9743    1.9096 H   0  0  0  0  0  0  0  0  0  0  0  0
    7.8345    0.9057    0.3316 H   0  0  0  0  0  0  0  0  0  0  0  0
   -1.9099   -1.3735    2.0520 H   0  0  0  0  0  0  0  0  0  0  0  0
   -0.7305    1.8258    1.2898 H   0  0  0  0  0  0  0  0  0  0  0  0
   -0.7824    4.1450    1.3069 H   0  0  0  0  0  0  0  0  0  0  0  0
   -2.6370    4.0320    0.8942 H   0  0  0  0  0  0  0  0  0  0  0  0
   -7.7822    2.1821    0.4601 H   0  0  0  0  0  0  0  0  0  0  0  0
   -6.5590    2.9525   -0.6215 H   0  0  0  0  0  0  0  0  0  0  0  0
   -6.5650   -2.4296   -0.0409 H   0  0  0  0  0  0  0  0  0  0  0  0
   -2.7239   -2.1287   -0.5410 H   0  0  0  0  0  0  0  0  0  0  0  0
   -1.2927   -3.0824    1.5726 H   0  0  0  0  0  0  0  0  0  0  0  0
   -0.9846   -1.0261   -1.7375 H   0  0  0  0  0  0  0  0  0  0  0  0
   -0.4502   -3.6794   -0.9193 H   0  0  0  0  0  0  0  0  0  0  0  0
  1  2  1  0
  2  3  1  0
  3  4  1  0
  3  5  1  0
  5  6  1  0
  6  7  1  0
  7  8  1  0
  8  9  1  0
  9 10  1  0
  1 11  1  0
 11 12  1  0
 12 13  1  0
 13 14  1  0
 14 15  1  0
 15 16  2  0
 14 17  2  0
 17 18  1  0
 18 19  2  0
 19 20  1  0
 19 21  1  0
 21 22  2  0
 22 23  1  0
 23 24  2  0
 12 25  1  0
 25 26  1  0
 25 27  1  0
 27 28  1  0
 27  1  1  0
 24 13  1  0
 24 18  1  0
  1 29  1  1
  2 30  1  0
  2 31  1  0
  4 32  1  0
  4 33  1  0
  4 34  1  0
  5 35  1  0
  5 36  1  0
  6 37  1  0
  6 38  1  0
  7 39  1  0
  7 40  1  0
  8 41  1  0
  8 42  1  0
 10 43  1  0
 10 44  1  0
 12 45  1  1
 15 46  1  0
 16 47  1  0
 16 48  1  0
 20 49  1  0
 20 50  1  0
 22 51  1  0
 25 52  1  6
 26 53  1  0
 27 54  1  6
 28 55  1  0
M  END
$$$$
