@<TRIPOS>MOLECULE
*****
 55 57 0 0 0
SMALL
GASTEIGER

@<TRIPOS>ATOM
      1 C           0.2974   -0.9350    0.0220 C.3     1  UNL1        0.1023
      2 C           0.9344    0.2661   -0.7101 C.3     1  UNL1        0.0275
      3 N           1.8258   -0.1321   -1.7259 N.3     1  UNL1       -0.3028
      4 C           2.3250    1.0132   -2.5002 C.3     1  UNL1       -0.0127
      5 C           2.8475   -1.0572   -1.4405 C.3     1  UNL1       -0.0012
      6 C           4.0096   -0.6955   -0.6192 C.3     1  UNL1       -0.0381
      7 C           3.8269   -0.2307    0.7712 C.3     1  UNL1       -0.0264
      8 C           5.2449    0.0031    1.3328 C.3     1  UNL1        0.0689
      9 O           5.8415    0.9588    0.5303 O.3     1  UNL1       -0.3025
     10 N           7.0906    1.2810    0.9372 N.3     1  UNL1       -0.2147
     11 O          -0.5033   -0.3918    1.0204 O.3     1  UNL1       -0.3467
     12 C          -1.7338   -0.9411    1.0329 C.3     1  UNL1        0.1671
     13 N          -2.8293   -0.0396    0.8043 N.ar    1  UNL1       -0.2795
     14 C          -2.7562    1.2917    0.8356 C.ar    1  UNL1        0.1374
     15 C          -1.6970    2.2532    1.0805 C.2     1  UNL1       -0.0261
     16 C          -1.6888    3.5657    1.0986 C.2     1  UNL1       -0.0952
     17 N          -3.9764    1.8470    0.5743 N.ar    1  UNL1       -0.2230
     18 C          -4.8507    0.8343    0.3706 C.ar    1  UNL1        0.1479
     19 C          -6.2042    0.8722    0.0754 C.ar    1  UNL1        0.1472
     20 N          -6.8861    2.1261   -0.0606 N.pl3   1  UNL1       -0.3413
     21 N          -6.8402   -0.3061   -0.0763 N.ar    1  UNL1       -0.2188
     22 C          -6.1201   -1.4522    0.0683 C.ar    1  UNL1        0.1205
     23 N          -4.7980   -1.4565    0.3572 N.ar    1  UNL1       -0.2159
     24 C          -4.1034   -0.3179    0.5215 C.ar    1  UNL1        0.1678
     25 C          -1.7786   -2.0457    0.0101 C.3     1  UNL1        0.1285
     26 O          -1.5042   -3.2596    0.6288 O.3     1  UNL1       -0.3847
     27 C          -0.6189   -1.6809   -0.9023 C.3     1  UNL1        0.1126
     28 O          -0.0946   -2.8734   -1.3465 O.3     1  UNL1       -0.3865
     29 H           1.0375   -1.6200    0.4342 H       1  UNL1        0.0636
     30 H           1.2484    0.9594    0.0530 H       1  UNL1        0.0453
     31 H           0.0619    0.8046   -1.2263 H       1  UNL1        0.0453
     32 H           2.8795    0.6068   -3.3528 H       1  UNL1        0.0391
     33 H           2.8996    1.7228   -1.9068 H       1  UNL1        0.0391
     34 H           1.4307    1.5328   -2.9059 H       1  UNL1        0.0391
     35 H           2.4005   -1.9982   -1.0160 H       1  UNL1        0.0426
     36 H           3.2712   -1.3734   -2.4517 H       1  UNL1        0.0426
     37 H           4.7231   -0.0170   -1.1938 H       1  UNL1        0.0278
     38 H           4.6452   -1.6387   -0.5370 H       1  UNL1        0.0278
     39 H           3.3538    0.7654    0.8811 H       1  UNL1        0.0288
     40 H           3.3065   -0.9258    1.4391 H       1  UNL1        0.0288
     41 H           5.7425   -0.9741    1.3350 H       1  UNL1        0.0580
     42 H           5.0892    0.3602    2.3724 H       1  UNL1        0.0580
     43 H           7.2338    0.9743    1.9096 H       1  UNL1        0.1500
     44 H           7.8345    0.9057    0.3316 H       1  UNL1        0.1500
     45 H          -1.9099   -1.3735    2.0520 H       1  UNL1        0.0867
     46 H          -0.7305    1.8258    1.2898 H       1  UNL1        0.0648
     47 H          -0.7824    4.1450    1.3069 H       1  UNL1        0.0536
     48 H          -2.6370    4.0320    0.8942 H       1  UNL1        0.0536
     49 H          -7.7822    2.1821    0.4601 H       1  UNL1        0.1438
     50 H          -6.5590    2.9525   -0.6215 H       1  UNL1        0.1438
     51 H          -6.5650   -2.4296   -0.0409 H       1  UNL1        0.1048
     52 H          -2.7239   -2.1287   -0.5410 H       1  UNL1        0.0665
     53 H          -1.2927   -3.0824    1.5726 H       1  UNL1        0.2101
     54 H          -0.9846   -1.0261   -1.7375 H       1  UNL1        0.0647
     55 H          -0.4502   -3.6794   -0.9193 H       1  UNL1        0.2100
@<TRIPOS>BOND
     1     1     2    1
     2     2     3    1
     3     3     4    1
     4     3     5    1
     5     5     6    1
     6     6     7    1
     7     7     8    1
     8     8     9    1
     9     9    10    1
    10     1    11    1
    11    11    12    1
    12    12    13    1
    13    13    14   ar
    14    14    15    1
    15    15    16    2
    16    14    17   ar
    17    17    18   ar
    18    18    19   ar
    19    19    20    1
    20    19    21   ar
    21    21    22   ar
    22    22    23   ar
    23    23    24   ar
    24    12    25    1
    25    25    26    1
    26    25    27    1
    27    27    28    1
    28    27     1    1
    29    24    13   ar
    30    24    18   ar
    31     1    29    1
    32     2    30    1
    33     2    31    1
    34     4    32    1
    35     4    33    1
    36     4    34    1
    37     5    35    1
    38     5    36    1
    39     6    37    1
    40     6    38    1
    41     7    39    1
    42     7    40    1
    43     8    41    1
    44     8    42    1
    45    10    43    1
    46    10    44    1
    47    12    45    1
    48    15    46    1
    49    16    47    1
    50    16    48    1
    51    20    49    1
    52    20    50    1
    53    22    51    1
    54    25    52    1
    55    26    53    1
    56    27    54    1
    57    28    55    1
