@<TRIPOS>MOLECULE
*****
 53 56 0 0 0
SMALL
GASTEIGER

@<TRIPOS>ATOM
      1 C           9.1993    1.6056   -1.5264 C.3     1  UNL1        0.0788
      2 O           8.5381    0.3530   -1.6867 O.3     1  UNL1       -0.4951
      3 C           7.3309    0.0894   -1.0550 C.ar    1  UNL1        0.1202
      4 C           6.7138   -1.1203   -1.2229 C.ar    1  UNL1       -0.0182
      5 C           5.5146   -1.3243   -0.5692 C.ar    1  UNL1       -0.0370
      6 C           4.9304   -0.3768    0.2272 C.ar    1  UNL1        0.0337
      7 N           3.7104   -0.6475    0.8639 N.am    1  UNL1       -0.2840
      8 C           2.4386   -0.3793    0.2930 C.2     1  UNL1        0.2373
      9 O           2.3995    0.1298   -0.8490 O.2     1  UNL1       -0.2734
     10 C           1.1897   -0.7044    1.0535 C.3     1  UNL1        0.0970
     11 C           1.2395   -2.1605    1.4682 C.3     1  UNL1       -0.0381
     12 N           0.0175   -0.3662    0.3115 N.pl3   1  UNL1       -0.3038
     13 C          -1.3115   -0.5073    0.7976 C.ar    1  UNL1        0.1981
     14 N          -2.3852   -0.2125    0.0427 N.ar    1  UNL1       -0.1964
     15 C          -3.6242   -0.3580    0.5528 C.ar    1  UNL1        0.1672
     16 C          -3.8521   -0.8029    1.8356 C.ar    1  UNL1        0.1028
     17 C          -5.2032   -0.8312    2.0206 C.ar    1  UNL1        0.0639
     18 N          -5.7591   -0.4122    0.8716 N.ar    1  UNL1       -0.1767
     19 N          -4.8373   -0.1229   -0.0226 N.ar    1  UNL1       -0.2431
     20 C          -5.0326    0.3633   -1.3919 C.3     1  UNL1        0.0549
     21 C          -5.1263    1.8607   -1.4434 C.3     1  UNL1       -0.0304
     22 C          -6.4561    2.1494   -0.7440 C.3     1  UNL1       -0.0511
     23 C          -7.3351    0.9574   -1.0653 C.3     1  UNL1       -0.0511
     24 C          -6.4598   -0.0395   -1.7859 C.3     1  UNL1       -0.0304
     25 C          -2.7369   -1.1045    2.6071 C.ar    1  UNL1        0.2634
     26 O          -2.9424   -1.5084    3.7718 O.2     1  UNL1       -0.2670
     27 N          -1.5227   -0.9473    2.0659 N.ar    1  UNL1       -0.2945
     28 C           5.5555    0.8293    0.3885 C.ar    1  UNL1       -0.0370
     29 C           6.7707    1.0670   -0.2598 C.ar    1  UNL1       -0.0182
     30 H           8.5951    2.3578   -2.0523 H       1  UNL1        0.0660
     31 H          10.2355    1.5646   -1.9035 H       1  UNL1        0.0660
     32 H           9.2463    1.8148   -0.4192 H       1  UNL1        0.0660
     33 H           7.1553   -1.8857   -1.8471 H       1  UNL1        0.0655
     34 H           5.0073   -2.2658   -0.6832 H       1  UNL1        0.0637
     35 H           3.6995   -1.0778    1.8294 H       1  UNL1        0.1549
     36 H           1.2184   -0.0930    1.9761 H       1  UNL1        0.0592
     37 H           0.3532   -2.7412    1.1916 H       1  UNL1        0.0252
     38 H           1.4120   -2.2959    2.5549 H       1  UNL1        0.0252
     39 H           2.1347   -2.6561    0.9871 H       1  UNL1        0.0252
     40 H           0.1480    0.0154   -0.6660 H       1  UNL1        0.1496
     41 H          -5.6784   -1.1430    2.9442 H       1  UNL1        0.0856
     42 H          -4.2789   -0.0757   -2.0413 H       1  UNL1        0.0545
     43 H          -5.2523    2.1539   -2.4917 H       1  UNL1        0.0286
     44 H          -4.2852    2.3775   -0.9518 H       1  UNL1        0.0286
     45 H          -6.2941    2.2687    0.3544 H       1  UNL1        0.0266
     46 H          -6.9238    3.0462   -1.1904 H       1  UNL1        0.0266
     47 H          -8.1913    1.2070   -1.6960 H       1  UNL1        0.0266
     48 H          -7.7085    0.5594   -0.0894 H       1  UNL1        0.0266
     49 H          -6.6522   -1.0306   -1.3008 H       1  UNL1        0.0286
     50 H          -6.6036   -0.0565   -2.8670 H       1  UNL1        0.0286
     51 H          -0.6930   -1.1739    2.6563 H       1  UNL1        0.1716
     52 H           5.1510    1.6217    1.0022 H       1  UNL1        0.0637
     53 H           7.2411    2.0295   -0.1132 H       1  UNL1        0.0655
@<TRIPOS>BOND
     1     1     2    1
     2     2     3    1
     3     3     4   ar
     4     4     5   ar
     5     5     6   ar
     6     6     7    1
     7     7     8   am
     8     8     9    2
     9     8    10    1
    10    10    11    1
    11    10    12    1
    12    12    13    1
    13    13    14   ar
    14    14    15   ar
    15    15    16   ar
    16    16    17   ar
    17    17    18   ar
    18    18    19   ar
    19    19    20    1
    20    20    21    1
    21    21    22    1
    22    22    23    1
    23    23    24    1
    24    16    25   ar
    25    25    26    2
    26    25    27   ar
    27     6    28   ar
    28    28    29   ar
    29    29     3   ar
    30    27    13   ar
    31    19    15   ar
    32    24    20    1
    33     1    30    1
    34     1    31    1
    35     1    32    1
    36     4    33    1
    37     5    34    1
    38     7    35    1
    39    10    36    1
    40    11    37    1
    41    11    38    1
    42    11    39    1
    43    12    40    1
    44    17    41    1
    45    20    42    1
    46    21    43    1
    47    21    44    1
    48    22    45    1
    49    22    46    1
    50    23    47    1
    51    23    48    1
    52    24    49    1
    53    24    50    1
    54    27    51    1
    55    28    52    1
    56    29    53    1
