
     RDKit          3D

 50 53  0  0  0  0  0  0  0  0999 V2000
    4.5260    2.8541    1.2142 C   0  0  0  0  0  0  0  0  0  0  0  0
    4.6964    1.6221    0.4084 C   0  0  0  0  0  0  0  0  0  0  0  0
    3.7476    0.6290    0.3830 C   0  0  0  0  0  0  0  0  0  0  0  0
    3.8903   -0.5359   -0.3687 C   0  0  0  0  0  0  0  0  0  0  0  0
    2.9169   -1.5151   -0.3720 C   0  0  0  0  0  0  0  0  0  0  0  0
    1.7284   -1.3675    0.3953 N   0  0  0  0  0  0  0  0  0  0  0  0
    0.6105   -0.7424   -0.2181 C   0  0  0  0  0  0  0  0  0  0  0  0
    0.6645   -0.3226   -1.4256 O   0  0  0  0  0  0  0  0  0  0  0  0
   -0.6273   -0.5360    0.4389 N   0  0  0  0  0  0  0  0  0  0  0  0
   -1.7767    0.1137   -0.2070 C   0  0  2  0  0  0  0  0  0  0  0  0
   -2.0706    1.3602    0.5373 C   0  0  0  0  0  0  0  0  0  0  0  0
   -3.4197    1.5242    1.1178 C   0  0  0  0  0  0  0  0  0  0  0  0
   -4.2827    2.4106    0.2059 C   0  0  0  0  0  0  0  0  0  0  0  0
   -4.4321    1.8854   -1.0389 F   0  0  0  0  0  0  0  0  0  0  0  0
   -3.3176    2.2826    2.4276 C   0  0  0  0  0  0  0  0  0  0  0  0
   -2.5147    1.5585    3.2929 F   0  0  0  0  0  0  0  0  0  0  0  0
   -4.1022    0.3186    1.4145 O   0  0  0  0  0  0  0  0  0  0  0  0
   -4.0184   -0.6888    0.4403 C   0  0  0  0  0  0  0  0  0  0  0  0
   -5.0888   -1.5489    0.3147 C   0  0  0  0  0  0  0  0  0  0  0  0
   -5.0798   -2.5752   -0.6313 C   0  0  0  0  0  0  0  0  0  0  0  0
   -6.1349   -3.4002   -0.7344 F   0  0  0  0  0  0  0  0  0  0  0  0
   -3.9660   -2.6806   -1.4171 C   0  0  0  0  0  0  0  0  0  0  0  0
   -2.8913   -1.8283   -1.3013 C   0  0  0  0  0  0  0  0  0  0  0  0
   -2.9088   -0.8184   -0.3651 C   0  0  0  0  0  0  0  0  0  0  0  0
    3.1368   -2.6371   -1.1436 C   0  0  0  0  0  0  0  0  0  0  0  0
    4.2894   -2.7808   -1.8890 C   0  0  0  0  0  0  0  0  0  0  0  0
    5.2551   -1.7866   -1.8725 C   0  0  0  0  0  0  0  0  0  0  0  0
    5.0539   -0.6502   -1.1032 C   0  0  0  0  0  0  0  0  0  0  0  0
    5.9907    0.3746   -1.0527 C   0  0  0  0  0  0  0  0  0  0  0  0
    5.8045    1.4796   -0.3105 N   0  0  0  0  0  0  0  0  0  0  0  0
    5.3623    2.9801    1.9396 H   0  0  0  0  0  0  0  0  0  0  0  0
    4.6407    3.7081    0.4822 H   0  0  0  0  0  0  0  0  0  0  0  0
    3.5326    2.9678    1.6546 H   0  0  0  0  0  0  0  0  0  0  0  0
    2.8524    0.7595    0.9728 H   0  0  0  0  0  0  0  0  0  0  0  0
    1.6325   -1.6934    1.3862 H   0  0  0  0  0  0  0  0  0  0  0  0
   -0.7024   -0.8736    1.4386 H   0  0  0  0  0  0  0  0  0  0  0  0
   -1.4278    0.3610   -1.2369 H   0  0  0  0  0  0  0  0  0  0  0  0
   -1.8968    2.2542   -0.1367 H   0  0  0  0  0  0  0  0  0  0  0  0
   -1.3094    1.5413    1.3551 H   0  0  0  0  0  0  0  0  0  0  0  0
   -3.7737    3.4064    0.2064 H   0  0  0  0  0  0  0  0  0  0  0  0
   -5.2787    2.5894    0.6647 H   0  0  0  0  0  0  0  0  0  0  0  0
   -2.9468    3.2908    2.2314 H   0  0  0  0  0  0  0  0  0  0  0  0
   -4.3287    2.3693    2.8711 H   0  0  0  0  0  0  0  0  0  0  0  0
   -5.9817   -1.4789    0.9318 H   0  0  0  0  0  0  0  0  0  0  0  0
   -3.9665   -3.4900   -2.1585 H   0  0  0  0  0  0  0  0  0  0  0  0
   -2.0324   -1.9775   -1.9697 H   0  0  0  0  0  0  0  0  0  0  0  0
    2.4258   -3.4495   -1.2022 H   0  0  0  0  0  0  0  0  0  0  0  0
    4.4412   -3.6673   -2.4862 H   0  0  0  0  0  0  0  0  0  0  0  0
    6.1767   -1.8574   -2.4432 H   0  0  0  0  0  0  0  0  0  0  0  0
    6.9013    0.2612   -1.6412 H   0  0  0  0  0  0  0  0  0  0  0  0
  1  2  1  0
  2  3  2  0
  3  4  1  0
  4  5  2  0
  5  6  1  0
  6  7  1  0
  7  8  2  0
  7  9  1  0
  9 10  1  0
 10 11  1  0
 11 12  1  0
 12 13  1  0
 13 14  1  0
 12 15  1  0
 15 16  1  0
 12 17  1  0
 17 18  1  0
 18 19  2  0
 19 20  1  0
 20 21  1  0
 20 22  2  0
 22 23  1  0
 23 24  2  0
  5 25  1  0
 25 26  2  0
 26 27  1  0
 27 28  2  0
 28 29  1  0
 29 30  2  0
 30  2  1  0
 28  4  1  0
 24 10  1  0
 24 18  1  0
  1 31  1  0
  1 32  1  0
  1 33  1  0
  3 34  1  0
  6 35  1  0
  9 36  1  0
 10 37  1  6
 11 38  1  0
 11 39  1  0
 13 40  1  0
 13 41  1  0
 15 42  1  0
 15 43  1  0
 19 44  1  0
 22 45  1  0
 23 46  1  0
 25 47  1  0
 26 48  1  0
 27 49  1  0
 29 50  1  0
M  END
$$$$
