@<TRIPOS>MOLECULE
*****
 50 53 0 0 0
SMALL
GASTEIGER

@<TRIPOS>ATOM
      1 C           4.5260    2.8541    1.2142 C.3     1  UNL1       -0.0223
      2 C           4.6964    1.6221    0.4084 C.ar    1  UNL1        0.0389
      3 C           3.7476    0.6290    0.3830 C.ar    1  UNL1       -0.0312
      4 C           3.8903   -0.5359   -0.3687 C.ar    1  UNL1        0.0065
      5 C           2.9169   -1.5151   -0.3720 C.ar    1  UNL1        0.0426
      6 N           1.7284   -1.3675    0.3953 N.am    1  UNL1       -0.2689
      7 C           0.6105   -0.7424   -0.2181 C.2     1  UNL1        0.3044
      8 O           0.6645   -0.3226   -1.4256 O.2     1  UNL1       -0.2525
      9 N          -0.6273   -0.5360    0.4389 N.am    1  UNL1       -0.2921
     10 C          -1.7767    0.1137   -0.2070 C.3     1  UNL1        0.0570
     11 C          -2.0706    1.3602    0.5373 C.3     1  UNL1        0.0149
     12 C          -3.4197    1.5242    1.1178 C.3     1  UNL1        0.1683
     13 C          -4.2827    2.4106    0.2059 C.3     1  UNL1        0.1322
     14 F          -4.4321    1.8854   -1.0389 F       1  UNL1       -0.2448
     15 C          -3.3176    2.2826    2.4276 C.3     1  UNL1        0.1322
     16 F          -2.5147    1.5585    3.2929 F       1  UNL1       -0.2448
     17 O          -4.1022    0.3186    1.4145 O.3     1  UNL1       -0.4800
     18 C          -4.0184   -0.6888    0.4403 C.ar    1  UNL1        0.1292
     19 C          -5.0888   -1.5489    0.3147 C.ar    1  UNL1        0.0157
     20 C          -5.0798   -2.5752   -0.6313 C.ar    1  UNL1        0.1269
     21 F          -6.1349   -3.4002   -0.7344 F       1  UNL1       -0.2054
     22 C          -3.9660   -2.6806   -1.4171 C.ar    1  UNL1       -0.0259
     23 C          -2.8913   -1.8283   -1.3013 C.ar    1  UNL1       -0.0506
     24 C          -2.9088   -0.8184   -0.3651 C.ar    1  UNL1        0.0148
     25 C           3.1368   -2.6371   -1.1436 C.ar    1  UNL1       -0.0398
     26 C           4.2894   -2.7808   -1.8890 C.ar    1  UNL1       -0.0594
     27 C           5.2551   -1.7866   -1.8725 C.ar    1  UNL1       -0.0525
     28 C           5.0539   -0.6502   -1.1032 C.ar    1  UNL1        0.0020
     29 C           5.9907    0.3746   -1.0527 C.ar    1  UNL1        0.0356
     30 N           5.8045    1.4796   -0.3105 N.ar    1  UNL1       -0.2595
     31 H           5.3623    2.9801    1.9396 H       1  UNL1        0.0292
     32 H           4.6407    3.7081    0.4822 H       1  UNL1        0.0292
     33 H           3.5326    2.9678    1.6546 H       1  UNL1        0.0292
     34 H           2.8524    0.7595    0.9728 H       1  UNL1        0.0642
     35 H           1.6325   -1.6934    1.3862 H       1  UNL1        0.1564
     36 H          -0.7024   -0.8736    1.4386 H       1  UNL1        0.1508
     37 H          -1.4278    0.3610   -1.2369 H       1  UNL1        0.0551
     38 H          -1.8968    2.2542   -0.1367 H       1  UNL1        0.0327
     39 H          -1.3094    1.5413    1.3551 H       1  UNL1        0.0327
     40 H          -3.7737    3.4064    0.2064 H       1  UNL1        0.0656
     41 H          -5.2787    2.5894    0.6647 H       1  UNL1        0.0656
     42 H          -2.9468    3.2908    2.2314 H       1  UNL1        0.0656
     43 H          -4.3287    2.3693    2.8711 H       1  UNL1        0.0656
     44 H          -5.9817   -1.4789    0.9318 H       1  UNL1        0.0683
     45 H          -3.9665   -3.4900   -2.1585 H       1  UNL1        0.0646
     46 H          -2.0324   -1.9775   -1.9697 H       1  UNL1        0.0623
     47 H           2.4258   -3.4495   -1.2022 H       1  UNL1        0.0636
     48 H           4.4412   -3.6673   -2.4862 H       1  UNL1        0.0618
     49 H           6.1767   -1.8574   -2.4432 H       1  UNL1        0.0624
     50 H           6.9013    0.2612   -1.6412 H       1  UNL1        0.0836
@<TRIPOS>BOND
     1     1     2    1
     2     2     3   ar
     3     3     4   ar
     4     4     5   ar
     5     5     6    1
     6     6     7   am
     7     7     8    2
     8     7     9   am
     9     9    10    1
    10    10    11    1
    11    11    12    1
    12    12    13    1
    13    13    14    1
    14    12    15    1
    15    15    16    1
    16    12    17    1
    17    17    18    1
    18    18    19   ar
    19    19    20   ar
    20    20    21    1
    21    20    22   ar
    22    22    23   ar
    23    23    24   ar
    24     5    25   ar
    25    25    26   ar
    26    26    27   ar
    27    27    28   ar
    28    28    29   ar
    29    29    30   ar
    30    30     2   ar
    31    28     4   ar
    32    24    10    1
    33    24    18   ar
    34     1    31    1
    35     1    32    1
    36     1    33    1
    37     3    34    1
    38     6    35    1
    39     9    36    1
    40    10    37    1
    41    11    38    1
    42    11    39    1
    43    13    40    1
    44    13    41    1
    45    15    42    1
    46    15    43    1
    47    19    44    1
    48    22    45    1
    49    23    46    1
    50    25    47    1
    51    26    48    1
    52    27    49    1
    53    29    50    1
