@<TRIPOS>MOLECULE
*****
 62 65 0 0 0
SMALL
GASTEIGER

@<TRIPOS>ATOM
      1 C          -8.8924    0.6770   -0.9662 C.3     1  UNL1        0.0386
      2 C          -7.8050    0.0992   -0.1258 C.2     1  UNL1        0.2771
      3 N          -8.1203   -0.2440    1.0839 N.2     1  UNL1       -0.1041
      4 N          -6.4912   -0.0739   -0.6042 N.pl3   1  UNL1       -0.2225
      5 C          -6.1583    0.0181   -2.0016 C.3     1  UNL1        0.0930
      6 C          -5.1388    1.1194   -2.1686 C.3     1  UNL1        0.0355
      7 N          -4.0856    1.0097   -1.1928 N.3     1  UNL1       -0.2911
      8 C          -2.8228    1.1218   -1.8619 C.3     1  UNL1        0.0243
      9 C          -1.6599    1.0230   -0.9539 C.ar    1  UNL1       -0.0333
     10 C          -1.1255   -0.2301   -0.7169 C.ar    1  UNL1       -0.0566
     11 C          -0.0279   -0.3738    0.1332 C.ar    1  UNL1       -0.0493
     12 C           0.5500    0.7080    0.7537 C.ar    1  UNL1        0.0370
     13 C           1.7001    0.5845    1.6485 C.2     1  UNL1        0.2483
     14 O           2.2037    1.6135    2.2039 O.2     1  UNL1       -0.2699
     15 N           2.3253   -0.6419    1.9598 N.am    1  UNL1       -0.2808
     16 C           3.4351   -0.7258    2.8287 C.ar    1  UNL1        0.0459
     17 C           3.1668   -0.9110    4.1883 C.ar    1  UNL1       -0.0384
     18 C           4.1820   -1.0041    5.1084 C.ar    1  UNL1       -0.0416
     19 C           5.4793   -0.9164    4.7053 C.ar    1  UNL1        0.0418
     20 CL          6.7916   -1.0337    5.8709 Cl      1  UNL1       -0.0835
     21 C           5.7372   -0.7319    3.3481 C.ar    1  UNL1       -0.0295
     22 C           4.7342   -0.6360    2.4093 C.ar    1  UNL1        0.0596
     23 C           5.0542   -0.4437    1.0052 C.2     1  UNL1        0.2511
     24 O           4.0936   -0.3632    0.1903 O.2     1  UNL1       -0.2697
     25 N           6.3467   -0.3379    0.4645 N.am    1  UNL1       -0.2663
     26 C           6.6023   -0.1481   -0.9334 C.ar    1  UNL1        0.1252
     27 C           6.7614   -1.2267   -1.7839 C.ar    1  UNL1       -0.0201
     28 C           7.0098   -1.0719   -3.1420 C.ar    1  UNL1       -0.0387
     29 C           7.1027    0.2058   -3.6706 C.ar    1  UNL1        0.0592
     30 CL          7.4147    0.4447   -5.3789 Cl      1  UNL1       -0.0820
     31 C           6.9390    1.2661   -2.7946 C.ar    1  UNL1        0.0480
     32 N           6.6996    1.0732   -1.4848 N.ar    1  UNL1       -0.2387
     33 C           0.0101    1.9486    0.5105 C.ar    1  UNL1       -0.0493
     34 C          -1.0826    2.0999   -0.3345 C.ar    1  UNL1       -0.0566
     35 C          -4.1109   -0.1714   -0.3915 C.3     1  UNL1        0.0355
     36 C          -5.4300   -0.3548    0.3350 C.3     1  UNL1        0.0930
     37 H          -8.5292    1.2930   -1.7885 H       1  UNL1        0.0351
     38 H          -9.5718   -0.1142   -1.3465 H       1  UNL1        0.0351
     39 H          -9.4918    1.3455   -0.2823 H       1  UNL1        0.0351
     40 H          -7.3790   -0.6576    1.7128 H       1  UNL1        0.3629
     41 H          -7.0454    0.1855   -2.6437 H       1  UNL1        0.0739
     42 H          -5.7034   -0.9384   -2.3839 H       1  UNL1        0.0739
     43 H          -4.7141    1.1126   -3.2151 H       1  UNL1        0.0464
     44 H          -5.6408    2.0940   -1.9993 H       1  UNL1        0.0464
     45 H          -2.7659    0.2922   -2.6068 H       1  UNL1        0.0476
     46 H          -2.8083    2.0841   -2.4298 H       1  UNL1        0.0476
     47 H          -1.5608   -1.0936   -1.1916 H       1  UNL1        0.0621
     48 H           0.3552   -1.3697    0.2885 H       1  UNL1        0.0625
     49 H           1.9538   -1.5061    1.5342 H       1  UNL1        0.1552
     50 H           2.1386   -0.9811    4.5127 H       1  UNL1        0.0637
     51 H           3.9644   -1.1467    6.1523 H       1  UNL1        0.0633
     52 H           6.7833   -0.6664    3.0628 H       1  UNL1        0.0640
     53 H           7.1549   -0.3982    1.0937 H       1  UNL1        0.1566
     54 H           6.6896   -2.2141   -1.3757 H       1  UNL1        0.0652
     55 H           7.1364   -1.8993   -3.8193 H       1  UNL1        0.0634
     56 H           7.0157    2.2627   -3.2304 H       1  UNL1        0.0845
     57 H           0.4211    2.8235    0.9676 H       1  UNL1        0.0625
     58 H          -1.4935    3.0840   -0.5136 H       1  UNL1        0.0621
     59 H          -3.9508   -1.1047   -0.9780 H       1  UNL1        0.0464
     60 H          -3.3327   -0.0958    0.3704 H       1  UNL1        0.0464
     61 H          -5.5055    0.2469    1.2465 H       1  UNL1        0.0739
     62 H          -5.5078   -1.4166    0.6218 H       1  UNL1        0.0739
@<TRIPOS>BOND
     1     1     2    1
     2     2     3    2
     3     2     4    1
     4     4     5    1
     5     5     6    1
     6     6     7    1
     7     7     8    1
     8     8     9    1
     9     9    10   ar
    10    10    11   ar
    11    11    12   ar
    12    12    13    1
    13    13    14    2
    14    13    15   am
    15    15    16    1
    16    16    17   ar
    17    17    18   ar
    18    18    19   ar
    19    19    20    1
    20    19    21   ar
    21    21    22   ar
    22    22    23    1
    23    23    24    2
    24    23    25   am
    25    25    26    1
    26    26    27   ar
    27    27    28   ar
    28    28    29   ar
    29    29    30    1
    30    29    31   ar
    31    31    32   ar
    32    12    33   ar
    33    33    34   ar
    34     7    35    1
    35    35    36    1
    36    36     4    1
    37    34     9   ar
    38    22    16   ar
    39    32    26   ar
    40     1    37    1
    41     1    38    1
    42     1    39    1
    43     3    40    1
    44     5    41    1
    45     5    42    1
    46     6    43    1
    47     6    44    1
    48     8    45    1
    49     8    46    1
    50    10    47    1
    51    11    48    1
    52    15    49    1
    53    17    50    1
    54    18    51    1
    55    21    52    1
    56    25    53    1
    57    27    54    1
    58    28    55    1
    59    31    56    1
    60    33    57    1
    61    34    58    1
    62    35    59    1
    63    35    60    1
    64    36    61    1
    65    36    62    1
