
     RDKit          3D

 51 54  0  0  0  0  0  0  0  0999 V2000
    2.8267    4.4855    1.0695 C   0  0  0  0  0  0  0  0  0  0  0  0
    3.4204    3.7493   -0.4908 S   0  0  0  0  0  0  0  0  0  0  0  0
    3.4826    1.9710   -0.2730 C   0  0  0  0  0  0  0  0  0  0  0  0
    2.4201    1.1285   -0.5548 C   0  0  0  0  0  0  0  0  0  0  0  0
    2.4315   -0.2389   -0.4002 C   0  0  0  0  0  0  0  0  0  0  0  0
    3.6302   -0.7059    0.0743 C   0  0  0  0  0  0  0  0  0  0  0  0
    3.8973   -2.4398    0.3715 S   0  0  0  0  0  0  0  0  0  0  0  0
    2.3558   -3.1888   -0.1100 C   0  0  0  0  0  0  0  0  0  0  0  0
    2.3675   -4.5495    0.0225 C   0  0  0  0  0  0  0  0  0  0  0  0
    1.2333   -5.2756   -0.3233 C   0  0  0  0  0  0  0  0  0  0  0  0
    0.1271   -4.5596   -0.7950 C   0  0  0  0  0  0  0  0  0  0  0  0
    0.2065   -3.1804   -0.8961 C   0  0  0  0  0  0  0  0  0  0  0  0
    1.3022   -2.4392   -0.5651 C   0  0  0  0  0  0  0  0  0  0  0  0
    1.3155   -1.0309   -0.7105 N   0  0  0  0  0  0  0  0  0  0  0  0
    0.1339   -0.4079   -1.1542 C   0  0  0  0  0  0  0  0  0  0  0  0
   -0.9111   -0.4188   -0.0516 C   0  0  0  0  0  0  0  0  0  0  0  0
   -2.2051    0.2430   -0.5466 C   0  0  0  0  0  0  0  0  0  0  0  0
   -1.9033    1.6434   -0.9331 C   0  0  0  0  0  0  0  0  0  0  0  0
   -3.1440    2.5059   -0.8919 C   0  0  0  0  0  0  0  0  0  0  0  0
   -3.6242    2.4823    0.5365 C   0  0  0  0  0  0  0  0  0  0  0  0
   -3.8273    1.1001    1.0666 C   0  0  0  0  0  0  0  0  0  0  0  0
   -3.2066    0.0360    0.4065 N   0  0  0  0  0  0  0  0  0  0  0  0
   -3.9198   -1.1962    0.3473 C   0  0  0  0  0  0  0  0  0  0  0  0
    4.7295    0.0550    0.3780 C   0  0  0  0  0  0  0  0  0  0  0  0
    4.6612    1.4328    0.2019 C   0  0  0  0  0  0  0  0  0  0  0  0
    3.5782    4.3244    1.8624 H   0  0  0  0  0  0  0  0  0  0  0  0
    2.5579    5.5426    0.9269 H   0  0  0  0  0  0  0  0  0  0  0  0
    1.9232    3.8900    1.3649 H   0  0  0  0  0  0  0  0  0  0  0  0
    1.5805    1.6725   -0.9083 H   0  0  0  0  0  0  0  0  0  0  0  0
    3.1846   -5.1497    0.3773 H   0  0  0  0  0  0  0  0  0  0  0  0
    1.2000   -6.3513   -0.2339 H   0  0  0  0  0  0  0  0  0  0  0  0
   -0.7351   -5.1743   -1.0520 H   0  0  0  0  0  0  0  0  0  0  0  0
   -0.6993   -2.7971   -1.2771 H   0  0  0  0  0  0  0  0  0  0  0  0
    0.1030    0.5782   -1.5513 H   0  0  0  0  0  0  0  0  0  0  0  0
   -0.2335   -1.0180   -2.0440 H   0  0  0  0  0  0  0  0  0  0  0  0
   -0.4611    0.2894    0.7250 H   0  0  0  0  0  0  0  0  0  0  0  0
   -1.0534   -1.3444    0.4753 H   0  0  0  0  0  0  0  0  0  0  0  0
   -2.4616   -0.3308   -1.4745 H   0  0  0  0  0  0  0  0  0  0  0  0
   -1.0862    2.0664   -0.3240 H   0  0  0  0  0  0  0  0  0  0  0  0
   -1.5444    1.7000   -1.9940 H   0  0  0  0  0  0  0  0  0  0  0  0
   -2.8797    3.5510   -1.1409 H   0  0  0  0  0  0  0  0  0  0  0  0
   -3.9036    2.0698   -1.5442 H   0  0  0  0  0  0  0  0  0  0  0  0
   -4.5271    3.1266    0.6020 H   0  0  0  0  0  0  0  0  0  0  0  0
   -2.8389    3.0194    1.1447 H   0  0  0  0  0  0  0  0  0  0  0  0
   -3.5613    1.0759    2.1525 H   0  0  0  0  0  0  0  0  0  0  0  0
   -4.9428    0.9196    1.0449 H   0  0  0  0  0  0  0  0  0  0  0  0
   -3.1743   -2.0235    0.5334 H   0  0  0  0  0  0  0  0  0  0  0  0
   -4.3360   -1.3883   -0.6524 H   0  0  0  0  0  0  0  0  0  0  0  0
   -4.6598   -1.2206    1.1741 H   0  0  0  0  0  0  0  0  0  0  0  0
    5.6697   -0.3006    0.7487 H   0  0  0  0  0  0  0  0  0  0  0  0
    5.5018    2.0713    0.4278 H   0  0  0  0  0  0  0  0  0  0  0  0
  1  2  1  0
  2  3  1  0
  3  4  2  0
  4  5  1  0
  5  6  2  0
  6  7  1  0
  7  8  1  0
  8  9  2  0
  9 10  1  0
 10 11  2  0
 11 12  1  0
 12 13  2  0
 13 14  1  0
 14 15  1  0
 15 16  1  0
 16 17  1  0
 17 18  1  0
 18 19  1  0
 19 20  1  0
 20 21  1  0
 21 22  1  0
 22 23  1  0
  6 24  1  0
 24 25  2  0
 25  3  1  0
 14  5  1  0
 22 17  1  0
 13  8  1  0
  1 26  1  0
  1 27  1  0
  1 28  1  0
  4 29  1  0
  9 30  1  0
 10 31  1  0
 11 32  1  0
 12 33  1  0
 15 34  1  0
 15 35  1  0
 16 36  1  0
 16 37  1  0
 17 38  1  0
 18 39  1  0
 18 40  1  0
 19 41  1  0
 19 42  1  0
 20 43  1  0
 20 44  1  0
 21 45  1  0
 21 46  1  0
 23 47  1  0
 23 48  1  0
 23 49  1  0
 24 50  1  0
 25 51  1  0
M  END
$$$$
