@<TRIPOS>MOLECULE
*****
 67 70 0 0 0
SMALL
GASTEIGER

@<TRIPOS>ATOM
      1 C          -9.7467    2.0048    0.8503 C.3     1  UNL1       -0.0253
      2 C          -8.9966    0.7833    0.3536 C.3     1  UNL1        0.1068
      3 C          -8.8228    0.9940   -1.1401 C.3     1  UNL1       -0.0253
      4 C          -9.8039   -0.4603    0.5548 C.3     1  UNL1       -0.0253
      5 O          -7.7259    0.7781    0.9942 O.3     1  UNL1       -0.4445
      6 C          -6.8260   -0.2487    0.7752 C.2     1  UNL1        0.4034
      7 O          -7.2114   -1.1737   -0.0301 O.2     1  UNL1       -0.2262
      8 N          -5.5417   -0.3554    1.3511 N.am    1  UNL1       -0.2673
      9 C          -4.7559   -1.5455    1.0777 C.3     1  UNL1        0.0189
     10 C          -3.8198   -1.9282    2.2035 C.3     1  UNL1       -0.0233
     11 C          -3.0194   -0.7676    2.7566 C.3     1  UNL1        0.0238
     12 C          -1.9417   -0.4571    1.7467 C.1     1  UNL1       -0.0935
     13 C          -1.0362   -0.1966    0.8680 C.1     1  UNL1       -0.0659
     14 C          -0.0516    0.0995   -0.0707 C.ar    1  UNL1        0.0284
     15 C           0.4709    1.2689   -0.4755 C.ar    1  UNL1       -0.0454
     16 C           1.8025    1.3590   -0.9327 C.ar    1  UNL1       -0.0462
     17 C           2.6524    0.2807   -1.0017 C.ar    1  UNL1        0.0646
     18 C           3.9967    0.3622   -1.3881 C.ar    1  UNL1        0.2001
     19 O           4.4656    1.4562   -1.7414 O.2     1  UNL1       -0.2864
     20 C           4.7724   -0.7844   -1.3726 C.ar    1  UNL1        0.0643
     21 C           6.2389   -0.7556   -1.5776 C.ar    1  UNL1       -0.0112
     22 C           6.8377   -1.2888   -2.6719 C.ar    1  UNL1       -0.0520
     23 C           8.2353   -1.3112   -2.8527 C.ar    1  UNL1       -0.0388
     24 C           9.0509   -0.7543   -1.8423 C.ar    1  UNL1        0.0477
     25 N          10.4651   -0.7141   -2.1605 N.pl3   1  UNL1       -0.2209
     26 S          11.1981    0.8341   -2.3161 S.O2    1  UNL1        0.0403
     27 C          11.2860    1.8566   -0.9103 C.3     1  UNL1        0.0736
     28 O          12.4681    0.8407   -3.0989 O.2     1  UNL1       -0.1555
     29 O          10.1555    1.5844   -3.2826 O.2     1  UNL1       -0.1555
     30 C           8.4407   -0.2365   -0.7596 C.ar    1  UNL1       -0.0388
     31 C           7.0347   -0.2205   -0.5887 C.ar    1  UNL1       -0.0520
     32 C           4.1882   -1.9666   -0.9929 C.ar    1  UNL1        0.1038
     33 O           2.9081   -2.0021   -0.6273 O.2     1  UNL1       -0.4621
     34 C           2.1326   -0.9382   -0.6066 C.ar    1  UNL1        0.1396
     35 C           0.8758   -1.0504   -0.1758 C.ar    1  UNL1       -0.0032
     36 C          -3.8058    0.4807    2.9654 C.3     1  UNL1       -0.0233
     37 C          -5.0335    0.6868    2.1820 C.3     1  UNL1        0.0189
     38 H          -9.6298    2.0021    1.9419 H       1  UNL1        0.0268
     39 H          -9.3261    2.9043    0.3892 H       1  UNL1        0.0268
     40 H         -10.8371    1.9194    0.5730 H       1  UNL1        0.0268
     41 H          -9.6997    1.5875   -1.5392 H       1  UNL1        0.0268
     42 H          -8.7981    0.0535   -1.6859 H       1  UNL1        0.0268
     43 H          -7.9136    1.6457   -1.3328 H       1  UNL1        0.0268
     44 H         -10.8149   -0.1687    0.9382 H       1  UNL1        0.0268
     45 H          -9.3410   -1.0789    1.3777 H       1  UNL1        0.0268
     46 H          -9.9473   -1.0697   -0.3747 H       1  UNL1        0.0268
     47 H          -4.1414   -1.4703    0.1536 H       1  UNL1        0.0466
     48 H          -5.5002   -2.3756    1.0050 H       1  UNL1        0.0466
     49 H          -3.1090   -2.6922    1.8707 H       1  UNL1        0.0292
     50 H          -4.4254   -2.3960    2.9992 H       1  UNL1        0.0292
     51 H          -2.5780   -1.0821    3.7121 H       1  UNL1        0.0434
     52 H          -0.1690    2.1276   -0.4119 H       1  UNL1        0.0630
     53 H           2.1797    2.3259   -1.2768 H       1  UNL1        0.0626
     54 H           6.2100   -1.7207   -3.4324 H       1  UNL1        0.0624
     55 H           8.6702   -1.7142   -3.7027 H       1  UNL1        0.0637
     56 H          11.0415   -1.5618   -2.2869 H       1  UNL1        0.1733
     57 H          12.2030    1.6564   -0.2811 H       1  UNL1        0.0482
     58 H          10.4228    1.7071   -0.2333 H       1  UNL1        0.0482
     59 H          11.2478    2.9435   -1.2276 H       1  UNL1        0.0482
     60 H           8.9948    0.1761    0.0935 H       1  UNL1        0.0637
     61 H           6.6052    0.2037    0.2863 H       1  UNL1        0.0624
     62 H           4.6947   -2.9306   -0.9459 H       1  UNL1        0.1037
     63 H           0.4233   -1.9994    0.1340 H       1  UNL1        0.0667
     64 H          -4.0064    0.5617    4.0806 H       1  UNL1        0.0292
     65 H          -3.1076    1.3579    2.7155 H       1  UNL1        0.0292
     66 H          -5.8630    0.8989    2.9548 H       1  UNL1        0.0466
     67 H          -5.0226    1.6749    1.6288 H       1  UNL1        0.0466
@<TRIPOS>BOND
     1     1     2    1
     2     2     3    1
     3     2     4    1
     4     2     5    1
     5     5     6    1
     6     6     7    2
     7     6     8   am
     8     8     9    1
     9     9    10    1
    10    10    11    1
    11    11    12    1
    12    12    13    3
    13    13    14    1
    14    14    15   ar
    15    15    16   ar
    16    16    17   ar
    17    17    18   ar
    18    18    19    2
    19    18    20   ar
    20    20    21    1
    21    21    22   ar
    22    22    23   ar
    23    23    24   ar
    24    24    25    1
    25    25    26    1
    26    26    27    1
    27    26    28    2
    28    26    29    2
    29    24    30   ar
    30    30    31   ar
    31    20    32   ar
    32    32    33   ar
    33    33    34   ar
    34    34    35   ar
    35    11    36    1
    36    36    37    1
    37    37     8    1
    38    35    14   ar
    39    34    17   ar
    40    31    21   ar
    41     1    38    1
    42     1    39    1
    43     1    40    1
    44     3    41    1
    45     3    42    1
    46     3    43    1
    47     4    44    1
    48     4    45    1
    49     4    46    1
    50     9    47    1
    51     9    48    1
    52    10    49    1
    53    10    50    1
    54    11    51    1
    55    15    52    1
    56    16    53    1
    57    22    54    1
    58    23    55    1
    59    25    56    1
    60    27    57    1
    61    27    58    1
    62    27    59    1
    63    30    60    1
    64    31    61    1
    65    32    62    1
    66    35    63    1
    67    36    64    1
    68    36    65    1
    69    37    66    1
    70    37    67    1
