@<TRIPOS>MOLECULE
*****
 67 70 0 0 0
SMALL
GASTEIGER

@<TRIPOS>ATOM
      1 C          -5.1879    2.4572    2.4748 C.3     1  UNL1       -0.0126
      2 N          -3.9611    1.7807    2.1087 N.3     1  UNL1       -0.3024
      3 C          -4.2567    0.6007    1.3860 C.3     1  UNL1        0.0145
      4 C          -3.2143   -0.4795    1.7455 C.3     1  UNL1        0.0275
      5 N          -1.9435    0.1508    1.7548 N.am    1  UNL1       -0.2975
      6 C          -0.9269    0.0557    0.8644 C.2     1  UNL1        0.2382
      7 O           0.1246    0.7928    1.2245 O.2     1  UNL1       -0.2735
      8 C          -0.6875   -0.6416   -0.3956 C.3     1  UNL1        0.1233
      9 C          -1.7097   -0.3315   -1.4556 C.3     1  UNL1        0.0750
     10 O          -1.6504   -1.1175   -2.5384 O.3     1  UNL1       -0.3729
     11 C          -1.8845   -2.4451   -2.5330 C.3     1  UNL1        0.0729
     12 C          -3.2442   -2.8434   -2.1342 C.ar    1  UNL1       -0.0176
     13 C          -4.3003   -2.8450   -3.0409 C.ar    1  UNL1       -0.0381
     14 C          -5.5773   -3.2538   -2.7325 C.ar    1  UNL1        0.0296
     15 N          -5.8198   -3.6802   -1.4763 N.ar    1  UNL1       -0.2435
     16 C          -4.8220   -3.6895   -0.5675 C.ar    1  UNL1        0.1295
     17 CL         -5.1998   -4.2633    1.0508 Cl      1  UNL1       -0.0620
     18 C          -3.5564   -3.2850   -0.8665 C.ar    1  UNL1       -0.0194
     19 N           0.6548   -0.3753   -0.8212 N.am    1  UNL1       -0.2979
     20 C           1.3922   -0.6398   -1.9626 C.2     1  UNL1        0.2499
     21 O           0.7411   -1.2360   -2.8845 O.2     1  UNL1       -0.2700
     22 C           2.7801   -0.3499   -2.2665 C.ar    1  UNL1        0.0985
     23 C           3.2729   -0.6396   -3.5472 C.ar    1  UNL1       -0.0430
     24 C           4.5739   -0.3533   -3.8957 C.ar    1  UNL1       -0.0426
     25 C           5.3997    0.2259   -2.9668 C.ar    1  UNL1        0.0314
     26 N           4.9493    0.5056   -1.7562 N.ar    1  UNL1       -0.2203
     27 C           3.6603    0.2198   -1.4143 C.ar    1  UNL1        0.2327
     28 O           3.2943    0.5446   -0.1190 O.3     1  UNL1       -0.4358
     29 C           4.2039    1.0797    0.7515 C.ar    1  UNL1        0.1486
     30 C           4.5215    0.3319    1.8835 C.ar    1  UNL1       -0.0173
     31 C           5.4296    0.8448    2.7673 C.ar    1  UNL1       -0.0466
     32 C           6.0289    2.0821    2.5531 C.ar    1  UNL1        0.0564
     33 C           7.0097    2.5922    3.5149 C.3     1  UNL1        0.4175
     34 F           7.7055    3.6467    2.9696 F       1  UNL1       -0.1659
     35 F           6.2979    3.0628    4.6217 F       1  UNL1       -0.1659
     36 F           7.8930    1.5943    3.8877 F       1  UNL1       -0.1659
     37 C           5.7198    2.8331    1.4337 C.ar    1  UNL1       -0.0282
     38 C           4.7930    2.2814    0.5546 C.ar    1  UNL1        0.0837
     39 CL          4.3704    3.2152   -0.8764 Cl      1  UNL1       -0.0797
     40 C          -1.7701    1.0502    2.9311 C.3     1  UNL1        0.0275
     41 C          -3.1342    1.6316    3.2791 C.3     1  UNL1        0.0145
     42 H          -5.6218    2.0004    3.4294 H       1  UNL1        0.0391
     43 H          -6.0071    2.3764    1.7496 H       1  UNL1        0.0391
     44 H          -5.0000    3.5580    2.6018 H       1  UNL1        0.0391
     45 H          -4.2694    0.6708    0.2988 H       1  UNL1        0.0442
     46 H          -5.2353    0.1476    1.7579 H       1  UNL1        0.0442
     47 H          -3.3677   -1.2921    1.0494 H       1  UNL1        0.0477
     48 H          -3.4689   -0.7830    2.8076 H       1  UNL1        0.0477
     49 H          -0.8515   -1.7548   -0.2430 H       1  UNL1        0.0618
     50 H          -2.7380   -0.4165   -1.0364 H       1  UNL1        0.0583
     51 H          -1.6031    0.7339   -1.8190 H       1  UNL1        0.0583
     52 H          -1.1164   -3.0196   -1.9372 H       1  UNL1        0.0610
     53 H          -1.7747   -2.8481   -3.5966 H       1  UNL1        0.0610
     54 H          -4.0092   -2.4894   -4.0410 H       1  UNL1        0.0636
     55 H          -6.3458   -3.2203   -3.5127 H       1  UNL1        0.0830
     56 H          -2.7303   -3.2883   -0.1335 H       1  UNL1        0.0651
     57 H           1.2322    0.1529   -0.0593 H       1  UNL1        0.1499
     58 H           2.6395   -1.0913   -4.2690 H       1  UNL1        0.0627
     59 H           4.9889   -0.5644   -4.8761 H       1  UNL1        0.0633
     60 H           6.4442    0.4835   -3.1676 H       1  UNL1        0.0831
     61 H           4.0392   -0.6440    2.0514 H       1  UNL1        0.0655
     62 H           5.6854    0.2822    3.6415 H       1  UNL1        0.0624
     63 H           6.1925    3.7760    1.3032 H       1  UNL1        0.0639
     64 H          -1.3715    0.5246    3.7901 H       1  UNL1        0.0477
     65 H          -1.1245    1.9042    2.6498 H       1  UNL1        0.0477
     66 H          -2.9458    2.6616    3.6697 H       1  UNL1        0.0442
     67 H          -3.6107    1.0292    4.0637 H       1  UNL1        0.0442
@<TRIPOS>BOND
     1     1     2    1
     2     2     3    1
     3     3     4    1
     4     4     5    1
     5     5     6   am
     6     6     7    2
     7     6     8    1
     8     8     9    1
     9     9    10    1
    10    10    11    1
    11    11    12    1
    12    12    13   ar
    13    13    14   ar
    14    14    15   ar
    15    15    16   ar
    16    16    17    1
    17    16    18   ar
    18     8    19    1
    19    19    20   am
    20    20    21    2
    21    20    22    1
    22    22    23   ar
    23    23    24   ar
    24    24    25   ar
    25    25    26   ar
    26    26    27   ar
    27    27    28    1
    28    28    29    1
    29    29    30   ar
    30    30    31   ar
    31    31    32   ar
    32    32    33    1
    33    33    34    1
    34    33    35    1
    35    33    36    1
    36    32    37   ar
    37    37    38   ar
    38    38    39    1
    39     5    40    1
    40    40    41    1
    41    41     2    1
    42    18    12   ar
    43    27    22   ar
    44    38    29   ar
    45     1    42    1
    46     1    43    1
    47     1    44    1
    48     3    45    1
    49     3    46    1
    50     4    47    1
    51     4    48    1
    52     8    49    1
    53     9    50    1
    54     9    51    1
    55    11    52    1
    56    11    53    1
    57    13    54    1
    58    14    55    1
    59    18    56    1
    60    19    57    1
    61    23    58    1
    62    24    59    1
    63    25    60    1
    64    30    61    1
    65    31    62    1
    66    37    63    1
    67    40    64    1
    68    40    65    1
    69    41    66    1
    70    41    67    1
