@<TRIPOS>MOLECULE
*****
 74 77 0 0 0
SMALL
GASTEIGER

@<TRIPOS>ATOM
      1 C          -1.4781   -1.3399   -1.7495 C.3     1  UNL1       -0.0328
      2 C          -0.9008   -1.4991   -3.2005 C.3     1  UNL1       -0.0492
      3 C           0.5003   -0.9628   -3.1540 C.3     1  UNL1       -0.0492
      4 C           0.7161   -0.8420   -1.7090 C.3     1  UNL1       -0.0320
      5 C           1.7789   -0.0202   -1.1727 C.3     1  UNL1       -0.0307
      6 C           3.1188   -0.1616   -1.8683 C.3     1  UNL1       -0.0311
      7 C           4.0325    0.7581   -1.1433 C.2     1  UNL1       -0.0839
      8 C           3.9432    0.9449    0.1682 C.2     1  UNL1       -0.0648
      9 C           4.8987    1.8887    0.8415 C.3     1  UNL1       -0.0051
     10 C           5.6895    1.0240    1.8000 C.3     1  UNL1        0.0590
     11 O           5.8018    1.5645    3.0720 O.3     1  UNL1       -0.3915
     12 C           5.2592   -0.4069    1.8285 C.3     1  UNL1       -0.0258
     13 C           3.7982   -0.6486    1.9493 C.3     1  UNL1       -0.0413
     14 C           2.9411    0.2726    1.0637 C.3     1  UNL1       -0.0078
     15 C           2.3159    1.2422    2.0220 C.3     1  UNL1       -0.0556
     16 C           1.9975   -0.5153    0.2605 C.3     1  UNL1       -0.0285
     17 C           0.6216   -0.7411    0.8051 C.3     1  UNL1       -0.0486
     18 C          -0.4399    0.0947    0.1160 C.3     1  UNL1       -0.0468
     19 C          -0.6539   -0.2306   -1.3037 C.3     1  UNL1       -0.0259
     20 C          -0.7461    1.0169   -2.1752 C.3     1  UNL1       -0.0590
     21 C          -2.9257   -1.3607   -1.8622 C.3     1  UNL1       -0.0405
     22 C          -3.6072   -0.2829   -2.6699 C.3     1  UNL1       -0.0621
     23 C          -3.7845   -1.8549   -0.7547 C.3     1  UNL1       -0.0502
     24 C          -3.7579   -1.1876    0.5613 C.3     1  UNL1       -0.0526
     25 C          -4.1469    0.2489    0.6059 C.3     1  UNL1       -0.0507
     26 C          -4.0704    0.8064    2.0359 C.3     1  UNL1       -0.0467
     27 C          -4.9952    0.0527    2.9651 C.3     1  UNL1       -0.0627
     28 C          -4.4725    2.2651    1.9454 C.3     1  UNL1       -0.0627
     29 H          -1.1380   -2.2656   -1.2428 H       1  UNL1        0.0309
     30 H          -0.9411   -2.5763   -3.4655 H       1  UNL1        0.0268
     31 H          -1.5248   -0.9754   -3.9277 H       1  UNL1        0.0268
     32 H           1.1658   -1.7849   -3.5449 H       1  UNL1        0.0268
     33 H           0.6712   -0.0971   -3.7915 H       1  UNL1        0.0268
     34 H           0.6900   -1.8686   -1.2866 H       1  UNL1        0.0309
     35 H           1.6268    1.0697   -1.0620 H       1  UNL1        0.0309
     36 H           3.5057   -1.1996   -1.6934 H       1  UNL1        0.0310
     37 H           3.0415    0.0804   -2.9385 H       1  UNL1        0.0310
     38 H           4.7854    1.2794   -1.7270 H       1  UNL1        0.0572
     39 H           4.4092    2.7520    1.3071 H       1  UNL1        0.0335
     40 H           5.5572    2.3440    0.0438 H       1  UNL1        0.0335
     41 H           6.7493    1.0118    1.4031 H       1  UNL1        0.0596
     42 H           6.5111    1.0864    3.5435 H       1  UNL1        0.2098
     43 H           5.7281   -1.0070    0.9936 H       1  UNL1        0.0290
     44 H           5.7298   -0.8483    2.7421 H       1  UNL1        0.0290
     45 H           3.6032   -1.7012    1.6206 H       1  UNL1        0.0274
     46 H           3.5039   -0.6154    3.0052 H       1  UNL1        0.0274
     47 H           1.8606    0.6355    2.8544 H       1  UNL1        0.0238
     48 H           1.6616    1.9932    1.5954 H       1  UNL1        0.0238
     49 H           3.1245    1.8094    2.5486 H       1  UNL1        0.0238
     50 H           2.4569   -1.5365    0.1051 H       1  UNL1        0.0312
     51 H           0.3001   -1.8012    0.7010 H       1  UNL1        0.0268
     52 H           0.5403   -0.5293    1.8879 H       1  UNL1        0.0268
     53 H          -1.2733    0.1857    0.7889 H       1  UNL1        0.0271
     54 H           0.0106    1.1457    0.1094 H       1  UNL1        0.0271
     55 H          -1.1884    1.8725   -1.5897 H       1  UNL1        0.0235
     56 H          -1.2769    0.8495   -3.1290 H       1  UNL1        0.0235
     57 H           0.2411    1.4093   -2.4929 H       1  UNL1        0.0235
     58 H          -3.0622   -2.2518   -2.6424 H       1  UNL1        0.0301
     59 H          -3.5097    0.7285   -2.2999 H       1  UNL1        0.0233
     60 H          -4.7087   -0.5227   -2.5614 H       1  UNL1        0.0233
     61 H          -3.4602   -0.3872   -3.7649 H       1  UNL1        0.0233
     62 H          -4.8852   -1.8691   -1.0616 H       1  UNL1        0.0268
     63 H          -3.5938   -2.9784   -0.6382 H       1  UNL1        0.0268
     64 H          -2.8543   -1.4568    1.1437 H       1  UNL1        0.0265
     65 H          -4.5827   -1.7174    1.1682 H       1  UNL1        0.0265
     66 H          -5.1559    0.4501    0.2202 H       1  UNL1        0.0268
     67 H          -3.4033    0.8467    0.0522 H       1  UNL1        0.0268
     68 H          -3.0234    0.7335    2.3409 H       1  UNL1        0.0295
     69 H          -5.7437   -0.5206    2.4168 H       1  UNL1        0.0232
     70 H          -5.4517    0.8056    3.6480 H       1  UNL1        0.0232
     71 H          -4.3457   -0.5786    3.6169 H       1  UNL1        0.0232
     72 H          -3.6011    2.9089    2.1073 H       1  UNL1        0.0232
     73 H          -4.8906    2.5258    0.9499 H       1  UNL1        0.0232
     74 H          -5.2935    2.4399    2.6685 H       1  UNL1        0.0232
@<TRIPOS>BOND
     1     1     2    1
     2     2     3    1
     3     3     4    1
     4     4     5    1
     5     5     6    1
     6     6     7    1
     7     7     8    2
     8     8     9    1
     9     9    10    1
    10    10    11    1
    11    10    12    1
    12    12    13    1
    13    13    14    1
    14    14    15    1
    15    14    16    1
    16    16    17    1
    17    17    18    1
    18    18    19    1
    19    19    20    1
    20     1    21    1
    21    21    22    1
    22    21    23    1
    23    23    24    1
    24    24    25    1
    25    25    26    1
    26    26    27    1
    27    26    28    1
    28    19     1    1
    29    19     4    1
    30    16     5    1
    31    14     8    1
    32     1    29    1
    33     2    30    1
    34     2    31    1
    35     3    32    1
    36     3    33    1
    37     4    34    1
    38     5    35    1
    39     6    36    1
    40     6    37    1
    41     7    38    1
    42     9    39    1
    43     9    40    1
    44    10    41    1
    45    11    42    1
    46    12    43    1
    47    12    44    1
    48    13    45    1
    49    13    46    1
    50    15    47    1
    51    15    48    1
    52    15    49    1
    53    16    50    1
    54    17    51    1
    55    17    52    1
    56    18    53    1
    57    18    54    1
    58    20    55    1
    59    20    56    1
    60    20    57    1
    61    21    58    1
    62    22    59    1
    63    22    60    1
    64    22    61    1
    65    23    62    1
    66    23    63    1
    67    24    64    1
    68    24    65    1
    69    25    66    1
    70    25    67    1
    71    26    68    1
    72    27    69    1
    73    27    70    1
    74    27    71    1
    75    28    72    1
    76    28    73    1
    77    28    74    1
