
     RDKit          3D

 59 63  0  0  0  0  0  0  0  0999 V2000
   -3.1583   -0.1462   -4.1054 O   0  0  0  0  0  0  0  0  0  0  0  0
   -2.7839    0.0082   -2.9194 C   0  0  0  0  0  0  0  0  0  0  0  0
   -3.7809    0.1594   -1.9259 N   0  0  0  0  0  0  0  0  0  0  0  0
   -5.1848    0.1593   -2.0999 C   0  0  0  0  0  0  0  0  0  0  0  0
   -5.8373    0.0079   -3.3012 C   0  0  0  0  0  0  0  0  0  0  0  0
   -7.2178    0.0162   -3.4122 C   0  0  0  0  0  0  0  0  0  0  0  0
   -7.9466    0.1846   -2.2571 C   0  0  0  0  0  0  0  0  0  0  0  0
   -7.3070    0.3385   -1.0384 C   0  0  0  0  0  0  0  0  0  0  0  0
   -8.0238    0.5097    0.1384 C   0  0  0  0  0  0  0  0  0  0  0  0
   -9.2774    0.5180    0.0435 O   0  0  0  0  0  0  0  0  0  0  0  0
   -7.3618    0.6602    1.3346 C   0  0  0  0  0  0  0  0  0  0  0  0
   -5.9697    0.6417    1.3723 C   0  0  0  0  0  0  0  0  0  0  0  0
   -5.2616    0.8002    2.6330 C   0  0  0  0  0  0  0  0  0  0  0  0
   -5.8306    0.9734    3.8310 N   0  0  0  0  0  0  0  0  0  0  0  0
   -4.8389    1.0767    4.7216 N   0  0  0  0  0  0  0  0  0  0  0  0
   -3.6766    0.9743    4.1222 N   0  0  0  0  0  0  0  0  0  0  0  0
   -3.9379    0.8038    2.8338 N   0  0  0  0  0  0  0  0  0  0  0  0
   -5.3438    0.4766    0.2283 O   0  0  0  0  0  0  0  0  0  0  0  0
   -5.9380    0.3310   -0.9230 C   0  0  0  0  0  0  0  0  0  0  0  0
   -1.3471    0.0272   -2.6031 C   0  0  0  0  0  0  0  0  0  0  0  0
   -0.4704   -0.1279   -3.6470 C   0  0  0  0  0  0  0  0  0  0  0  0
    0.8912   -0.1237   -3.4494 C   0  0  0  0  0  0  0  0  0  0  0  0
    1.4409    0.0381   -2.1805 C   0  0  0  0  0  0  0  0  0  0  0  0
    2.7816    0.0322   -2.0740 O   0  0  0  0  0  0  0  0  0  0  0  0
    3.6860    0.1386   -1.0576 C   0  0  0  0  0  0  0  0  0  0  0  0
    3.6218   -0.9509   -0.0420 C   0  0  0  0  0  0  0  0  0  0  0  0
    4.6726   -0.7444    1.0574 C   0  0  0  0  0  0  0  0  0  0  0  0
    6.0718   -0.7340    0.4885 C   0  0  0  0  0  0  0  0  0  0  0  0
    6.9955   -0.5314    1.6615 C   0  0  0  0  0  0  0  0  0  0  0  0
    7.3803    0.7084    2.0916 C   0  0  0  0  0  0  0  0  0  0  0  0
    8.2284    0.8972    3.1686 C   0  0  0  0  0  0  0  0  0  0  0  0
    8.6800   -0.2390    3.8048 C   0  0  0  0  0  0  0  0  0  0  0  0
    8.3196   -1.5189    3.4079 C   0  0  0  0  0  0  0  0  0  0  0  0
    7.4647   -1.6382    2.3187 C   0  0  0  0  0  0  0  0  0  0  0  0
    0.5546    0.1918   -1.1530 C   0  0  0  0  0  0  0  0  0  0  0  0
   -0.8397    0.1891   -1.3418 C   0  0  0  0  0  0  0  0  0  0  0  0
   -3.3941    0.2863   -0.9417 H   0  0  0  0  0  0  0  0  0  0  0  0
   -5.2856   -0.1241   -4.2094 H   0  0  0  0  0  0  0  0  0  0  0  0
   -7.7130   -0.1053   -4.3732 H   0  0  0  0  0  0  0  0  0  0  0  0
   -9.0285    0.1951   -2.3140 H   0  0  0  0  0  0  0  0  0  0  0  0
   -7.9085    0.7942    2.2572 H   0  0  0  0  0  0  0  0  0  0  0  0
   -3.1942    0.6919    2.1102 H   0  0  0  0  0  0  0  0  0  0  0  0
   -0.8378   -0.2571   -4.6512 H   0  0  0  0  0  0  0  0  0  0  0  0
    1.5700   -0.2471   -4.2817 H   0  0  0  0  0  0  0  0  0  0  0  0
    4.7052    0.2416   -1.5117 H   0  0  0  0  0  0  0  0  0  0  0  0
    3.5402    1.1094   -0.4975 H   0  0  0  0  0  0  0  0  0  0  0  0
    3.8269   -1.9527   -0.4835 H   0  0  0  0  0  0  0  0  0  0  0  0
    2.6640   -0.9883    0.4541 H   0  0  0  0  0  0  0  0  0  0  0  0
    4.4112    0.2206    1.5295 H   0  0  0  0  0  0  0  0  0  0  0  0
    4.5311   -1.5226    1.8233 H   0  0  0  0  0  0  0  0  0  0  0  0
    6.1790    0.2030   -0.1252 H   0  0  0  0  0  0  0  0  0  0  0  0
    6.3037   -1.6319   -0.0813 H   0  0  0  0  0  0  0  0  0  0  0  0
    7.0111    1.5888    1.5739 H   0  0  0  0  0  0  0  0  0  0  0  0
    8.5221    1.8940    3.4944 H   0  0  0  0  0  0  0  0  0  0  0  0
    9.3436   -0.1354    4.6498 H   0  0  0  0  0  0  0  0  0  0  0  0
    8.6956   -2.3823    3.9335 H   0  0  0  0  0  0  0  0  0  0  0  0
    7.1879   -2.6348    2.0146 H   0  0  0  0  0  0  0  0  0  0  0  0
    0.8908    0.3339   -0.1561 H   0  0  0  0  0  0  0  0  0  0  0  0
   -1.4757    0.3152   -0.4836 H   0  0  0  0  0  0  0  0  0  0  0  0
  1  2  2  0
  2  3  1  0
  3  4  1  0
  4  5  2  0
  5  6  1  0
  6  7  2  0
  7  8  1  0
  8  9  1  0
  9 10  2  0
  9 11  1  0
 11 12  2  0
 12 13  1  0
 13 14  2  0
 14 15  1  0
 15 16  2  0
 16 17  1  0
 12 18  1  0
 18 19  1  0
  2 20  1  0
 20 21  2  0
 21 22  1  0
 22 23  2  0
 23 24  1  0
 24 25  1  0
 25 26  1  0
 26 27  1  0
 27 28  1  0
 28 29  1  0
 29 30  2  0
 30 31  1  0
 31 32  2  0
 32 33  1  0
 33 34  2  0
 23 35  1  0
 35 36  2  0
 19  4  1  0
 36 20  1  0
 19  8  2  0
 34 29  1  0
 17 13  1  0
  3 37  1  0
  5 38  1  0
  6 39  1  0
  7 40  1  0
 11 41  1  0
 17 42  1  0
 21 43  1  0
 22 44  1  0
 25 45  1  0
 25 46  1  0
 26 47  1  0
 26 48  1  0
 27 49  1  0
 27 50  1  0
 28 51  1  0
 28 52  1  0
 30 53  1  0
 31 54  1  0
 32 55  1  0
 33 56  1  0
 34 57  1  0
 35 58  1  0
 36 59  1  0
M  END
$$$$
