@<TRIPOS>MOLECULE
*****
 59 63 0 0 0
SMALL
GASTEIGER

@<TRIPOS>ATOM
      1 O          -3.1583   -0.1462   -4.1054 O.2     1  UNL1       -0.2699
      2 C          -2.7839    0.0082   -2.9194 C.2     1  UNL1        0.2483
      3 N          -3.7809    0.1594   -1.9259 N.am    1  UNL1       -0.2785
      4 C          -5.1848    0.1593   -2.0999 C.ar    1  UNL1        0.0772
      5 C          -5.8373    0.0079   -3.3012 C.ar    1  UNL1       -0.0368
      6 C          -7.2178    0.0162   -3.4122 C.ar    1  UNL1       -0.0591
      7 C          -7.9466    0.1846   -2.2571 C.ar    1  UNL1       -0.0473
      8 C          -7.3070    0.3385   -1.0384 C.ar    1  UNL1        0.0658
      9 C          -8.0238    0.5097    0.1384 C.ar    1  UNL1        0.1932
     10 O          -9.2774    0.5180    0.0435 O.2     1  UNL1       -0.2870
     11 C          -7.3618    0.6602    1.3346 C.ar    1  UNL1        0.0319
     12 C          -5.9697    0.6417    1.3723 C.ar    1  UNL1        0.1774
     13 C          -5.2616    0.8002    2.6330 C.ar    1  UNL1        0.2149
     14 N          -5.8306    0.9734    3.8310 N.ar    1  UNL1       -0.1052
     15 N          -4.8389    1.0767    4.7216 N.ar    1  UNL1       -0.0228
     16 N          -3.6766    0.9743    4.1222 N.ar    1  UNL1       -0.0463
     17 N          -3.9379    0.8038    2.8338 N.ar    1  UNL1       -0.2363
     18 O          -5.3438    0.4766    0.2283 O.2     1  UNL1       -0.4496
     19 C          -5.9380    0.3310   -0.9230 C.ar    1  UNL1        0.1605
     20 C          -1.3471    0.0272   -2.6031 C.ar    1  UNL1        0.0373
     21 C          -0.4704   -0.1279   -3.6470 C.ar    1  UNL1       -0.0462
     22 C           0.8912   -0.1237   -3.4494 C.ar    1  UNL1       -0.0192
     23 C           1.4409    0.0381   -2.1805 C.ar    1  UNL1        0.1205
     24 O           2.7816    0.0322   -2.0740 O.3     1  UNL1       -0.4920
     25 C           3.6860    0.1386   -1.0576 C.3     1  UNL1        0.0896
     26 C           3.6218   -0.9509   -0.0420 C.3     1  UNL1       -0.0183
     27 C           4.6726   -0.7444    1.0574 C.3     1  UNL1       -0.0460
     28 C           6.0718   -0.7340    0.4885 C.3     1  UNL1       -0.0276
     29 C           6.9955   -0.5314    1.6615 C.ar    1  UNL1       -0.0474
     30 C           7.3803    0.7084    2.0916 C.ar    1  UNL1       -0.0586
     31 C           8.2284    0.8972    3.1686 C.ar    1  UNL1       -0.0615
     32 C           8.6800   -0.2390    3.8048 C.ar    1  UNL1       -0.0617
     33 C           8.3196   -1.5189    3.4079 C.ar    1  UNL1       -0.0615
     34 C           7.4647   -1.6382    2.3187 C.ar    1  UNL1       -0.0586
     35 C           0.5546    0.1918   -1.1530 C.ar    1  UNL1       -0.0192
     36 C          -0.8397    0.1891   -1.3418 C.ar    1  UNL1       -0.0462
     37 H          -3.3941    0.2863   -0.9417 H       1  UNL1        0.1552
     38 H          -5.2856   -0.1241   -4.2094 H       1  UNL1        0.0637
     39 H          -7.7130   -0.1053   -4.3732 H       1  UNL1        0.0618
     40 H          -9.0285    0.1951   -2.3140 H       1  UNL1        0.0626
     41 H          -7.9085    0.7942    2.2572 H       1  UNL1        0.0694
     42 H          -3.1942    0.6919    2.1102 H       1  UNL1        0.1924
     43 H          -0.8378   -0.2571   -4.6512 H       1  UNL1        0.0626
     44 H           1.5700   -0.2471   -4.2817 H       1  UNL1        0.0654
     45 H           4.7052    0.2416   -1.5117 H       1  UNL1        0.0696
     46 H           3.5402    1.1094   -0.4975 H       1  UNL1        0.0696
     47 H           3.8269   -1.9527   -0.4835 H       1  UNL1        0.0298
     48 H           2.6640   -0.9883    0.4541 H       1  UNL1        0.0298
     49 H           4.4112    0.2206    1.5295 H       1  UNL1        0.0269
     50 H           4.5311   -1.5226    1.8233 H       1  UNL1        0.0269
     51 H           6.1790    0.2030   -0.1252 H       1  UNL1        0.0313
     52 H           6.3037   -1.6319   -0.0813 H       1  UNL1        0.0313
     53 H           7.0111    1.5888    1.5739 H       1  UNL1        0.0620
     54 H           8.5221    1.8940    3.4944 H       1  UNL1        0.0618
     55 H           9.3436   -0.1354    4.6498 H       1  UNL1        0.0618
     56 H           8.6956   -2.3823    3.9335 H       1  UNL1        0.0618
     57 H           7.1879   -2.6348    2.0146 H       1  UNL1        0.0620
     58 H           0.8908    0.3339   -0.1561 H       1  UNL1        0.0654
     59 H          -1.4757    0.3152   -0.4836 H       1  UNL1        0.0626
@<TRIPOS>BOND
     1     1     2    2
     2     2     3   am
     3     3     4    1
     4     4     5   ar
     5     5     6   ar
     6     6     7   ar
     7     7     8   ar
     8     8     9   ar
     9     9    10    2
    10     9    11   ar
    11    11    12   ar
    12    12    13    1
    13    13    14   ar
    14    14    15   ar
    15    15    16   ar
    16    16    17   ar
    17    12    18   ar
    18    18    19   ar
    19     2    20    1
    20    20    21   ar
    21    21    22   ar
    22    22    23   ar
    23    23    24    1
    24    24    25    1
    25    25    26    1
    26    26    27    1
    27    27    28    1
    28    28    29    1
    29    29    30   ar
    30    30    31   ar
    31    31    32   ar
    32    32    33   ar
    33    33    34   ar
    34    23    35   ar
    35    35    36   ar
    36    19     4   ar
    37    36    20   ar
    38    19     8   ar
    39    34    29   ar
    40    17    13   ar
    41     3    37    1
    42     5    38    1
    43     6    39    1
    44     7    40    1
    45    11    41    1
    46    17    42    1
    47    21    43    1
    48    22    44    1
    49    25    45    1
    50    25    46    1
    51    26    47    1
    52    26    48    1
    53    27    49    1
    54    27    50    1
    55    28    51    1
    56    28    52    1
    57    30    53    1
    58    31    54    1
    59    32    55    1
    60    33    56    1
    61    34    57    1
    62    35    58    1
    63    36    59    1
