@<TRIPOS>MOLECULE
*****
 40 43 0 0 0
SMALL
GASTEIGER

@<TRIPOS>ATOM
      1 C          -2.9734   -4.4388   -0.1735 C.3     1  UNL1        0.0303
      2 N          -2.4950   -3.0690   -0.0174 N.ar    1  UNL1       -0.2721
      3 C          -1.2815   -2.6708    0.3631 C.ar    1  UNL1        0.0471
      4 C          -1.3185   -1.2738    0.4009 C.ar    1  UNL1        0.0795
      5 N          -0.2096   -0.4750    0.7533 N.am    1  UNL1       -0.2784
      6 C           0.7659   -0.0381   -0.2064 C.2     1  UNL1        0.2535
      7 O           0.6897   -0.3373   -1.4007 O.2     1  UNL1       -0.2697
      8 C           1.8421    0.7803    0.3468 C.ar    1  UNL1        0.1008
      9 C           1.6825    1.8509    1.2393 C.ar    1  UNL1        0.0641
     10 N           2.8861    2.3548    1.5314 N.ar    1  UNL1       -0.1726
     11 N           3.8077    1.6563    0.8673 N.ar    1  UNL1       -0.2209
     12 C           5.1440    1.7914    0.8442 C.ar    1  UNL1        0.0347
     13 C           5.8768    0.9196    0.0607 C.ar    1  UNL1       -0.0039
     14 C           5.2616   -0.0880   -0.6961 C.ar    1  UNL1        0.1200
     15 N           6.0560   -0.9709   -1.4716 N.pl3   1  UNL1       -0.3430
     16 N           3.9325   -0.1578   -0.6235 N.ar    1  UNL1       -0.2128
     17 C           3.1874    0.6976    0.1448 C.ar    1  UNL1        0.1696
     18 C          -2.5712   -0.8654    0.0353 C.ar    1  UNL1        0.1153
     19 C          -3.1554    0.4749   -0.0819 C.ar    1  UNL1        0.0236
     20 C          -3.4095    1.1572    1.1144 C.ar    1  UNL1       -0.0327
     21 C          -4.0477    2.3587    1.1143 C.ar    1  UNL1        0.0417
     22 CL         -4.4120    3.2285    2.6143 Cl      1  UNL1       -0.0835
     23 C          -4.4638    2.9517   -0.0462 C.ar    1  UNL1       -0.0420
     24 C          -4.2091    2.2783   -1.2323 C.ar    1  UNL1       -0.0414
     25 C          -3.5634    1.0621   -1.2390 C.ar    1  UNL1        0.0503
     26 CL         -3.2284    0.2467   -2.7671 Cl      1  UNL1       -0.0829
     27 N          -3.2833   -2.0139   -0.2215 N.ar    1  UNL1       -0.1695
     28 H          -2.1867   -5.0925   -0.5529 H       1  UNL1        0.0473
     29 H          -3.2717   -4.8297    0.8482 H       1  UNL1        0.0473
     30 H          -3.8607   -4.4615   -0.8218 H       1  UNL1        0.0473
     31 H          -0.4317   -3.3143    0.5892 H       1  UNL1        0.0845
     32 H          -0.1051   -0.1975    1.7582 H       1  UNL1        0.1552
     33 H           0.6754    2.1482    1.5825 H       1  UNL1        0.0856
     34 H           5.5882    2.5723    1.4330 H       1  UNL1        0.0832
     35 H           6.9481    1.0134    0.0307 H       1  UNL1        0.0667
     36 H           6.4985   -0.6260   -2.3522 H       1  UNL1        0.1437
     37 H           6.2414   -1.9813   -1.2216 H       1  UNL1        0.1437
     38 H          -3.1035    0.7418    2.0593 H       1  UNL1        0.0639
     39 H          -4.9798    3.9012   -0.1135 H       1  UNL1        0.0633
     40 H          -4.5229    2.7157   -2.1640 H       1  UNL1        0.0633
@<TRIPOS>BOND
     1     1     2    1
     2     2     3   ar
     3     3     4   ar
     4     4     5    1
     5     5     6   am
     6     6     7    2
     7     6     8    1
     8     8     9   ar
     9     9    10   ar
    10    10    11   ar
    11    11    12   ar
    12    12    13   ar
    13    13    14   ar
    14    14    15    1
    15    14    16   ar
    16    16    17   ar
    17     4    18   ar
    18    18    19    1
    19    19    20   ar
    20    20    21   ar
    21    21    22    1
    22    21    23   ar
    23    23    24   ar
    24    24    25   ar
    25    25    26    1
    26    18    27   ar
    27    27     2   ar
    28    17     8   ar
    29    25    19   ar
    30    17    11   ar
    31     1    28    1
    32     1    29    1
    33     1    30    1
    34     3    31    1
    35     5    32    1
    36     9    33    1
    37    12    34    1
    38    13    35    1
    39    15    36    1
    40    15    37    1
    41    20    38    1
    42    23    39    1
    43    24    40    1
