
     RDKit          3D

154159  0  0  0  0  0  0  0  0999 V2000
   14.2785   -0.7037    1.2978 C   0  0  0  0  0  0  0  0  0  0  0  0
   13.9301   -1.0980   -0.0053 O   0  0  0  0  0  0  0  0  0  0  0  0
   12.6491   -1.4450   -0.3943 C   0  0  0  0  0  0  0  0  0  0  0  0
   11.5720   -1.4367    0.4661 C   0  0  0  0  0  0  0  0  0  0  0  0
   10.2714   -1.7923    0.0686 C   0  0  0  0  0  0  0  0  0  0  0  0
    9.2253   -1.7483    1.0893 C   0  0  0  0  0  0  0  0  0  0  0  0
    8.3423   -0.5620    1.1545 C   0  0  2  0  0  0  0  0  0  0  0  0
    8.9395    0.7393    1.3792 C   0  0  0  0  0  0  0  0  0  0  0  0
    9.8549    1.2264    0.4255 C   0  0  0  0  0  0  0  0  0  0  0  0
   10.5105    2.4365    0.5093 C   0  0  0  0  0  0  0  0  0  0  0  0
   11.4140    2.9434   -0.4069 O   0  0  0  0  0  0  0  0  0  0  0  0
   11.7432    2.2030   -1.5597 C   0  0  0  0  0  0  0  0  0  0  0  0
   10.2776    3.2703    1.6024 C   0  0  0  0  0  0  0  0  0  0  0  0
   10.9080    4.4909    1.7366 O   0  0  0  0  0  0  0  0  0  0  0  0
   10.6339    5.2932    2.8538 C   0  0  0  0  0  0  0  0  0  0  0  0
    9.3953    2.8684    2.5756 C   0  0  0  0  0  0  0  0  0  0  0  0
    8.7889    1.6484    2.4074 C   0  0  0  0  0  0  0  0  0  0  0  0
    7.7870    1.2127    3.3916 C   0  0  0  0  0  0  0  0  0  0  0  0
    6.7475    0.3951    2.5972 C   0  0  0  0  0  0  0  0  0  0  0  0
    7.3678   -0.8293    2.2367 N   0  0  0  0  0  4  0  0  0  0  0  0
    8.1317   -1.3441    3.4020 C   0  0  0  0  0  0  0  0  0  0  0  0
    6.5034   -1.8771    1.8561 C   0  0  0  0  0  0  0  0  0  0  0  0
    5.0622   -1.7583    2.1530 C   0  0  0  0  0  0  0  0  0  0  0  0
    4.2713   -0.7351    1.4495 C   0  0  0  0  0  0  0  0  0  0  0  0
    4.3486   -0.9826    0.0368 O   0  0  0  0  0  0  0  0  0  0  0  0
    3.6230   -0.1865   -0.8524 C   0  0  0  0  0  0  0  0  0  0  0  0
    3.0725    0.5880   -0.0236 O   0  0  0  0  0  0  0  0  0  0  0  0
    3.6693   -0.4113   -2.3232 C   0  0  0  0  0  0  0  0  0  0  0  0
    2.7633    0.5527   -3.0282 C   0  0  0  0  0  0  0  0  0  0  0  0
    1.3299    0.4223   -2.6458 C   0  0  0  0  0  0  0  0  0  0  0  0
    0.7319   -0.4096   -1.8028 C   0  0  0  0  0  0  0  0  0  0  0  0
   -0.6412   -0.6729   -1.3124 C   0  0  0  0  0  0  0  0  0  0  0  0
   -1.6885    0.2290   -1.9110 C   0  0  0  0  0  0  0  0  0  0  0  0
   -3.0050   -0.1432   -1.2769 C   0  0  0  0  0  0  0  0  0  0  0  0
   -3.2514   -1.0103   -0.4007 O   0  0  0  0  0  0  0  0  0  0  0  0
   -3.9869    0.6326   -1.7990 O   0  0  0  0  0  0  0  0  0  0  0  0
   -5.3701    0.6091   -1.4529 C   0  0  0  0  0  0  0  0  0  0  0  0
   -5.5706    0.9542   -0.0047 C   0  0  0  0  0  0  0  0  0  0  0  0
   -6.9682    1.0041    0.4961 C   0  0  0  0  0  0  0  0  0  0  0  0
   -7.7925   -0.1464    0.4801 N   0  0  0  0  0  4  0  0  0  0  0  0
   -8.5543   -0.1161    1.7496 C   0  0  0  0  0  0  0  0  0  0  0  0
   -6.9797   -1.3659    0.6110 C   0  0  0  0  0  0  0  0  0  0  0  0
   -7.4709   -2.5330   -0.2114 C   0  0  0  0  0  0  0  0  0  0  0  0
   -8.9640   -2.6685   -0.0177 C   0  0  0  0  0  0  0  0  0  0  0  0
   -9.5436   -3.8365    0.3502 C   0  0  0  0  0  0  0  0  0  0  0  0
  -10.9025   -3.8101    0.5676 C   0  0  0  0  0  0  0  0  0  0  0  0
  -11.5319   -4.9867    0.9446 O   0  0  0  0  0  0  0  0  0  0  0  0
  -10.8332   -6.2048    1.1090 C   0  0  0  0  0  0  0  0  0  0  0  0
  -11.6111   -2.6504    0.4142 C   0  0  0  0  0  0  0  0  0  0  0  0
  -12.9548   -2.7552    0.6641 O   0  0  0  0  0  0  0  0  0  0  0  0
  -13.8079   -1.6568    0.5591 C   0  0  0  0  0  0  0  0  0  0  0  0
  -10.9377   -1.5215    0.0387 C   0  0  0  0  0  0  0  0  0  0  0  0
   -9.5905   -1.4122   -0.2108 C   0  0  0  0  0  0  0  0  0  0  0  0
   -8.7114   -0.2802   -0.6267 C   0  0  1  0  0  0  0  0  0  0  0  0
   -9.2272    0.8244   -1.3700 C   0  0  0  0  0  0  0  0  0  0  0  0
  -10.0547    1.9168   -1.0059 C   0  0  0  0  0  0  0  0  0  0  0  0
  -11.4290    1.7810   -1.3051 C   0  0  0  0  0  0  0  0  0  0  0  0
  -12.4750    2.6462   -1.1001 C   0  0  0  0  0  0  0  0  0  0  0  0
  -13.8009    2.4536   -1.4146 O   0  0  0  0  0  0  0  0  0  0  0  0
  -14.2526    1.2678   -2.0246 C   0  0  0  0  0  0  0  0  0  0  0  0
  -12.1438    3.8426   -0.5087 C   0  0  0  0  0  0  0  0  0  0  0  0
  -13.1248    4.7882   -0.2573 O   0  0  0  0  0  0  0  0  0  0  0  0
  -13.8684    4.8429    0.9443 C   0  0  0  0  0  0  0  0  0  0  0  0
  -10.8448    4.1239   -0.1584 C   0  0  0  0  0  0  0  0  0  0  0  0
  -10.5351    5.3268    0.4312 O   0  0  0  0  0  0  0  0  0  0  0  0
   -9.2460    5.7101    0.8229 C   0  0  0  0  0  0  0  0  0  0  0  0
   -9.9195    3.1595   -0.4283 C   0  0  0  0  0  0  0  0  0  0  0  0
   10.1423   -2.1520   -1.2521 C   0  0  0  0  0  0  0  0  0  0  0  0
   11.1630   -2.1821   -2.1573 C   0  0  0  0  0  0  0  0  0  0  0  0
   11.0970   -2.5293   -3.4850 O   0  0  0  0  0  0  0  0  0  0  0  0
    9.8578   -2.9053   -4.0411 C   0  0  0  0  0  0  0  0  0  0  0  0
   12.4305   -1.8221   -1.7119 C   0  0  0  0  0  0  0  0  0  0  0  0
   13.5397   -1.8244   -2.5727 O   0  0  0  0  0  0  0  0  0  0  0  0
   14.3476   -2.9841   -2.7168 C   0  0  0  0  0  0  0  0  0  0  0  0
   14.1033    0.3843    1.3743 H   0  0  0  0  0  0  0  0  0  0  0  0
   15.3748   -0.9346    1.4295 H   0  0  0  0  0  0  0  0  0  0  0  0
   13.6976   -1.2821    2.0649 H   0  0  0  0  0  0  0  0  0  0  0  0
   11.7521   -1.1437    1.4838 H   0  0  0  0  0  0  0  0  0  0  0  0
    9.6986   -1.9631    2.1029 H   0  0  0  0  0  0  0  0  0  0  0  0
    8.5430   -2.6471    0.9663 H   0  0  0  0  0  0  0  0  0  0  0  0
    7.7113   -0.5305    0.2177 H   0  0  0  0  0  0  0  0  0  0  0  0
   10.1352    0.7289   -0.4881 H   0  0  0  0  0  0  0  0  0  0  0  0
   10.8609    1.8551   -2.1288 H   0  0  0  0  0  0  0  0  0  0  0  0
   12.4001    2.8490   -2.1846 H   0  0  0  0  0  0  0  0  0  0  0  0
   12.2991    1.2921   -1.2317 H   0  0  0  0  0  0  0  0  0  0  0  0
    9.5876    5.7016    2.8296 H   0  0  0  0  0  0  0  0  0  0  0  0
   10.7564    4.7892    3.8231 H   0  0  0  0  0  0  0  0  0  0  0  0
   11.3215    6.1796    2.8635 H   0  0  0  0  0  0  0  0  0  0  0  0
    9.1497    3.4495    3.4593 H   0  0  0  0  0  0  0  0  0  0  0  0
    8.1308    0.7194    4.2782 H   0  0  0  0  0  0  0  0  0  0  0  0
    7.2136    2.1256    3.7069 H   0  0  0  0  0  0  0  0  0  0  0  0
    5.8789    0.2992    3.2507 H   0  0  0  0  0  0  0  0  0  0  0  0
    6.5139    0.9815    1.7024 H   0  0  0  0  0  0  0  0  0  0  0  0
    9.0885   -0.8424    3.5221 H   0  0  0  0  0  0  0  0  0  0  0  0
    7.5162   -1.2070    4.3245 H   0  0  0  0  0  0  0  0  0  0  0  0
    8.2689   -2.4289    3.3130 H   0  0  0  0  0  0  0  0  0  0  0  0
    6.6501   -2.0042    0.7268 H   0  0  0  0  0  0  0  0  0  0  0  0
    6.8653   -2.8845    2.2403 H   0  0  0  0  0  0  0  0  0  0  0  0
    4.5768   -2.7948    1.9967 H   0  0  0  0  0  0  0  0  0  0  0  0
    4.8945   -1.6614    3.2897 H   0  0  0  0  0  0  0  0  0  0  0  0
    3.1697   -0.9776    1.7364 H   0  0  0  0  0  0  0  0  0  0  0  0
    4.3480    0.3042    1.6690 H   0  0  0  0  0  0  0  0  0  0  0  0
    4.6813   -0.2873   -2.7023 H   0  0  0  0  0  0  0  0  0  0  0  0
    3.2774   -1.4461   -2.5458 H   0  0  0  0  0  0  0  0  0  0  0  0
    2.8744    0.5065   -4.1223 H   0  0  0  0  0  0  0  0  0  0  0  0
    3.0752    1.5773   -2.6664 H   0  0  0  0  0  0  0  0  0  0  0  0
    0.5645    1.0655   -3.0643 H   0  0  0  0  0  0  0  0  0  0  0  0
    1.4157   -1.1328   -1.3169 H   0  0  0  0  0  0  0  0  0  0  0  0
   -0.6573   -0.6025   -0.2018 H   0  0  0  0  0  0  0  0  0  0  0  0
   -0.8813   -1.7589   -1.5130 H   0  0  0  0  0  0  0  0  0  0  0  0
   -1.7333    0.2244   -2.9996 H   0  0  0  0  0  0  0  0  0  0  0  0
   -1.4820    1.2614   -1.5476 H   0  0  0  0  0  0  0  0  0  0  0  0
   -5.8009    1.4796   -2.0387 H   0  0  0  0  0  0  0  0  0  0  0  0
   -5.7624   -0.3342   -1.8084 H   0  0  0  0  0  0  0  0  0  0  0  0
   -5.0998    2.0097    0.0807 H   0  0  0  0  0  0  0  0  0  0  0  0
   -4.8524    0.3610    0.6010 H   0  0  0  0  0  0  0  0  0  0  0  0
   -7.4291    1.8546   -0.0974 H   0  0  0  0  0  0  0  0  0  0  0  0
   -6.8684    1.3596    1.5807 H   0  0  0  0  0  0  0  0  0  0  0  0
   -7.7986    0.1716    2.5098 H   0  0  0  0  0  0  0  0  0  0  0  0
   -8.8673   -1.1460    2.0206 H   0  0  0  0  0  0  0  0  0  0  0  0
   -9.3402    0.6348    1.7549 H   0  0  0  0  0  0  0  0  0  0  0  0
   -7.0145   -1.7602    1.6780 H   0  0  0  0  0  0  0  0  0  0  0  0
   -5.9491   -1.1802    0.3090 H   0  0  0  0  0  0  0  0  0  0  0  0
   -7.0399   -3.4682    0.2347 H   0  0  0  0  0  0  0  0  0  0  0  0
   -7.2030   -2.5508   -1.2517 H   0  0  0  0  0  0  0  0  0  0  0  0
   -8.9244   -4.7188    0.4537 H   0  0  0  0  0  0  0  0  0  0  0  0
  -10.2018   -6.3250    0.1908 H   0  0  0  0  0  0  0  0  0  0  0  0
  -11.5264   -7.0675    1.2026 H   0  0  0  0  0  0  0  0  0  0  0  0
  -10.1355   -6.0817    1.9503 H   0  0  0  0  0  0  0  0  0  0  0  0
  -14.5927   -1.7497    1.3462 H   0  0  0  0  0  0  0  0  0  0  0  0
  -13.3628   -0.6725    0.6843 H   0  0  0  0  0  0  0  0  0  0  0  0
  -14.3882   -1.6706   -0.4123 H   0  0  0  0  0  0  0  0  0  0  0  0
  -11.5233   -0.6362   -0.0527 H   0  0  0  0  0  0  0  0  0  0  0  0
   -8.0256   -0.8037   -1.3905 H   0  0  0  0  0  0  0  0  0  0  0  0
   -9.6484    0.4446   -2.3865 H   0  0  0  0  0  0  0  0  0  0  0  0
   -8.2740    1.3379   -1.8364 H   0  0  0  0  0  0  0  0  0  0  0  0
  -11.8131    0.8654   -1.8030 H   0  0  0  0  0  0  0  0  0  0  0  0
  -13.8624    0.3811   -1.4971 H   0  0  0  0  0  0  0  0  0  0  0  0
  -15.3607    1.2230   -1.9608 H   0  0  0  0  0  0  0  0  0  0  0  0
  -13.8993    1.2852   -3.0918 H   0  0  0  0  0  0  0  0  0  0  0  0
  -13.7671    3.8257    1.3970 H   0  0  0  0  0  0  0  0  0  0  0  0
  -14.9414    5.0628    0.7843 H   0  0  0  0  0  0  0  0  0  0  0  0
  -13.4092    5.5630    1.6361 H   0  0  0  0  0  0  0  0  0  0  0  0
   -8.5819    5.6331   -0.0876 H   0  0  0  0  0  0  0  0  0  0  0  0
   -8.8477    4.9682    1.5578 H   0  0  0  0  0  0  0  0  0  0  0  0
   -9.1885    6.7461    1.1646 H   0  0  0  0  0  0  0  0  0  0  0  0
   -8.9199    3.4477   -0.1406 H   0  0  0  0  0  0  0  0  0  0  0  0
    9.1599   -2.4297   -1.5928 H   0  0  0  0  0  0  0  0  0  0  0  0
    9.9858   -3.4561   -4.9946 H   0  0  0  0  0  0  0  0  0  0  0  0
    9.2687   -3.5071   -3.3375 H   0  0  0  0  0  0  0  0  0  0  0  0
    9.2909   -1.9570   -4.2647 H   0  0  0  0  0  0  0  0  0  0  0  0
   13.9642   -3.6303   -3.5252 H   0  0  0  0  0  0  0  0  0  0  0  0
   15.3628   -2.6442   -2.9842 H   0  0  0  0  0  0  0  0  0  0  0  0
   14.4143   -3.5435   -1.7481 H   0  0  0  0  0  0  0  0  0  0  0  0
  1  2  1  0
  2  3  1  0
  3  4  2  0
  4  5  1  0
  5  6  1  0
  6  7  1  0
  7  8  1  0
  8  9  2  0
  9 10  1  0
 10 11  1  0
 11 12  1  0
 10 13  2  0
 13 14  1  0
 14 15  1  0
 13 16  1  0
 16 17  2  0
 17 18  1  0
 18 19  1  0
 19 20  1  0
 20 21  1  0
 20 22  1  0
 22 23  1  0
 23 24  1  0
 24 25  1  0
 25 26  1  0
 26 27  2  0
 26 28  1  0
 28 29  1  0
 29 30  1  0
 30 31  2  0
 31 32  1  0
 32 33  1  0
 33 34  1  0
 34 35  2  0
 34 36  1  0
 36 37  1  0
 37 38  1  0
 38 39  1  0
 39 40  1  0
 40 41  1  0
 40 42  1  0
 42 43  1  0
 43 44  1  0
 44 45  2  0
 45 46  1  0
 46 47  1  0
 47 48  1  0
 46 49  2  0
 49 50  1  0
 50 51  1  0
 49 52  1  0
 52 53  2  0
 53 54  1  0
 54 55  1  0
 55 56  1  0
 56 57  2  0
 57 58  1  0
 58 59  1  0
 59 60  1  0
 58 61  2  0
 61 62  1  0
 62 63  1  0
 61 64  1  0
 64 65  1  0
 65 66  1  0
 64 67  2  0
  5 68  2  0
 68 69  1  0
 69 70  1  0
 70 71  1  0
 69 72  2  0
 72 73  1  0
 73 74  1  0
 72  3  1  0
 20  7  1  0
 54 40  1  0
 67 56  1  0
 17  8  1  0
 53 44  1  0
  1 75  1  0
  1 76  1  0
  1 77  1  0
  4 78  1  0
  6 79  1  0
  6 80  1  0
  7 81  1  6
  9 82  1  0
 12 83  1  0
 12 84  1  0
 12 85  1  0
 15 86  1  0
 15 87  1  0
 15 88  1  0
 16 89  1  0
 18 90  1  0
 18 91  1  0
 19 92  1  0
 19 93  1  0
 21 94  1  0
 21 95  1  0
 21 96  1  0
 22 97  1  0
 22 98  1  0
 23 99  1  0
 23100  1  0
 24101  1  0
 24102  1  0
 28103  1  0
 28104  1  0
 29105  1  0
 29106  1  0
 30107  1  0
 31108  1  0
 32109  1  0
 32110  1  0
 33111  1  0
 33112  1  0
 37113  1  0
 37114  1  0
 38115  1  0
 38116  1  0
 39117  1  0
 39118  1  0
 41119  1  0
 41120  1  0
 41121  1  0
 42122  1  0
 42123  1  0
 43124  1  0
 43125  1  0
 45126  1  0
 48127  1  0
 48128  1  0
 48129  1  0
 51130  1  0
 51131  1  0
 51132  1  0
 52133  1  0
 54134  1  6
 55135  1  0
 55136  1  0
 57137  1  0
 60138  1  0
 60139  1  0
 60140  1  0
 63141  1  0
 63142  1  0
 63143  1  0
 66144  1  0
 66145  1  0
 66146  1  0
 67147  1  0
 68148  1  0
 71149  1  0
 71150  1  0
 71151  1  0
 74152  1  0
 74153  1  0
 74154  1  0
M  CHG  2  20   1  40   1
M  END
$$$$
