@<TRIPOS>MOLECULE
*****
 154 159 0 0 0
SMALL
GASTEIGER

@<TRIPOS>ATOM
      1 C          14.2785   -0.7037    1.2978 C.3     1  UNL1        0.0790
      2 O          13.9301   -1.0980   -0.0053 O.3     1  UNL1       -0.4913
      3 C          12.6491   -1.4450   -0.3943 C.ar    1  UNL1        0.1654
      4 C          11.5720   -1.4367    0.4661 C.ar    1  UNL1       -0.0127
      5 C          10.2714   -1.7923    0.0686 C.ar    1  UNL1       -0.0346
      6 C           9.2253   -1.7483    1.0893 C.3     1  UNL1        0.0202
      7 C           8.3423   -0.5620    1.1545 C.3     1  UNL1        0.0110
      8 C           8.9395    0.7393    1.3792 C.ar    1  UNL1        0.0076
      9 C           9.8549    1.2264    0.4255 C.ar    1  UNL1       -0.0075
     10 C          10.5105    2.4365    0.5093 C.ar    1  UNL1        0.1620
     11 O          11.4140    2.9434   -0.4069 O.3     1  UNL1       -0.4914
     12 C          11.7432    2.2030   -1.5597 C.3     1  UNL1        0.0790
     13 C          10.2776    3.2703    1.6024 C.ar    1  UNL1        0.1618
     14 O          10.9080    4.4909    1.7366 O.3     1  UNL1       -0.4914
     15 C          10.6339    5.2932    2.8538 C.3     1  UNL1        0.0790
     16 C           9.3953    2.8684    2.5756 C.ar    1  UNL1       -0.0125
     17 C           8.7889    1.6484    2.4074 C.ar    1  UNL1       -0.0302
     18 C           7.7870    1.2127    3.3916 C.3     1  UNL1        0.0133
     19 C           6.7475    0.3951    2.5972 C.3     1  UNL1       -0.0257
     20 N           7.3678   -0.8293    2.2367 N.4     1  UNL1        0.2471
     21 C           8.1317   -1.3441    3.4020 C.3     1  UNL1       -0.0407
     22 C           6.5034   -1.8771    1.8561 C.3     1  UNL1       -0.0266
     23 C           5.0622   -1.7583    2.1530 C.3     1  UNL1        0.0219
     24 C           4.2713   -0.7351    1.4495 C.3     1  UNL1        0.0973
     25 O           4.3486   -0.9826    0.0368 O.3     1  UNL1       -0.4644
     26 C           3.6230   -0.1865   -0.8524 C.2     1  UNL1        0.3074
     27 O           3.0725    0.5880   -0.0236 O.2     1  UNL1       -0.2508
     28 C           3.6693   -0.4113   -2.3232 C.3     1  UNL1        0.0483
     29 C           2.7633    0.5527   -3.0282 C.3     1  UNL1       -0.0247
     30 C           1.3299    0.4223   -2.6458 C.2     1  UNL1       -0.0874
     31 C           0.7319   -0.4096   -1.8028 C.2     1  UNL1       -0.0874
     32 C          -0.6412   -0.6729   -1.3124 C.3     1  UNL1       -0.0247
     33 C          -1.6885    0.2290   -1.9110 C.3     1  UNL1        0.0483
     34 C          -3.0050   -0.1432   -1.2769 C.2     1  UNL1        0.3074
     35 O          -3.2514   -1.0103   -0.4007 O.2     1  UNL1       -0.2508
     36 O          -3.9869    0.6326   -1.7990 O.3     1  UNL1       -0.4644
     37 C          -5.3701    0.6091   -1.4529 C.3     1  UNL1        0.0973
     38 C          -5.5706    0.9542   -0.0047 C.3     1  UNL1        0.0219
     39 C          -6.9682    1.0041    0.4961 C.3     1  UNL1       -0.0266
     40 N          -7.7925   -0.1464    0.4801 N.4     1  UNL1        0.2471
     41 C          -8.5543   -0.1161    1.7496 C.3     1  UNL1       -0.0407
     42 C          -6.9797   -1.3659    0.6110 C.3     1  UNL1       -0.0257
     43 C          -7.4709   -2.5330   -0.2114 C.3     1  UNL1        0.0133
     44 C          -8.9640   -2.6685   -0.0177 C.ar    1  UNL1       -0.0302
     45 C          -9.5436   -3.8365    0.3502 C.ar    1  UNL1       -0.0125
     46 C         -10.9025   -3.8101    0.5676 C.ar    1  UNL1        0.1618
     47 O         -11.5319   -4.9867    0.9446 O.3     1  UNL1       -0.4914
     48 C         -10.8332   -6.2048    1.1090 C.3     1  UNL1        0.0790
     49 C         -11.6111   -2.6504    0.4142 C.ar    1  UNL1        0.1620
     50 O         -12.9548   -2.7552    0.6641 O.3     1  UNL1       -0.4914
     51 C         -13.8079   -1.6568    0.5591 C.3     1  UNL1        0.0790
     52 C         -10.9377   -1.5215    0.0387 C.ar    1  UNL1       -0.0075
     53 C          -9.5905   -1.4122   -0.2108 C.ar    1  UNL1        0.0076
     54 C          -8.7114   -0.2802   -0.6267 C.3     1  UNL1        0.0110
     55 C          -9.2272    0.8244   -1.3700 C.3     1  UNL1        0.0202
     56 C         -10.0547    1.9168   -1.0059 C.ar    1  UNL1       -0.0346
     57 C         -11.4290    1.7810   -1.3051 C.ar    1  UNL1       -0.0127
     58 C         -12.4750    2.6462   -1.1001 C.ar    1  UNL1        0.1654
     59 O         -13.8009    2.4536   -1.4146 O.3     1  UNL1       -0.4913
     60 C         -14.2526    1.2678   -2.0246 C.3     1  UNL1        0.0790
     61 C         -12.1438    3.8426   -0.5087 C.ar    1  UNL1        0.2035
     62 O         -13.1248    4.7882   -0.2573 O.3     1  UNL1       -0.4885
     63 C         -13.8684    4.8429    0.9443 C.3     1  UNL1        0.0791
     64 C         -10.8448    4.1239   -0.1584 C.ar    1  UNL1        0.1654
     65 O         -10.5351    5.3268    0.4312 O.3     1  UNL1       -0.4913
     66 C          -9.2460    5.7101    0.8229 C.3     1  UNL1        0.0790
     67 C          -9.9195    3.1595   -0.4283 C.ar    1  UNL1       -0.0127
     68 C          10.1423   -2.1520   -1.2521 C.ar    1  UNL1       -0.0127
     69 C          11.1630   -2.1821   -2.1573 C.ar    1  UNL1        0.1654
     70 O          11.0970   -2.5293   -3.4850 O.3     1  UNL1       -0.4913
     71 C           9.8578   -2.9053   -4.0411 C.3     1  UNL1        0.0790
     72 C          12.4305   -1.8221   -1.7119 C.ar    1  UNL1        0.2035
     73 O          13.5397   -1.8244   -2.5727 O.3     1  UNL1       -0.4885
     74 C          14.3476   -2.9841   -2.7168 C.3     1  UNL1        0.0791
     75 H          14.1033    0.3843    1.3743 H       1  UNL1        0.0660
     76 H          15.3748   -0.9346    1.4295 H       1  UNL1        0.0660
     77 H          13.6976   -1.2821    2.0649 H       1  UNL1        0.0660
     78 H          11.7521   -1.1437    1.4838 H       1  UNL1        0.0658
     79 H           9.6986   -1.9631    2.1029 H       1  UNL1        0.0372
     80 H           8.5430   -2.6471    0.9663 H       1  UNL1        0.0372
     81 H           7.7113   -0.5305    0.2177 H       1  UNL1        0.0908
     82 H          10.1352    0.7289   -0.4881 H       1  UNL1        0.0660
     83 H          10.8609    1.8551   -2.1288 H       1  UNL1        0.0660
     84 H          12.4001    2.8490   -2.1846 H       1  UNL1        0.0660
     85 H          12.2991    1.2921   -1.2317 H       1  UNL1        0.0660
     86 H           9.5876    5.7016    2.8296 H       1  UNL1        0.0660
     87 H          10.7564    4.7892    3.8231 H       1  UNL1        0.0660
     88 H          11.3215    6.1796    2.8635 H       1  UNL1        0.0660
     89 H           9.1497    3.4495    3.4593 H       1  UNL1        0.0658
     90 H           8.1308    0.7194    4.2782 H       1  UNL1        0.0365
     91 H           7.2136    2.1256    3.7069 H       1  UNL1        0.0365
     92 H           5.8789    0.2992    3.2507 H       1  UNL1        0.0818
     93 H           6.5139    0.9815    1.7024 H       1  UNL1        0.0818
     94 H           9.0885   -0.8424    3.5221 H       1  UNL1        0.0778
     95 H           7.5162   -1.2070    4.3245 H       1  UNL1        0.0778
     96 H           8.2689   -2.4289    3.3130 H       1  UNL1        0.0778
     97 H           6.6501   -2.0042    0.7268 H       1  UNL1        0.0816
     98 H           6.8653   -2.8845    2.2403 H       1  UNL1        0.0816
     99 H           4.5768   -2.7948    1.9967 H       1  UNL1        0.0350
    100 H           4.8945   -1.6614    3.2897 H       1  UNL1        0.0350
    101 H           3.1697   -0.9776    1.7364 H       1  UNL1        0.0699
    102 H           4.3480    0.3042    1.6690 H       1  UNL1        0.0699
    103 H           4.6813   -0.2873   -2.7023 H       1  UNL1        0.0380
    104 H           3.2774   -1.4461   -2.5458 H       1  UNL1        0.0380
    105 H           2.8744    0.5065   -4.1223 H       1  UNL1        0.0312
    106 H           3.0752    1.5773   -2.6664 H       1  UNL1        0.0312
    107 H           0.5645    1.0655   -3.0643 H       1  UNL1        0.0569
    108 H           1.4157   -1.1328   -1.3169 H       1  UNL1        0.0569
    109 H          -0.6573   -0.6025   -0.2018 H       1  UNL1        0.0312
    110 H          -0.8813   -1.7589   -1.5130 H       1  UNL1        0.0312
    111 H          -1.7333    0.2244   -2.9996 H       1  UNL1        0.0380
    112 H          -1.4820    1.2614   -1.5476 H       1  UNL1        0.0380
    113 H          -5.8009    1.4796   -2.0387 H       1  UNL1        0.0699
    114 H          -5.7624   -0.3342   -1.8084 H       1  UNL1        0.0699
    115 H          -5.0998    2.0097    0.0807 H       1  UNL1        0.0350
    116 H          -4.8524    0.3610    0.6010 H       1  UNL1        0.0350
    117 H          -7.4291    1.8546   -0.0974 H       1  UNL1        0.0816
    118 H          -6.8684    1.3596    1.5807 H       1  UNL1        0.0816
    119 H          -7.7986    0.1716    2.5098 H       1  UNL1        0.0778
    120 H          -8.8673   -1.1460    2.0206 H       1  UNL1        0.0778
    121 H          -9.3402    0.6348    1.7549 H       1  UNL1        0.0778
    122 H          -7.0145   -1.7602    1.6780 H       1  UNL1        0.0818
    123 H          -5.9491   -1.1802    0.3090 H       1  UNL1        0.0818
    124 H          -7.0399   -3.4682    0.2347 H       1  UNL1        0.0365
    125 H          -7.2030   -2.5508   -1.2517 H       1  UNL1        0.0365
    126 H          -8.9244   -4.7188    0.4537 H       1  UNL1        0.0658
    127 H         -10.2018   -6.3250    0.1908 H       1  UNL1        0.0660
    128 H         -11.5264   -7.0675    1.2026 H       1  UNL1        0.0660
    129 H         -10.1355   -6.0817    1.9503 H       1  UNL1        0.0660
    130 H         -14.5927   -1.7497    1.3462 H       1  UNL1        0.0660
    131 H         -13.3628   -0.6725    0.6843 H       1  UNL1        0.0660
    132 H         -14.3882   -1.6706   -0.4123 H       1  UNL1        0.0660
    133 H         -11.5233   -0.6362   -0.0527 H       1  UNL1        0.0660
    134 H          -8.0256   -0.8037   -1.3905 H       1  UNL1        0.0908
    135 H          -9.6484    0.4446   -2.3865 H       1  UNL1        0.0372
    136 H          -8.2740    1.3379   -1.8364 H       1  UNL1        0.0372
    137 H         -11.8131    0.8654   -1.8030 H       1  UNL1        0.0658
    138 H         -13.8624    0.3811   -1.4971 H       1  UNL1        0.0660
    139 H         -15.3607    1.2230   -1.9608 H       1  UNL1        0.0660
    140 H         -13.8993    1.2852   -3.0918 H       1  UNL1        0.0660
    141 H         -13.7671    3.8257    1.3970 H       1  UNL1        0.0660
    142 H         -14.9414    5.0628    0.7843 H       1  UNL1        0.0660
    143 H         -13.4092    5.5630    1.6361 H       1  UNL1        0.0660
    144 H          -8.5819    5.6331   -0.0876 H       1  UNL1        0.0660
    145 H          -8.8477    4.9682    1.5578 H       1  UNL1        0.0660
    146 H          -9.1885    6.7461    1.1646 H       1  UNL1        0.0660
    147 H          -8.9199    3.4477   -0.1406 H       1  UNL1        0.0658
    148 H           9.1599   -2.4297   -1.5928 H       1  UNL1        0.0658
    149 H           9.9858   -3.4561   -4.9946 H       1  UNL1        0.0660
    150 H           9.2687   -3.5071   -3.3375 H       1  UNL1        0.0660
    151 H           9.2909   -1.9570   -4.2647 H       1  UNL1        0.0660
    152 H          13.9642   -3.6303   -3.5252 H       1  UNL1        0.0660
    153 H          15.3628   -2.6442   -2.9842 H       1  UNL1        0.0660
    154 H          14.4143   -3.5435   -1.7481 H       1  UNL1        0.0660
@<TRIPOS>UNITY_ATOM_ATTR
20 1
charge 1
40 1
charge 1
@<TRIPOS>BOND
     1     1     2    1
     2     2     3    1
     3     3     4   ar
     4     4     5   ar
     5     5     6    1
     6     6     7    1
     7     7     8    1
     8     8     9   ar
     9     9    10   ar
    10    10    11    1
    11    11    12    1
    12    10    13   ar
    13    13    14    1
    14    14    15    1
    15    13    16   ar
    16    16    17   ar
    17    17    18    1
    18    18    19    1
    19    19    20    1
    20    20    21    1
    21    20    22    1
    22    22    23    1
    23    23    24    1
    24    24    25    1
    25    25    26    1
    26    26    27    2
    27    26    28    1
    28    28    29    1
    29    29    30    1
    30    30    31    2
    31    31    32    1
    32    32    33    1
    33    33    34    1
    34    34    35    2
    35    34    36    1
    36    36    37    1
    37    37    38    1
    38    38    39    1
    39    39    40    1
    40    40    41    1
    41    40    42    1
    42    42    43    1
    43    43    44    1
    44    44    45   ar
    45    45    46   ar
    46    46    47    1
    47    47    48    1
    48    46    49   ar
    49    49    50    1
    50    50    51    1
    51    49    52   ar
    52    52    53   ar
    53    53    54    1
    54    54    55    1
    55    55    56    1
    56    56    57   ar
    57    57    58   ar
    58    58    59    1
    59    59    60    1
    60    58    61   ar
    61    61    62    1
    62    62    63    1
    63    61    64   ar
    64    64    65    1
    65    65    66    1
    66    64    67   ar
    67     5    68   ar
    68    68    69   ar
    69    69    70    1
    70    70    71    1
    71    69    72   ar
    72    72    73    1
    73    73    74    1
    74    72     3   ar
    75    20     7    1
    76    54    40    1
    77    67    56   ar
    78    17     8   ar
    79    53    44   ar
    80     1    75    1
    81     1    76    1
    82     1    77    1
    83     4    78    1
    84     6    79    1
    85     6    80    1
    86     7    81    1
    87     9    82    1
    88    12    83    1
    89    12    84    1
    90    12    85    1
    91    15    86    1
    92    15    87    1
    93    15    88    1
    94    16    89    1
    95    18    90    1
    96    18    91    1
    97    19    92    1
    98    19    93    1
    99    21    94    1
   100    21    95    1
   101    21    96    1
   102    22    97    1
   103    22    98    1
   104    23    99    1
   105    23   100    1
   106    24   101    1
   107    24   102    1
   108    28   103    1
   109    28   104    1
   110    29   105    1
   111    29   106    1
   112    30   107    1
   113    31   108    1
   114    32   109    1
   115    32   110    1
   116    33   111    1
   117    33   112    1
   118    37   113    1
   119    37   114    1
   120    38   115    1
   121    38   116    1
   122    39   117    1
   123    39   118    1
   124    41   119    1
   125    41   120    1
   126    41   121    1
   127    42   122    1
   128    42   123    1
   129    43   124    1
   130    43   125    1
   131    45   126    1
   132    48   127    1
   133    48   128    1
   134    48   129    1
   135    51   130    1
   136    51   131    1
   137    51   132    1
   138    52   133    1
   139    54   134    1
   140    55   135    1
   141    55   136    1
   142    57   137    1
   143    60   138    1
   144    60   139    1
   145    60   140    1
   146    63   141    1
   147    63   142    1
   148    63   143    1
   149    66   144    1
   150    66   145    1
   151    66   146    1
   152    67   147    1
   153    68   148    1
   154    71   149    1
   155    71   150    1
   156    71   151    1
   157    74   152    1
   158    74   153    1
   159    74   154    1
