
     RDKit          3D

 43 46  0  0  0  0  0  0  0  0999 V2000
    0.9637    0.4780    2.0481 C   0  0  0  0  0  0  0  0  0  0  0  0
    0.6280    1.4111    0.8913 C   0  0  1  0  0  0  0  0  0  0  0  0
    1.8207    1.3182   -0.0696 C   0  0  0  0  0  0  0  0  0  0  0  0
    1.7937   -0.0933   -0.5800 C   0  0  0  0  0  0  0  0  0  0  0  0
    0.5884   -0.5894   -1.0591 C   0  0  0  0  0  0  0  0  0  0  0  0
    0.8681   -1.8488   -1.4380 N   0  0  0  0  0  0  0  0  0  0  0  0
    2.1622   -2.0860   -1.1981 N   0  0  0  0  0  0  0  0  0  0  0  0
    2.7439   -1.0404   -0.6794 N   0  0  0  0  0  0  0  0  0  0  0  0
    4.0970   -0.8602   -0.2759 C   0  0  0  0  0  0  0  0  0  0  0  0
    4.6675    0.3308   -0.1416 N   0  0  0  0  0  0  0  0  0  0  0  0
    5.9412    0.5022    0.2382 C   0  0  0  0  0  0  0  0  0  0  0  0
    6.7312   -0.6148    0.5130 C   0  0  0  0  0  0  0  0  0  0  0  0
    8.0202   -0.4484    0.8976 F   0  0  0  0  0  0  0  0  0  0  0  0
    6.1426   -1.8522    0.3746 C   0  0  0  0  0  0  0  0  0  0  0  0
    4.8597   -1.9474   -0.0104 N   0  0  0  0  0  0  0  0  0  0  0  0
   -0.5760    0.3004   -1.0341 C   0  0  0  0  0  0  0  0  0  0  0  0
   -0.5910    1.0023    0.2340 N   0  0  0  0  0  0  0  0  0  0  0  0
   -1.8538    1.2770    0.8126 C   0  0  0  0  0  0  0  0  0  0  0  0
   -1.8870    1.8843    1.9110 O   0  0  0  0  0  0  0  0  0  0  0  0
   -3.1078    0.8847    0.1867 C   0  0  0  0  0  0  0  0  0  0  0  0
   -3.7960    1.7036   -0.7048 C   0  0  0  0  0  0  0  0  0  0  0  0
   -4.9841    1.3007   -1.2814 C   0  0  0  0  0  0  0  0  0  0  0  0
   -5.5069    0.0625   -0.9729 C   0  0  0  0  0  0  0  0  0  0  0  0
   -4.8514   -0.7540   -0.1044 C   0  0  0  0  0  0  0  0  0  0  0  0
   -5.4243   -2.0925    0.2237 C   0  0  0  0  0  0  0  0  0  0  0  0
   -4.5564   -3.1138   -0.1227 F   0  0  0  0  0  0  0  0  0  0  0  0
   -5.6069   -2.1486    1.6102 F   0  0  0  0  0  0  0  0  0  0  0  0
   -6.6607   -2.2202   -0.3379 F   0  0  0  0  0  0  0  0  0  0  0  0
   -3.6525   -0.3429    0.4749 C   0  0  0  0  0  0  0  0  0  0  0  0
   -3.0052   -1.1587    1.3376 F   0  0  0  0  0  0  0  0  0  0  0  0
    1.9285    0.7961    2.4780 H   0  0  0  0  0  0  0  0  0  0  0  0
    0.2147    0.5366    2.8481 H   0  0  0  0  0  0  0  0  0  0  0  0
    1.0879   -0.5551    1.6441 H   0  0  0  0  0  0  0  0  0  0  0  0
    0.5504    2.4301    1.3325 H   0  0  0  0  0  0  0  0  0  0  0  0
    2.7122    1.5105    0.5400 H   0  0  0  0  0  0  0  0  0  0  0  0
    1.6340    2.0483   -0.8639 H   0  0  0  0  0  0  0  0  0  0  0  0
    6.3868    1.4915    0.3413 H   0  0  0  0  0  0  0  0  0  0  0  0
    6.7656   -2.7165    0.5908 H   0  0  0  0  0  0  0  0  0  0  0  0
   -0.3973    1.0925   -1.8147 H   0  0  0  0  0  0  0  0  0  0  0  0
   -1.5345   -0.2243   -1.2120 H   0  0  0  0  0  0  0  0  0  0  0  0
   -3.3518    2.6697   -0.9213 H   0  0  0  0  0  0  0  0  0  0  0  0
   -5.5199    1.9260   -1.9689 H   0  0  0  0  0  0  0  0  0  0  0  0
   -6.4445   -0.2494   -1.4311 H   0  0  0  0  0  0  0  0  0  0  0  0
  1  2  1  0
  2  3  1  0
  3  4  1  0
  4  5  2  0
  5  6  1  0
  6  7  2  0
  7  8  1  0
  8  9  1  0
  9 10  2  0
 10 11  1  0
 11 12  2  0
 12 13  1  0
 12 14  1  0
 14 15  2  0
  5 16  1  0
 16 17  1  0
 17 18  1  0
 18 19  2  0
 18 20  1  0
 20 21  2  0
 21 22  1  0
 22 23  2  0
 23 24  1  0
 24 25  1  0
 25 26  1  0
 25 27  1  0
 25 28  1  0
 24 29  2  0
 29 30  1  0
 17  2  1  0
 29 20  1  0
  8  4  1  0
 15  9  1  0
  1 31  1  0
  1 32  1  0
  1 33  1  0
  2 34  1  1
  3 35  1  0
  3 36  1  0
 11 37  1  0
 14 38  1  0
 16 39  1  0
 16 40  1  0
 21 41  1  0
 22 42  1  0
 23 43  1  0
M  END
$$$$
