@<TRIPOS>MOLECULE
*****
 43 46 0 0 0
SMALL
GASTEIGER

@<TRIPOS>ATOM
      1 C           0.9637    0.4780    2.0481 C.3     1  UNL1       -0.0460
      2 C           0.6280    1.4111    0.8913 C.3     1  UNL1        0.0293
      3 C           1.8207    1.3182   -0.0696 C.3     1  UNL1        0.0101
      4 C           1.7937   -0.0933   -0.5800 C.ar    1  UNL1        0.0745
      5 C           0.5884   -0.5894   -1.0591 C.ar    1  UNL1        0.1038
      6 N           0.8681   -1.8488   -1.4380 N.ar    1  UNL1       -0.1322
      7 N           2.1622   -2.0860   -1.1981 N.ar    1  UNL1       -0.0576
      8 N           2.7439   -1.0404   -0.6794 N.ar    1  UNL1       -0.1820
      9 C           4.0970   -0.8602   -0.2759 C.ar    1  UNL1        0.2530
     10 N           4.6675    0.3308   -0.1416 N.ar    1  UNL1       -0.2161
     11 C           5.9412    0.5022    0.2382 C.ar    1  UNL1        0.0681
     12 C           6.7312   -0.6148    0.5130 C.ar    1  UNL1        0.1595
     13 F           8.0202   -0.4484    0.8976 F       1  UNL1       -0.2023
     14 C           6.1426   -1.8522    0.3746 C.ar    1  UNL1        0.0681
     15 N           4.8597   -1.9474   -0.0104 N.ar    1  UNL1       -0.2161
     16 C          -0.5760    0.3004   -1.0341 C.3     1  UNL1        0.0610
     17 N          -0.5910    1.0023    0.2340 N.am    1  UNL1       -0.2884
     18 C          -1.8538    1.2770    0.8126 C.2     1  UNL1        0.2500
     19 O          -1.8870    1.8843    1.9110 O.2     1  UNL1       -0.2699
     20 C          -3.1078    0.8847    0.1867 C.ar    1  UNL1        0.0726
     21 C          -3.7960    1.7036   -0.7048 C.ar    1  UNL1       -0.0468
     22 C          -4.9841    1.3007   -1.2814 C.ar    1  UNL1       -0.0603
     23 C          -5.5069    0.0625   -0.9729 C.ar    1  UNL1       -0.0473
     24 C          -4.8514   -0.7540   -0.1044 C.ar    1  UNL1        0.0906
     25 C          -5.4243   -2.0925    0.2237 C.3     1  UNL1        0.4201
     26 F          -4.5564   -3.1138   -0.1227 F       1  UNL1       -0.1658
     27 F          -5.6069   -2.1486    1.6102 F       1  UNL1       -0.1658
     28 F          -6.6607   -2.2202   -0.3379 F       1  UNL1       -0.1658
     29 C          -3.6525   -0.3429    0.4749 C.ar    1  UNL1        0.1471
     30 F          -3.0052   -1.1587    1.3376 F       1  UNL1       -0.2041
     31 H           1.9285    0.7961    2.4780 H       1  UNL1        0.0248
     32 H           0.2147    0.5366    2.8481 H       1  UNL1        0.0248
     33 H           1.0879   -0.5551    1.6441 H       1  UNL1        0.0248
     34 H           0.5504    2.4301    1.3325 H       1  UNL1        0.0502
     35 H           2.7122    1.5105    0.5400 H       1  UNL1        0.0347
     36 H           1.6340    2.0483   -0.8639 H       1  UNL1        0.0347
     37 H           6.3868    1.4915    0.3413 H       1  UNL1        0.0860
     38 H           6.7656   -2.7165    0.5908 H       1  UNL1        0.0860
     39 H          -0.3973    1.0925   -1.8147 H       1  UNL1        0.0530
     40 H          -1.5345   -0.2243   -1.2120 H       1  UNL1        0.0530
     41 H          -3.3518    2.6697   -0.9213 H       1  UNL1        0.0626
     42 H          -5.5199    1.9260   -1.9689 H       1  UNL1        0.0618
     43 H          -6.4445   -0.2494   -1.4311 H       1  UNL1        0.0624
@<TRIPOS>BOND
     1     1     2    1
     2     2     3    1
     3     3     4    1
     4     4     5   ar
     5     5     6   ar
     6     6     7   ar
     7     7     8   ar
     8     8     9    1
     9     9    10   ar
    10    10    11   ar
    11    11    12   ar
    12    12    13    1
    13    12    14   ar
    14    14    15   ar
    15     5    16    1
    16    16    17    1
    17    17    18   am
    18    18    19    2
    19    18    20    1
    20    20    21   ar
    21    21    22   ar
    22    22    23   ar
    23    23    24   ar
    24    24    25    1
    25    25    26    1
    26    25    27    1
    27    25    28    1
    28    24    29   ar
    29    29    30    1
    30    17     2    1
    31    29    20   ar
    32     8     4   ar
    33    15     9   ar
    34     1    31    1
    35     1    32    1
    36     1    33    1
    37     2    34    1
    38     3    35    1
    39     3    36    1
    40    11    37    1
    41    14    38    1
    42    16    39    1
    43    16    40    1
    44    21    41    1
    45    22    42    1
    46    23    43    1
