@<TRIPOS>MOLECULE
*****
 52 55 0 0 0
SMALL
GASTEIGER

@<TRIPOS>ATOM
      1 C           8.8891   -1.9565    0.3521 C.1     1  UNL1       -0.1158
      2 C           8.4361   -3.0579    0.6415 C.1     1  UNL1       -0.0647
      3 C           7.9176   -4.3338    0.9776 C.3     1  UNL1        0.1513
      4 O           6.6693   -4.2355    1.7258 O.3     1  UNL1       -0.4624
      5 C           5.5973   -3.5087    1.3004 C.ar    1  UNL1        0.2344
      6 C           4.4326   -3.4072    2.0293 C.ar    1  UNL1        0.0899
      7 N           3.4213   -2.6660    1.6175 N.ar    1  UNL1       -0.2459
      8 C           3.4415   -1.9290    0.4265 C.ar    1  UNL1        0.1172
      9 C           2.3956   -0.9964    0.2778 C.2     1  UNL1        0.1507
     10 F           1.4101   -0.8580    1.2452 F       1  UNL1       -0.2032
     11 C           2.2185   -0.1594   -0.7794 C.2     1  UNL1       -0.0171
     12 C           1.0444    0.7081   -0.6489 C.ar    1  UNL1       -0.0217
     13 C           1.2708    2.0297   -0.4509 C.ar    1  UNL1       -0.0518
     14 C           0.3393    2.9903   -0.1903 C.ar    1  UNL1       -0.0255
     15 C          -1.0404    2.5530   -0.1237 C.ar    1  UNL1        0.1289
     16 F          -1.9316    3.5288    0.2016 F       1  UNL1       -0.2051
     17 C          -1.2696    1.2473   -0.3201 C.ar    1  UNL1        0.0158
     18 C          -2.7007    0.7826   -0.1036 C.3     1  UNL1        0.0935
     19 C          -2.6173   -0.7735   -0.1059 C.3     1  UNL1       -0.0351
     20 N          -2.9596    1.1438    1.2297 N.2     1  UNL1       -0.2521
     21 C          -4.0368    1.4999    1.8256 C.2     1  UNL1        0.1484
     22 N          -4.0357    1.8265    3.2261 N.pl3   1  UNL1       -0.3380
     23 S          -5.4769    1.5555    0.8128 S.3     1  UNL1       -0.0763
     24 C          -4.9699    1.4555   -0.8908 C.3     1  UNL1        0.0871
     25 C          -6.1019    1.1377   -1.8448 C.2     1  UNL1        0.1469
     26 C          -7.0524    2.2590   -2.2272 C.3     1  UNL1       -0.0046
     27 O          -6.2883    0.0746   -2.3158 O.2     1  UNL1       -0.2962
     28 C          -4.0834    2.5304   -1.4979 C.3     1  UNL1       -0.0237
     29 C          -3.5715    1.1524   -1.1922 C.3     1  UNL1        0.0118
     30 C          -0.2756    0.2952   -0.5867 C.ar    1  UNL1       -0.0463
     31 C           4.6186   -2.0988   -0.2424 C.ar    1  UNL1        0.0596
     32 N           5.6739   -2.8281    0.1149 N.ar    1  UNL1       -0.2178
     33 H           9.2968   -0.9126    0.0755 H       1  UNL1        0.1229
     34 H           7.7624   -4.9602    0.1198 H       1  UNL1        0.0837
     35 H           8.6431   -4.8133    1.7026 H       1  UNL1        0.0837
     36 H           4.3793   -3.9664    2.9633 H       1  UNL1        0.0884
     37 H           2.9126   -0.1968   -1.5762 H       1  UNL1        0.0653
     38 H           2.3436    2.3525   -0.4729 H       1  UNL1        0.0624
     39 H           0.4720    4.0257   -0.0087 H       1  UNL1        0.0646
     40 H          -2.4142   -1.1542   -1.1115 H       1  UNL1        0.0256
     41 H          -3.5695   -1.1954    0.2266 H       1  UNL1        0.0256
     42 H          -1.8269   -1.0330    0.6614 H       1  UNL1        0.0256
     43 H          -3.4984    2.6609    3.5449 H       1  UNL1        0.1442
     44 H          -4.5436    1.2313    3.8792 H       1  UNL1        0.1442
     45 H          -7.2963    2.1348   -3.3042 H       1  UNL1        0.0306
     46 H          -7.9129    2.1557   -1.5500 H       1  UNL1        0.0306
     47 H          -6.5270    3.2311   -2.1038 H       1  UNL1        0.0306
     48 H          -4.0743    3.4074   -0.8658 H       1  UNL1        0.0287
     49 H          -4.2551    2.8395   -2.5875 H       1  UNL1        0.0287
     50 H          -3.4511    0.5153   -2.1282 H       1  UNL1        0.0346
     51 H          -0.4750   -0.7350   -0.7384 H       1  UNL1        0.0628
     52 H           4.6702   -1.5492   -1.2097 H       1  UNL1        0.0853
@<TRIPOS>BOND
     1     1     2    3
     2     2     3    1
     3     3     4    1
     4     4     5    1
     5     5     6   ar
     6     6     7   ar
     7     7     8   ar
     8     8     9    1
     9     9    10    1
    10     9    11    2
    11    11    12    1
    12    12    13   ar
    13    13    14   ar
    14    14    15   ar
    15    15    16    1
    16    15    17   ar
    17    17    18    1
    18    18    19    1
    19    18    20    1
    20    20    21    2
    21    21    22    1
    22    21    23    1
    23    23    24    1
    24    24    25    1
    25    25    26    1
    26    25    27    2
    27    24    28    1
    28    28    29    1
    29    17    30   ar
    30     8    31   ar
    31    31    32   ar
    32    32     5   ar
    33    30    12   ar
    34    29    18    1
    35    29    24    1
    36     1    33    1
    37     3    34    1
    38     3    35    1
    39     6    36    1
    40    11    37    1
    41    13    38    1
    42    14    39    1
    43    19    40    1
    44    19    41    1
    45    19    42    1
    46    22    43    1
    47    22    44    1
    48    26    45    1
    49    26    46    1
    50    26    47    1
    51    28    48    1
    52    28    49    1
    53    29    50    1
    54    30    51    1
    55    31    52    1
