
     RDKit          3D

 51 55  0  0  0  0  0  0  0  0999 V2000
   -1.2803   -1.6065   -3.3260 F   0  0  0  0  0  0  0  0  0  0  0  0
   -2.5291   -1.3177   -2.8143 C   0  0  0  0  0  0  0  0  0  0  0  0
   -2.7146    0.0593   -2.7819 F   0  0  0  0  0  0  0  0  0  0  0  0
   -2.6857   -1.8269   -1.4303 C   0  0  0  0  0  0  0  0  0  0  0  0
   -3.6077   -2.7307   -1.0176 N   0  0  0  0  0  0  0  0  0  0  0  0
   -3.4655   -2.9671    0.3067 C   0  0  0  0  0  0  0  0  0  0  0  0
   -4.1187   -3.7731    1.2113 C   0  0  0  0  0  0  0  0  0  0  0  0
   -3.7593   -3.8191    2.5215 C   0  0  0  0  0  0  0  0  0  0  0  0
   -2.7136   -3.0444    2.9778 C   0  0  0  0  0  0  0  0  0  0  0  0
   -2.0524   -2.2332    2.0799 C   0  0  0  0  0  0  0  0  0  0  0  0
   -2.4159   -2.1829    0.7409 C   0  0  0  0  0  0  0  0  0  0  0  0
   -1.9779   -1.5155   -0.3347 N   0  0  0  0  0  0  0  0  0  0  0  0
   -0.8984   -0.5937   -0.3139 C   0  0  0  0  0  0  0  0  0  0  0  0
    0.3249   -1.1079   -0.3411 N   0  0  0  0  0  0  0  0  0  0  0  0
    1.3966   -0.3028   -0.3241 C   0  0  0  0  0  0  0  0  0  0  0  0
    2.7229   -0.8451   -0.3530 N   0  0  0  0  0  0  0  0  0  0  0  0
    2.9062   -2.2751   -0.4005 C   0  0  0  0  0  0  0  0  0  0  0  0
    4.3326   -2.5555    0.0334 C   0  0  0  0  0  0  0  0  0  0  0  0
    5.2028   -1.9825   -0.8532 O   0  0  0  0  0  0  0  0  0  0  0  0
    5.0679   -0.6382   -1.0399 C   0  0  0  0  0  0  0  0  0  0  0  0
    3.9003   -0.0143   -0.3366 C   0  0  0  0  0  0  0  0  0  0  0  0
    1.1844    1.0281   -0.2792 N   0  0  0  0  0  0  0  0  0  0  0  0
   -0.0259    1.5695   -0.2513 C   0  0  0  0  0  0  0  0  0  0  0  0
   -0.2887    2.9581   -0.2042 N   0  0  0  0  0  0  0  0  0  0  0  0
    0.7921    3.9403   -0.1823 C   0  0  0  0  0  0  0  0  0  0  0  0
    0.4123    4.8494    0.9949 C   0  0  0  0  0  0  0  0  0  0  0  0
   -0.6780    5.5644    0.6313 O   0  0  0  0  0  0  0  0  0  0  0  0
   -1.7644    4.8885    0.1847 C   0  0  0  0  0  0  0  0  0  0  0  0
   -1.6197    3.4763   -0.1754 C   0  0  0  0  0  0  0  0  0  0  0  0
   -1.0710    0.7248   -0.2698 N   0  0  0  0  0  0  0  0  0  0  0  0
   -3.2883   -1.7929   -3.4680 H   0  0  0  0  0  0  0  0  0  0  0  0
   -4.9449   -4.3700    0.7942 H   0  0  0  0  0  0  0  0  0  0  0  0
   -4.3070   -4.4762    3.2105 H   0  0  0  0  0  0  0  0  0  0  0  0
   -2.4547   -3.1049    4.0228 H   0  0  0  0  0  0  0  0  0  0  0  0
   -1.2306   -1.6167    2.4102 H   0  0  0  0  0  0  0  0  0  0  0  0
    2.1659   -2.8420    0.1611 H   0  0  0  0  0  0  0  0  0  0  0  0
    2.8496   -2.5739   -1.4782 H   0  0  0  0  0  0  0  0  0  0  0  0
    4.5333   -3.6464    0.0560 H   0  0  0  0  0  0  0  0  0  0  0  0
    4.4590   -2.0716    1.0267 H   0  0  0  0  0  0  0  0  0  0  0  0
    5.9903   -0.1326   -0.6439 H   0  0  0  0  0  0  0  0  0  0  0  0
    4.9416   -0.4523   -2.1336 H   0  0  0  0  0  0  0  0  0  0  0  0
    4.1849    0.2007    0.7118 H   0  0  0  0  0  0  0  0  0  0  0  0
    3.6867    0.9637   -0.8596 H   0  0  0  0  0  0  0  0  0  0  0  0
    0.7239    4.5201   -1.1258 H   0  0  0  0  0  0  0  0  0  0  0  0
    1.7723    3.4716   -0.0221 H   0  0  0  0  0  0  0  0  0  0  0  0
    0.1488    4.1581    1.8368 H   0  0  0  0  0  0  0  0  0  0  0  0
    1.2319    5.5196    1.2602 H   0  0  0  0  0  0  0  0  0  0  0  0
   -2.1795    5.4614   -0.6983 H   0  0  0  0  0  0  0  0  0  0  0  0
   -2.5765    4.9865    0.9611 H   0  0  0  0  0  0  0  0  0  0  0  0
   -2.0701    3.2642   -1.1903 H   0  0  0  0  0  0  0  0  0  0  0  0
   -2.2127    2.8069    0.5153 H   0  0  0  0  0  0  0  0  0  0  0  0
  1  2  1  0
  2  3  1  0
  2  4  1  0
  4  5  2  0
  5  6  1  0
  6  7  2  0
  7  8  1  0
  8  9  2  0
  9 10  1  0
 10 11  2  0
 11 12  1  0
 12 13  1  0
 13 14  2  0
 14 15  1  0
 15 16  1  0
 16 17  1  0
 17 18  1  0
 18 19  1  0
 19 20  1  0
 20 21  1  0
 15 22  2  0
 22 23  1  0
 23 24  1  0
 24 25  1  0
 25 26  1  0
 26 27  1  0
 27 28  1  0
 28 29  1  0
 23 30  2  0
 12  4  1  0
 30 13  1  0
 11  6  1  0
 21 16  1  0
 29 24  1  0
  2 31  1  0
  7 32  1  0
  8 33  1  0
  9 34  1  0
 10 35  1  0
 17 36  1  0
 17 37  1  0
 18 38  1  0
 18 39  1  0
 20 40  1  0
 20 41  1  0
 21 42  1  0
 21 43  1  0
 25 44  1  0
 25 45  1  0
 26 46  1  0
 26 47  1  0
 28 48  1  0
 28 49  1  0
 29 50  1  0
 29 51  1  0
M  END
$$$$
