@<TRIPOS>MOLECULE
*****
 51 55 0 0 0
SMALL
GASTEIGER

@<TRIPOS>ATOM
      1 F          -1.2803   -1.6065   -3.3260 F       1  UNL1       -0.2006
      2 C          -2.5291   -1.3177   -2.8143 C.3     1  UNL1        0.2963
      3 F          -2.7146    0.0593   -2.7819 F       1  UNL1       -0.2006
      4 C          -2.6857   -1.8269   -1.4303 C.ar    1  UNL1        0.1841
      5 N          -3.6077   -2.7307   -1.0176 N.ar    1  UNL1       -0.2263
      6 C          -3.4655   -2.9671    0.3067 C.ar    1  UNL1        0.0900
      7 C          -4.1187   -3.7731    1.2113 C.ar    1  UNL1       -0.0342
      8 C          -3.7593   -3.8191    2.5215 C.ar    1  UNL1       -0.0596
      9 C          -2.7136   -3.0444    2.9778 C.ar    1  UNL1       -0.0597
     10 C          -2.0524   -2.2332    2.0799 C.ar    1  UNL1       -0.0356
     11 C          -2.4159   -2.1829    0.7409 C.ar    1  UNL1        0.0766
     12 N          -1.9779   -1.5155   -0.3347 N.ar    1  UNL1       -0.2597
     13 C          -0.8984   -0.5937   -0.3139 C.ar    1  UNL1        0.2426
     14 N           0.3249   -1.1079   -0.3411 N.ar    1  UNL1       -0.1781
     15 C           1.3966   -0.3028   -0.3241 C.ar    1  UNL1        0.2240
     16 N           2.7229   -0.8451   -0.3530 N.pl3   1  UNL1       -0.2951
     17 C           2.9062   -2.2751   -0.4005 C.3     1  UNL1        0.0384
     18 C           4.3326   -2.5555    0.0334 C.3     1  UNL1        0.0635
     19 O           5.2028   -1.9825   -0.8532 O.3     1  UNL1       -0.3767
     20 C           5.0679   -0.6382   -1.0399 C.3     1  UNL1        0.0635
     21 C           3.9003   -0.0143   -0.3366 C.3     1  UNL1        0.0384
     22 N           1.1844    1.0281   -0.2792 N.ar    1  UNL1       -0.1807
     23 C          -0.0259    1.5695   -0.2513 C.ar    1  UNL1        0.2240
     24 N          -0.2887    2.9581   -0.2042 N.pl3   1  UNL1       -0.2951
     25 C           0.7921    3.9403   -0.1823 C.3     1  UNL1        0.0384
     26 C           0.4123    4.8494    0.9949 C.3     1  UNL1        0.0635
     27 O          -0.6780    5.5644    0.6313 O.3     1  UNL1       -0.3767
     28 C          -1.7644    4.8885    0.1847 C.3     1  UNL1        0.0635
     29 C          -1.6197    3.4763   -0.1754 C.3     1  UNL1        0.0384
     30 N          -1.0710    0.7248   -0.2698 N.ar    1  UNL1       -0.1781
     31 H          -3.2883   -1.7929   -3.4680 H       1  UNL1        0.1104
     32 H          -4.9449   -4.3700    0.7942 H       1  UNL1        0.0639
     33 H          -4.3070   -4.4762    3.2105 H       1  UNL1        0.0618
     34 H          -2.4547   -3.1049    4.0228 H       1  UNL1        0.0618
     35 H          -1.2306   -1.6167    2.4102 H       1  UNL1        0.0639
     36 H           2.1659   -2.8420    0.1611 H       1  UNL1        0.0487
     37 H           2.8496   -2.5739   -1.4782 H       1  UNL1        0.0487
     38 H           4.5333   -3.6464    0.0560 H       1  UNL1        0.0575
     39 H           4.4590   -2.0716    1.0267 H       1  UNL1        0.0575
     40 H           5.9903   -0.1326   -0.6439 H       1  UNL1        0.0575
     41 H           4.9416   -0.4523   -2.1336 H       1  UNL1        0.0575
     42 H           4.1849    0.2007    0.7118 H       1  UNL1        0.0487
     43 H           3.6867    0.9637   -0.8596 H       1  UNL1        0.0487
     44 H           0.7239    4.5201   -1.1258 H       1  UNL1        0.0487
     45 H           1.7723    3.4716   -0.0221 H       1  UNL1        0.0487
     46 H           0.1488    4.1581    1.8368 H       1  UNL1        0.0575
     47 H           1.2319    5.5196    1.2602 H       1  UNL1        0.0575
     48 H          -2.1795    5.4614   -0.6983 H       1  UNL1        0.0575
     49 H          -2.5765    4.9865    0.9611 H       1  UNL1        0.0575
     50 H          -2.0701    3.2642   -1.1903 H       1  UNL1        0.0487
     51 H          -2.2127    2.8069    0.5153 H       1  UNL1        0.0487
@<TRIPOS>BOND
     1     1     2    1
     2     2     3    1
     3     2     4    1
     4     4     5   ar
     5     5     6   ar
     6     6     7   ar
     7     7     8   ar
     8     8     9   ar
     9     9    10   ar
    10    10    11   ar
    11    11    12   ar
    12    12    13    1
    13    13    14   ar
    14    14    15   ar
    15    15    16    1
    16    16    17    1
    17    17    18    1
    18    18    19    1
    19    19    20    1
    20    20    21    1
    21    15    22   ar
    22    22    23   ar
    23    23    24    1
    24    24    25    1
    25    25    26    1
    26    26    27    1
    27    27    28    1
    28    28    29    1
    29    23    30   ar
    30    12     4   ar
    31    30    13   ar
    32    11     6   ar
    33    21    16    1
    34    29    24    1
    35     2    31    1
    36     7    32    1
    37     8    33    1
    38     9    34    1
    39    10    35    1
    40    17    36    1
    41    17    37    1
    42    18    38    1
    43    18    39    1
    44    20    40    1
    45    20    41    1
    46    21    42    1
    47    21    43    1
    48    25    44    1
    49    25    45    1
    50    26    46    1
    51    26    47    1
    52    28    48    1
    53    28    49    1
    54    29    50    1
    55    29    51    1
