@<TRIPOS>MOLECULE
*****
 58 61 0 0 0
SMALL
GASTEIGER

@<TRIPOS>ATOM
      1 C          -7.0392    1.7917   -0.5858 C.3     1  UNL1       -0.0359
      2 C          -5.8734    0.9869   -0.1581 C.ar    1  UNL1       -0.0024
      3 C          -4.6480    1.1539   -0.7966 C.ar    1  UNL1       -0.0021
      4 C          -4.5606    2.1560   -1.9059 C.3     1  UNL1       -0.0359
      5 C          -3.5490    0.3941   -0.3923 C.ar    1  UNL1        0.1282
      6 C          -3.6070   -0.5255    0.6173 C.ar    1  UNL1        0.0011
      7 C          -2.3958   -1.2784    0.9723 C.3     1  UNL1       -0.0201
      8 C          -1.4337   -1.4040   -0.1887 C.3     1  UNL1       -0.0058
      9 C          -1.1472   -0.0490   -0.8125 C.3     1  UNL1        0.1418
     10 C          -0.5028   -0.2667   -2.1311 C.3     1  UNL1       -0.0217
     11 C          -0.3931    0.7987    0.1662 C.3     1  UNL1        0.1288
     12 O           0.8008    0.3434    0.5903 O.3     1  UNL1       -0.4880
     13 C           2.0162    0.0188    0.1916 C.ar    1  UNL1        0.1207
     14 C           2.7339   -0.0069   -0.9564 C.ar    1  UNL1       -0.0197
     15 C           4.0414   -0.4091   -1.1112 C.ar    1  UNL1       -0.0551
     16 C           4.6751   -0.8281    0.0386 C.ar    1  UNL1       -0.0456
     17 C           6.0915   -1.2646   -0.1253 C.3     1  UNL1       -0.0069
     18 C           6.9570   -0.0572    0.0697 C.3     1  UNL1        0.0945
     19 S           6.7322    0.6670    1.7222 S.3     1  UNL1       -0.0542
     20 C           8.4395    1.2375    1.9296 C.2     1  UNL1        0.2789
     21 O           9.0586    1.9819    2.7333 O.2     1  UNL1       -0.2625
     22 N           9.1277    0.6013    0.8397 N.am    1  UNL1       -0.2463
     23 C           8.4064   -0.4214    0.1646 C.2     1  UNL1        0.2336
     24 O           8.8441   -1.5147   -0.3196 O.2     1  UNL1       -0.2741
     25 C           4.0473   -0.8486    1.2807 C.ar    1  UNL1       -0.0551
     26 C           2.7128   -0.4178    1.3264 C.ar    1  UNL1       -0.0197
     27 O          -2.3866    0.6350   -1.0866 O.3     1  UNL1       -0.4820
     28 C          -4.8116   -0.6816    1.2364 C.ar    1  UNL1       -0.0021
     29 C          -4.9269   -1.6687    2.3399 C.3     1  UNL1       -0.0359
     30 C          -5.9157    0.0506    0.8635 C.ar    1  UNL1        0.1234
     31 O          -7.1505   -0.0959    1.4836 O.3     1  UNL1       -0.5062
     32 H          -7.5237    1.3774   -1.5061 H       1  UNL1        0.0279
     33 H          -6.7622    2.8381   -0.8051 H       1  UNL1        0.0279
     34 H          -7.8130    1.7767    0.2244 H       1  UNL1        0.0279
     35 H          -4.3364    3.1794   -1.4965 H       1  UNL1        0.0279
     36 H          -3.7335    1.8315   -2.5758 H       1  UNL1        0.0279
     37 H          -5.4973    2.1621   -2.4872 H       1  UNL1        0.0279
     38 H          -2.6763   -2.3120    1.2707 H       1  UNL1        0.0316
     39 H          -1.8611   -0.8521    1.8463 H       1  UNL1        0.0316
     40 H          -1.8753   -2.0286   -0.9843 H       1  UNL1        0.0308
     41 H          -0.4983   -1.8090    0.2199 H       1  UNL1        0.0308
     42 H          -1.2855   -0.5333   -2.9004 H       1  UNL1        0.0269
     43 H           0.2703   -1.0337   -2.1669 H       1  UNL1        0.0269
     44 H          -0.0469    0.6789   -2.5442 H       1  UNL1        0.0269
     45 H          -0.3989    1.8648   -0.1985 H       1  UNL1        0.0737
     46 H          -1.0792    0.8685    1.0785 H       1  UNL1        0.0737
     47 H           2.2064    0.3361   -1.8075 H       1  UNL1        0.0654
     48 H           4.4840   -0.3755   -2.0920 H       1  UNL1        0.0621
     49 H           6.3645   -2.0327    0.6337 H       1  UNL1        0.0329
     50 H           6.2646   -1.6556   -1.1362 H       1  UNL1        0.0329
     51 H           6.7586    0.7002   -0.7073 H       1  UNL1        0.0515
     52 H          10.1114    0.8289    0.5049 H       1  UNL1        0.1583
     53 H           4.6698   -1.1987    2.0758 H       1  UNL1        0.0621
     54 H           2.3954   -0.5058    2.3791 H       1  UNL1        0.0654
     55 H          -5.9858   -1.7860    2.6393 H       1  UNL1        0.0279
     56 H          -4.6146   -2.6959    1.9999 H       1  UNL1        0.0279
     57 H          -4.3482   -1.4056    3.2258 H       1  UNL1        0.0279
     58 H          -7.5324    0.7035    1.9501 H       1  UNL1        0.2922
@<TRIPOS>BOND
     1     1     2    1
     2     2     3   ar
     3     3     4    1
     4     3     5   ar
     5     5     6   ar
     6     6     7    1
     7     7     8    1
     8     8     9    1
     9     9    10    1
    10     9    11    1
    11    11    12    1
    12    12    13    1
    13    13    14   ar
    14    14    15   ar
    15    15    16   ar
    16    16    17    1
    17    17    18    1
    18    18    19    1
    19    19    20    1
    20    20    21    2
    21    20    22   am
    22    22    23   am
    23    23    24    2
    24    16    25   ar
    25    25    26   ar
    26     9    27    1
    27     6    28   ar
    28    28    29    1
    29    28    30   ar
    30    30    31    1
    31    30     2   ar
    32    27     5    1
    33    26    13   ar
    34    23    18    1
    35     1    32    1
    36     1    33    1
    37     1    34    1
    38     4    35    1
    39     4    36    1
    40     4    37    1
    41     7    38    1
    42     7    39    1
    43     8    40    1
    44     8    41    1
    45    10    42    1
    46    10    43    1
    47    10    44    1
    48    11    45    1
    49    11    46    1
    50    14    47    1
    51    15    48    1
    52    17    49    1
    53    17    50    1
    54    18    51    1
    55    22    52    1
    56    25    53    1
    57    26    54    1
    58    29    55    1
    59    29    56    1
    60    29    57    1
    61    31    58    1
