@<TRIPOS>MOLECULE
*****
 58 63 0 0 0
SMALL
GASTEIGER

@<TRIPOS>ATOM
      1 N          -0.9014   -2.2728    2.8764 N.pl3   1  UNL1       -0.3380
      2 C          -0.7971   -1.7339    1.5654 C.2     1  UNL1        0.1478
      3 N          -0.6218   -0.5185    1.3198 N.2     1  UNL1       -0.2472
      4 C          -0.4916    0.2264    0.1277 C.3     1  UNL1        0.1217
      5 C          -0.3663   -0.5137   -1.1592 C.3     1  UNL1       -0.0096
      6 C           0.0447   -1.9295   -1.1464 C.3     1  UNL1        0.0037
      7 S          -0.9124   -2.8105    0.1164 S.3     1  UNL1       -0.0910
      8 C           0.7217    1.0804    0.2774 C.ar    1  UNL1        0.0285
      9 C           1.9628    0.4331    0.4447 C.ar    1  UNL1       -0.0312
     10 C           3.1325    1.1496    0.5668 C.ar    1  UNL1        0.0343
     11 N           4.3710    0.4660    0.7342 N.am    1  UNL1       -0.2802
     12 C           5.1881    0.0620   -0.3467 C.2     1  UNL1        0.2666
     13 O           4.8023    0.3189   -1.5125 O.2     1  UNL1       -0.2682
     14 C           6.4541   -0.6371   -0.1663 C.ar    1  UNL1        0.1257
     15 C           7.2101   -1.0074   -1.2562 C.ar    1  UNL1       -0.0298
     16 C           8.4188   -1.6730   -1.1341 C.ar    1  UNL1       -0.0397
     17 C           8.8945   -1.9822    0.1128 C.ar    1  UNL1        0.0591
     18 CL         10.4052   -2.8152    0.2949 Cl      1  UNL1       -0.0820
     19 C           8.1138   -1.5985    1.2071 C.ar    1  UNL1        0.0467
     20 N           6.9405   -0.9509    1.0481 N.ar    1  UNL1       -0.2489
     21 C           3.0390    2.5231    0.5192 C.ar    1  UNL1       -0.0370
     22 C           1.8385    3.1754    0.3578 C.ar    1  UNL1       -0.0172
     23 C           0.6434    2.4377    0.2338 C.ar    1  UNL1        0.1346
     24 O          -0.5396    3.1291    0.0798 O.3     1  UNL1       -0.4508
     25 C          -1.7154    2.4166   -0.0359 C.ar    1  UNL1        0.1883
     26 C          -1.7276    1.0565   -0.0028 C.ar    1  UNL1        0.0332
     27 C          -2.9437    0.3706   -0.1194 C.ar    1  UNL1       -0.0265
     28 C          -4.1398    1.0320   -0.2688 C.ar    1  UNL1        0.0705
     29 C          -5.4276    0.3923   -0.3945 C.2     1  UNL1       -0.0215
     30 C          -5.5988   -0.9218   -0.3793 C.2     1  UNL1       -0.0534
     31 C          -6.9952   -1.4114   -0.5209 C.3     1  UNL1        0.0665
     32 O          -7.8958   -0.7450    0.2669 O.3     1  UNL1       -0.3754
     33 C          -7.6984    0.6040    0.3828 C.3     1  UNL1        0.0521
     34 C          -6.6958    1.1850   -0.5551 C.3     1  UNL1       -0.0024
     35 N          -4.0939    2.3758   -0.2986 N.ar    1  UNL1       -0.2164
     36 C          -2.9464    3.0656   -0.1893 C.ar    1  UNL1        0.2566
     37 F          -2.9076    4.4171   -0.2201 F       1  UNL1       -0.1799
     38 H          -1.7977   -2.7101    3.1587 H       1  UNL1        0.1442
     39 H          -0.1093   -2.2373    3.5460 H       1  UNL1        0.1442
     40 H           0.3831    0.0433   -1.8095 H       1  UNL1        0.0303
     41 H          -1.3026   -0.4442   -1.7791 H       1  UNL1        0.0303
     42 H          -0.2807   -2.3784   -2.1250 H       1  UNL1        0.0381
     43 H           1.1347   -2.1244   -1.0450 H       1  UNL1        0.0381
     44 H           2.0145   -0.6397    0.4910 H       1  UNL1        0.0641
     45 H           4.7400    0.2261    1.7021 H       1  UNL1        0.1552
     46 H           6.8182   -0.7540   -2.2494 H       1  UNL1        0.0641
     47 H           9.0122   -1.9628   -2.0096 H       1  UNL1        0.0633
     48 H           8.5184   -1.8580    2.1787 H       1  UNL1        0.0844
     49 H           3.9544    3.0820    0.6142 H       1  UNL1        0.0637
     50 H           1.7593    4.2599    0.3198 H       1  UNL1        0.0655
     51 H          -2.9694   -0.6889   -0.0945 H       1  UNL1        0.0644
     52 H          -4.7778   -1.5831   -0.2714 H       1  UNL1        0.0598
     53 H          -7.0001   -2.4889   -0.2089 H       1  UNL1        0.0604
     54 H          -7.3022   -1.4379   -1.6039 H       1  UNL1        0.0604
     55 H          -8.6676    1.1521    0.2647 H       1  UNL1        0.0563
     56 H          -7.3167    0.7912    1.4280 H       1  UNL1        0.0563
     57 H          -6.5339    2.2474   -0.2625 H       1  UNL1        0.0336
     58 H          -7.0416    1.1100   -1.6134 H       1  UNL1        0.0336
@<TRIPOS>BOND
     1     1     2    1
     2     2     3    2
     3     3     4    1
     4     4     5    1
     5     5     6    1
     6     6     7    1
     7     4     8    1
     8     8     9   ar
     9     9    10   ar
    10    10    11    1
    11    11    12   am
    12    12    13    2
    13    12    14    1
    14    14    15   ar
    15    15    16   ar
    16    16    17   ar
    17    17    18    1
    18    17    19   ar
    19    19    20   ar
    20    10    21   ar
    21    21    22   ar
    22    22    23   ar
    23    23    24    1
    24    24    25    1
    25    25    26   ar
    26    26    27   ar
    27    27    28   ar
    28    28    29    1
    29    29    30    2
    30    30    31    1
    31    31    32    1
    32    32    33    1
    33    33    34    1
    34    28    35   ar
    35    35    36   ar
    36    36    37    1
    37     7     2    1
    38    23     8   ar
    39    36    25   ar
    40    26     4    1
    41    34    29    1
    42    20    14   ar
    43     1    38    1
    44     1    39    1
    45     5    40    1
    46     5    41    1
    47     6    42    1
    48     6    43    1
    49     9    44    1
    50    11    45    1
    51    15    46    1
    52    16    47    1
    53    19    48    1
    54    21    49    1
    55    22    50    1
    56    27    51    1
    57    30    52    1
    58    31    53    1
    59    31    54    1
    60    33    55    1
    61    33    56    1
    62    34    57    1
    63    34    58    1
