@<TRIPOS>MOLECULE
*****
 50 53 0 0 0
SMALL
GASTEIGER

@<TRIPOS>ATOM
      1 O           2.0039   -1.2132    1.3549 O.2     1  UNL1       -0.2755
      2 C           1.8187   -0.5976    0.3311 C.2     1  UNL1        0.2173
      3 C           0.4323   -0.6959   -0.3438 C.3     1  UNL1        0.0298
      4 C          -0.4152   -1.5944    0.4657 C.3     1  UNL1        0.0014
      5 C          -1.7535   -1.8143   -0.0042 C.ar    1  UNL1        0.0878
      6 N          -2.2325   -2.8845   -0.6373 N.ar    1  UNL1       -0.0824
      7 O          -3.4921   -2.7240   -0.9124 O.2     1  UNL1       -0.3541
      8 C          -3.9044   -1.5451   -0.4769 C.ar    1  UNL1        0.1709
      9 C          -2.8363   -0.9322    0.1080 C.ar    1  UNL1        0.0228
     10 C          -2.9145    0.3556    0.7369 C.3     1  UNL1       -0.0183
     11 C          -4.1424    1.1344    0.5765 C.3     1  UNL1       -0.0227
     12 C          -5.2744    0.3802    0.0201 C.ar    1  UNL1       -0.0329
     13 C          -6.5480    0.9873   -0.0015 C.ar    1  UNL1       -0.0163
     14 C          -7.6447    0.3691   -0.5394 C.ar    1  UNL1        0.1172
     15 O          -8.9058    0.9874   -0.5531 O.3     1  UNL1       -0.5068
     16 C          -7.5126   -0.9054   -1.0882 C.ar    1  UNL1       -0.0195
     17 C          -6.2718   -1.5126   -1.0733 C.ar    1  UNL1       -0.0473
     18 C          -5.2043   -0.8762   -0.5332 C.ar    1  UNL1        0.0236
     19 N           2.8124    0.1781   -0.2330 N.am    1  UNL1       -0.2886
     20 C           4.0953    0.5969   -0.0941 C.2     1  UNL1        0.0204
     21 C           5.0888    0.4502    0.7147 C.2     1  UNL1        0.0534
     22 C           5.0006   -0.3526    1.8568 C.2     1  UNL1        0.3342
     23 O           4.0952   -0.9985    2.3180 O.2     1  UNL1       -0.2454
     24 O           6.1931   -0.4482    2.6446 O.3     1  UNL1       -0.4773
     25 C           6.4002    1.1820    0.4452 C.3     1  UNL1       -0.0194
     26 C           6.8898    0.8882   -0.9290 C.3     1  UNL1       -0.0485
     27 C           5.7190    0.8083   -1.8757 C.3     1  UNL1       -0.0476
     28 C           4.5592    1.5489   -1.2744 C.3     1  UNL1       -0.0140
     29 H           0.0986    0.3391   -0.3753 H       1  UNL1        0.0362
     30 H           0.6377   -1.1587   -1.3089 H       1  UNL1        0.0362
     31 H           0.1716   -2.5348    0.6619 H       1  UNL1        0.0334
     32 H          -0.4882   -1.1285    1.4956 H       1  UNL1        0.0334
     33 H          -2.8438    0.1328    1.8706 H       1  UNL1        0.0318
     34 H          -1.9792    0.9814    0.6145 H       1  UNL1        0.0318
     35 H          -4.4488    1.6016    1.5721 H       1  UNL1        0.0317
     36 H          -3.9275    2.0140   -0.1265 H       1  UNL1        0.0317
     37 H          -6.6495    1.9688    0.4215 H       1  UNL1        0.0657
     38 H          -9.1622    1.7099    0.0779 H       1  UNL1        0.2921
     39 H          -8.3805   -1.3914   -1.5130 H       1  UNL1        0.0654
     40 H          -6.1493   -2.5076   -1.4971 H       1  UNL1        0.0626
     41 H           2.3538    0.6269   -1.1843 H       1  UNL1        0.1545
     42 H           6.3058   -1.3218    3.1758 H       1  UNL1        0.2954
     43 H           7.1262    0.8935    1.2400 H       1  UNL1        0.0316
     44 H           6.2201    2.2584    0.5915 H       1  UNL1        0.0316
     45 H           7.4269   -0.0930   -0.8782 H       1  UNL1        0.0269
     46 H           7.5778    1.6879   -1.2949 H       1  UNL1        0.0269
     47 H           5.4714   -0.2736   -2.0345 H       1  UNL1        0.0269
     48 H           6.0088    1.2879   -2.8273 H       1  UNL1        0.0269
     49 H           4.8423    2.4633   -0.7985 H       1  UNL1        0.0326
     50 H           3.7320    1.6721   -1.9692 H       1  UNL1        0.0326
@<TRIPOS>BOND
     1     1     2    2
     2     2     3    1
     3     3     4    1
     4     4     5    1
     5     5     6   ar
     6     6     7   ar
     7     7     8   ar
     8     8     9   ar
     9     9    10    1
    10    10    11    1
    11    11    12    1
    12    12    13   ar
    13    13    14   ar
    14    14    15    1
    15    14    16   ar
    16    16    17   ar
    17    17    18   ar
    18     2    19   am
    19    19    20    1
    20    20    21    2
    21    21    22    1
    22    22    23    2
    23    22    24    1
    24    21    25    1
    25    25    26    1
    26    26    27    1
    27    27    28    1
    28     9     5   ar
    29    18    12   ar
    30    28    20    1
    31    18     8    1
    32     3    29    1
    33     3    30    1
    34     4    31    1
    35     4    32    1
    36    10    33    1
    37    10    34    1
    38    11    35    1
    39    11    36    1
    40    13    37    1
    41    15    38    1
    42    16    39    1
    43    17    40    1
    44    19    41    1
    45    24    42    1
    46    25    43    1
    47    25    44    1
    48    26    45    1
    49    26    46    1
    50    27    47    1
    51    27    48    1
    52    28    49    1
    53    28    50    1
