@<TRIPOS>MOLECULE
*****
 50 52 0 0 0
SMALL
GASTEIGER

@<TRIPOS>ATOM
      1 C          -3.6721   -0.3928   -3.9324 C.3     1  UNL1       -0.0453
      2 C          -2.3403   -1.0312   -3.6863 C.3     1  UNL1        0.0681
      3 S          -1.2945    0.0909   -2.7617 S.O2    1  UNL1       -0.0016
      4 O          -1.0960    1.3382   -3.5504 O.2     1  UNL1       -0.1693
      5 O           0.0499   -0.5408   -2.5275 O.2     1  UNL1       -0.1693
      6 C          -2.0500    0.4541   -1.2176 C.ar    1  UNL1        0.1093
      7 C          -3.1848   -0.2742   -0.8337 C.ar    1  UNL1       -0.0332
      8 C          -3.8038   -0.0488    0.3764 C.ar    1  UNL1       -0.0334
      9 C          -3.3496    0.8937    1.2716 C.ar    1  UNL1        0.1071
     10 S          -4.1563    1.1564    2.8033 S.O2    1  UNL1        0.0582
     11 O          -3.9769    2.5686    3.2198 O.2     1  UNL1       -0.1531
     12 O          -5.6517    0.9004    2.6783 O.2     1  UNL1       -0.1531
     13 N          -3.5642    0.0334    3.9896 N.3     1  UNL1       -0.1930
     14 C          -3.8833   -1.3239    3.5110 C.3     1  UNL1        0.0059
     15 C          -2.2408    1.6113    0.9044 C.ar    1  UNL1       -0.0123
     16 C          -1.5940    1.3936   -0.3330 C.ar    1  UNL1        0.0594
     17 N          -0.5047    2.2192   -0.6759 N.pl3   1  UNL1       -0.2978
     18 C           0.8164    1.7422   -0.8251 C.ar    1  UNL1        0.1279
     19 C           1.4348    1.0103    0.1575 C.ar    1  UNL1        0.0186
     20 C           2.7561    0.5588    0.0482 C.ar    1  UNL1        0.1289
     21 N           3.3620   -0.1656    1.0749 N.pl3   1  UNL1       -0.2843
     22 C           4.6829   -0.6165    1.1084 C.ar    1  UNL1        0.1240
     23 C           5.6109   -0.4819    0.1167 C.ar    1  UNL1       -0.0202
     24 C           6.9148   -0.9450    0.2482 C.ar    1  UNL1       -0.0387
     25 C           7.3077   -1.5666    1.4156 C.ar    1  UNL1        0.0592
     26 CL          8.9295   -2.1730    1.6525 Cl      1  UNL1       -0.0820
     27 C           6.3592   -1.6892    2.3911 C.ar    1  UNL1        0.0480
     28 N           5.1166   -1.2410    2.2483 N.ar    1  UNL1       -0.2387
     29 N           3.3933    0.8809   -1.0795 N.ar    1  UNL1       -0.2205
     30 C           2.8251    1.5905   -2.0579 C.ar    1  UNL1        0.1201
     31 N           1.5544    2.0199   -1.9417 N.ar    1  UNL1       -0.2205
     32 H          -4.5463   -1.0015   -3.6935 H       1  UNL1        0.0245
     33 H          -3.7746    0.5730   -3.3541 H       1  UNL1        0.0245
     34 H          -3.7137   -0.0581   -5.0141 H       1  UNL1        0.0245
     35 H          -1.8489   -1.2323   -4.6673 H       1  UNL1        0.0501
     36 H          -2.4525   -1.9537   -3.0859 H       1  UNL1        0.0501
     37 H          -3.5508   -1.0238   -1.5358 H       1  UNL1        0.0638
     38 H          -4.6821   -0.6303    0.6407 H       1  UNL1        0.0638
     39 H          -2.5005    0.1211    3.9550 H       1  UNL1        0.1477
     40 H          -3.7685   -2.0124    4.3802 H       1  UNL1        0.0405
     41 H          -4.9361   -1.3988    3.1723 H       1  UNL1        0.0405
     42 H          -3.1787   -1.6166    2.7172 H       1  UNL1        0.0405
     43 H          -1.8520    2.3649    1.5853 H       1  UNL1        0.0656
     44 H          -0.6186    3.2656   -0.8447 H       1  UNL1        0.1536
     45 H           0.9052    0.7600    1.0596 H       1  UNL1        0.0686
     46 H           2.7430   -0.3908    1.9143 H       1  UNL1        0.1550
     47 H           5.3765   -0.0111   -0.8175 H       1  UNL1        0.0652
     48 H           7.6385   -0.8302   -0.5468 H       1  UNL1        0.0634
     49 H           6.6659   -2.1798    3.3160 H       1  UNL1        0.0845
     50 H           3.3434    1.8517   -2.9741 H       1  UNL1        0.1048
@<TRIPOS>BOND
     1     1     2    1
     2     2     3    1
     3     3     4    2
     4     3     5    2
     5     3     6    1
     6     6     7   ar
     7     7     8   ar
     8     8     9   ar
     9     9    10    1
    10    10    11    2
    11    10    12    2
    12    10    13    1
    13    13    14    1
    14     9    15   ar
    15    15    16   ar
    16    16    17    1
    17    17    18    1
    18    18    19   ar
    19    19    20   ar
    20    20    21    1
    21    21    22    1
    22    22    23   ar
    23    23    24   ar
    24    24    25   ar
    25    25    26    1
    26    25    27   ar
    27    27    28   ar
    28    20    29   ar
    29    29    30   ar
    30    30    31   ar
    31    16     6   ar
    32    31    18   ar
    33    28    22   ar
    34     1    32    1
    35     1    33    1
    36     1    34    1
    37     2    35    1
    38     2    36    1
    39     7    37    1
    40     8    38    1
    41    13    39    1
    42    14    40    1
    43    14    41    1
    44    14    42    1
    45    15    43    1
    46    17    44    1
    47    19    45    1
    48    21    46    1
    49    23    47    1
    50    24    48    1
    51    27    49    1
    52    30    50    1
