@<TRIPOS>MOLECULE
*****
 41 43 0 0 0
SMALL
GASTEIGER

@<TRIPOS>ATOM
      1 C          -5.3676    1.5700    1.6712 C.3     1  UNL1        0.0196
      2 N          -4.4446    0.8639    0.8151 N.ar    1  UNL1       -0.2622
      3 C          -3.1267    1.1790    0.9229 C.ar    1  UNL1        0.2822
      4 O          -2.7897    2.0621    1.7537 O.2     1  UNL1       -0.2652
      5 C          -2.1707    0.5752    0.1669 C.ar    1  UNL1        0.1520
      6 C          -2.5722   -0.3796   -0.7262 C.ar    1  UNL1        0.1690
      7 N          -1.5141   -0.8579   -1.3722 N.ar    1  UNL1       -0.2036
      8 C          -0.4110   -0.2057   -0.8934 C.ar    1  UNL1        0.1714
      9 S           1.1982   -0.5910   -1.5582 S.3     1  UNL1       -0.0873
     10 C           2.0217   -1.9433   -0.7350 C.3     1  UNL1        0.0051
     11 C           2.6474   -1.5425    0.5693 C.3     1  UNL1       -0.0182
     12 C           3.7941   -0.6011    0.3680 C.ar    1  UNL1       -0.0464
     13 C           3.7163    0.7574    0.3388 C.ar    1  UNL1       -0.0558
     14 C           4.8506    1.5617    0.1405 C.ar    1  UNL1       -0.0262
     15 C           6.0964    1.0095   -0.0334 C.ar    1  UNL1        0.1234
     16 F           7.1898    1.7965   -0.2243 F       1  UNL1       -0.2055
     17 C           6.1913   -0.3637   -0.0063 C.ar    1  UNL1       -0.0262
     18 C           5.0806   -1.1492    0.1876 C.ar    1  UNL1       -0.0558
     19 N          -0.8145    0.6389    0.0152 N.ar    1  UNL1       -0.3163
     20 C           0.0019    1.5461    0.7697 C.3     1  UNL1        0.0145
     21 N          -3.8980   -0.6634   -0.8016 N.ar    1  UNL1       -0.2795
     22 C          -4.2913   -1.6781   -1.7601 C.3     1  UNL1        0.0181
     23 C          -4.8378   -0.0714   -0.0602 C.ar    1  UNL1        0.3331
     24 O          -6.0642   -0.3453   -0.1413 O.2     1  UNL1       -0.2462
     25 H          -5.0727    2.6499    1.7623 H       1  UNL1        0.0458
     26 H          -6.4140    1.4529    1.3832 H       1  UNL1        0.0458
     27 H          -5.2583    1.1607    2.7061 H       1  UNL1        0.0458
     28 H           2.7420   -2.4783   -1.4006 H       1  UNL1        0.0384
     29 H           1.2861   -2.7676   -0.4556 H       1  UNL1        0.0384
     30 H           3.0050   -2.4263    1.1451 H       1  UNL1        0.0321
     31 H           1.8530   -1.0938    1.2010 H       1  UNL1        0.0321
     32 H           2.7784    1.2279    0.4715 H       1  UNL1        0.0621
     33 H           4.7036    2.6454    0.1295 H       1  UNL1        0.0646
     34 H           7.1843   -0.7840   -0.1455 H       1  UNL1        0.0646
     35 H           5.1675   -2.2308    0.2078 H       1  UNL1        0.0621
     36 H          -0.5491    2.2384    1.4053 H       1  UNL1        0.0456
     37 H           0.6600    2.1226    0.0629 H       1  UNL1        0.0456
     38 H           0.6439    0.9444    1.4290 H       1  UNL1        0.0456
     39 H          -4.5315   -1.1986   -2.7339 H       1  UNL1        0.0458
     40 H          -5.1826   -2.2173   -1.3900 H       1  UNL1        0.0458
     41 H          -3.5016   -2.4133   -1.9362 H       1  UNL1        0.0458
@<TRIPOS>BOND
     1     1     2    1
     2     2     3   ar
     3     3     4    2
     4     3     5   ar
     5     5     6   ar
     6     6     7   ar
     7     7     8   ar
     8     8     9    1
     9     9    10    1
    10    10    11    1
    11    11    12    1
    12    12    13   ar
    13    13    14   ar
    14    14    15   ar
    15    15    16    1
    16    15    17   ar
    17    17    18   ar
    18     8    19   ar
    19    19    20    1
    20     6    21   ar
    21    21    22    1
    22    21    23   ar
    23    23    24    2
    24    23     2   ar
    25    19     5   ar
    26    18    12   ar
    27     1    25    1
    28     1    26    1
    29     1    27    1
    30    10    28    1
    31    10    29    1
    32    11    30    1
    33    11    31    1
    34    13    32    1
    35    14    33    1
    36    17    34    1
    37    18    35    1
    38    20    36    1
    39    20    37    1
    40    20    38    1
    41    22    39    1
    42    22    40    1
    43    22    41    1
