@<TRIPOS>MOLECULE
*****
 44 44 0 0 0
SMALL
GASTEIGER

@<TRIPOS>ATOM
      1 C           0.2353    1.9448   -1.6144 C.3     1  UNL1       -0.0363
      2 C           0.8010    0.8520   -0.6990 C.2     1  UNL1       -0.0066
      3 C           2.0895    0.7292   -0.7280 C.2     1  UNL1       -0.0709
      4 C           2.9770   -0.1987   -0.0005 C.3     1  UNL1       -0.0066
      5 C           3.7174    0.6203    1.0149 C.3     1  UNL1       -0.0554
      6 C           3.7738   -1.0024   -0.9420 C.2     1  UNL1       -0.0725
      7 C           4.9522   -1.3011   -1.2547 C.2     1  UNL1       -0.0012
      8 C           6.3056   -1.0684   -0.9154 C.2     1  UNL1        0.2591
      9 O           7.2179   -1.6956   -1.6393 O.2     1  UNL1       -0.2688
     10 N           6.9064   -0.2754    0.0732 N.am    1  UNL1       -0.1940
     11 O           8.2930   -0.2262    0.1907 O.3     1  UNL1       -0.2949
     12 C          -0.0744    0.1297    0.1838 C.2     1  UNL1        0.1887
     13 O           0.4832   -0.6545    1.0704 O.2     1  UNL1       -0.2870
     14 C          -1.5099    0.1126    0.2754 C.ar    1  UNL1        0.0220
     15 C          -2.1419   -0.5028    1.3692 C.ar    1  UNL1       -0.0492
     16 C          -3.5008   -0.5912    1.4739 C.ar    1  UNL1       -0.0400
     17 C          -4.3270   -0.0759    0.5025 C.ar    1  UNL1        0.0292
     18 N          -5.7356   -0.1562    0.5923 N.pl3   1  UNL1       -0.3360
     19 C          -6.5490    0.4040   -0.4605 C.3     1  UNL1        0.0004
     20 C          -6.3586   -0.7896    1.7206 C.3     1  UNL1        0.0004
     21 C          -3.7278    0.5282   -0.5734 C.ar    1  UNL1       -0.0400
     22 C          -2.3298    0.6210   -0.6863 C.ar    1  UNL1       -0.0492
     23 H          -0.0585    1.5466   -2.5785 H       1  UNL1        0.0279
     24 H          -0.4419    2.5579   -1.0377 H       1  UNL1        0.0279
     25 H           1.1489    2.5984   -1.8603 H       1  UNL1        0.0279
     26 H           2.6555    1.4247   -1.4050 H       1  UNL1        0.0582
     27 H           2.4031   -0.9983    0.5738 H       1  UNL1        0.0383
     28 H           4.2634   -0.0603    1.6911 H       1  UNL1        0.0238
     29 H           4.3239    1.3957    0.5202 H       1  UNL1        0.0238
     30 H           2.9651    1.2081    1.6448 H       1  UNL1        0.0238
     31 H           2.9996   -1.5539   -1.6511 H       1  UNL1        0.0579
     32 H           4.9216   -2.0596   -2.1757 H       1  UNL1        0.0667
     33 H           6.3306    0.2701    0.7128 H       1  UNL1        0.1825
     34 H           8.5520   -0.2109    1.1336 H       1  UNL1        0.2414
     35 H          -1.5017   -0.9059    2.1362 H       1  UNL1        0.0625
     36 H          -3.9479   -1.0800    2.3448 H       1  UNL1        0.0636
     37 H          -6.3543   -0.2138   -1.3750 H       1  UNL1        0.0428
     38 H          -6.2329    1.4616   -0.6233 H       1  UNL1        0.0428
     39 H          -7.6238    0.3535   -0.1854 H       1  UNL1        0.0428
     40 H          -5.8384   -1.7403    1.9534 H       1  UNL1        0.0428
     41 H          -6.3173   -0.0906    2.5980 H       1  UNL1        0.0428
     42 H          -7.4193   -1.0494    1.5446 H       1  UNL1        0.0428
     43 H          -4.3545    0.9383   -1.3452 H       1  UNL1        0.0636
     44 H          -1.9710    1.0763   -1.5694 H       1  UNL1        0.0625
@<TRIPOS>BOND
     1     1     2    1
     2     2     3    2
     3     3     4    1
     4     4     5    1
     5     4     6    1
     6     6     7    2
     7     7     8    1
     8     8     9    2
     9     8    10   am
    10    10    11    1
    11     2    12    1
    12    12    13    2
    13    12    14    1
    14    14    15   ar
    15    15    16   ar
    16    16    17   ar
    17    17    18    1
    18    18    19    1
    19    18    20    1
    20    17    21   ar
    21    21    22   ar
    22    22    14   ar
    23     1    23    1
    24     1    24    1
    25     1    25    1
    26     3    26    1
    27     4    27    1
    28     5    28    1
    29     5    29    1
    30     5    30    1
    31     6    31    1
    32     7    32    1
    33    10    33    1
    34    11    34    1
    35    15    35    1
    36    16    36    1
    37    19    37    1
    38    19    38    1
    39    19    39    1
    40    20    40    1
    41    20    41    1
    42    20    42    1
    43    21    43    1
    44    22    44    1
