
     RDKit          3D

 44 44  0  0  0  0  0  0  0  0999 V2000
    0.2353    1.9448   -1.6144 C   0  0  0  0  0  0  0  0  0  0  0  0
    0.8010    0.8520   -0.6990 C   0  0  0  0  0  0  0  0  0  0  0  0
    2.0895    0.7292   -0.7280 C   0  0  0  0  0  0  0  0  0  0  0  0
    2.9770   -0.1987   -0.0005 C   0  0  0  0  0  0  0  0  0  0  0  0
    3.7174    0.6203    1.0149 C   0  0  0  0  0  0  0  0  0  0  0  0
    3.7738   -1.0024   -0.9420 C   0  0  0  0  0  0  0  0  0  0  0  0
    4.9522   -1.3011   -1.2547 C   0  0  0  0  0  0  0  0  0  0  0  0
    6.3056   -1.0684   -0.9154 C   0  0  0  0  0  0  0  0  0  0  0  0
    7.2179   -1.6956   -1.6393 O   0  0  0  0  0  0  0  0  0  0  0  0
    6.9064   -0.2754    0.0732 N   0  0  0  0  0  0  0  0  0  0  0  0
    8.2930   -0.2262    0.1907 O   0  0  0  0  0  0  0  0  0  0  0  0
   -0.0744    0.1297    0.1838 C   0  0  0  0  0  0  0  0  0  0  0  0
    0.4832   -0.6545    1.0704 O   0  0  0  0  0  0  0  0  0  0  0  0
   -1.5099    0.1126    0.2754 C   0  0  0  0  0  0  0  0  0  0  0  0
   -2.1419   -0.5028    1.3692 C   0  0  0  0  0  0  0  0  0  0  0  0
   -3.5008   -0.5912    1.4739 C   0  0  0  0  0  0  0  0  0  0  0  0
   -4.3270   -0.0759    0.5025 C   0  0  0  0  0  0  0  0  0  0  0  0
   -5.7356   -0.1562    0.5923 N   0  0  0  0  0  0  0  0  0  0  0  0
   -6.5490    0.4040   -0.4605 C   0  0  0  0  0  0  0  0  0  0  0  0
   -6.3586   -0.7896    1.7206 C   0  0  0  0  0  0  0  0  0  0  0  0
   -3.7278    0.5282   -0.5734 C   0  0  0  0  0  0  0  0  0  0  0  0
   -2.3298    0.6210   -0.6863 C   0  0  0  0  0  0  0  0  0  0  0  0
   -0.0585    1.5466   -2.5785 H   0  0  0  0  0  0  0  0  0  0  0  0
   -0.4419    2.5579   -1.0377 H   0  0  0  0  0  0  0  0  0  0  0  0
    1.1489    2.5984   -1.8603 H   0  0  0  0  0  0  0  0  0  0  0  0
    2.6555    1.4247   -1.4050 H   0  0  0  0  0  0  0  0  0  0  0  0
    2.4031   -0.9983    0.5738 H   0  0  0  0  0  0  0  0  0  0  0  0
    4.2634   -0.0603    1.6911 H   0  0  0  0  0  0  0  0  0  0  0  0
    4.3239    1.3957    0.5202 H   0  0  0  0  0  0  0  0  0  0  0  0
    2.9651    1.2081    1.6448 H   0  0  0  0  0  0  0  0  0  0  0  0
    2.9996   -1.5539   -1.6511 H   0  0  0  0  0  0  0  0  0  0  0  0
    4.9216   -2.0596   -2.1757 H   0  0  0  0  0  0  0  0  0  0  0  0
    6.3306    0.2701    0.7128 H   0  0  0  0  0  0  0  0  0  0  0  0
    8.5520   -0.2109    1.1336 H   0  0  0  0  0  0  0  0  0  0  0  0
   -1.5017   -0.9059    2.1362 H   0  0  0  0  0  0  0  0  0  0  0  0
   -3.9479   -1.0800    2.3448 H   0  0  0  0  0  0  0  0  0  0  0  0
   -6.3543   -0.2138   -1.3750 H   0  0  0  0  0  0  0  0  0  0  0  0
   -6.2329    1.4616   -0.6233 H   0  0  0  0  0  0  0  0  0  0  0  0
   -7.6238    0.3535   -0.1854 H   0  0  0  0  0  0  0  0  0  0  0  0
   -5.8384   -1.7403    1.9534 H   0  0  0  0  0  0  0  0  0  0  0  0
   -6.3173   -0.0906    2.5980 H   0  0  0  0  0  0  0  0  0  0  0  0
   -7.4193   -1.0494    1.5446 H   0  0  0  0  0  0  0  0  0  0  0  0
   -4.3545    0.9383   -1.3452 H   0  0  0  0  0  0  0  0  0  0  0  0
   -1.9710    1.0763   -1.5694 H   0  0  0  0  0  0  0  0  0  0  0  0
  1  2  1  0
  2  3  2  3
  3  4  1  0
  4  5  1  0
  4  6  1  0
  6  7  2  3
  7  8  1  0
  8  9  2  0
  8 10  1  0
 10 11  1  0
  2 12  1  0
 12 13  2  0
 12 14  1  0
 14 15  2  0
 15 16  1  0
 16 17  2  0
 17 18  1  0
 18 19  1  0
 18 20  1  0
 17 21  1  0
 21 22  2  0
 22 14  1  0
  1 23  1  0
  1 24  1  0
  1 25  1  0
  3 26  1  0
  4 27  1  0
  5 28  1  0
  5 29  1  0
  5 30  1  0
  6 31  1  0
  7 32  1  0
 10 33  1  0
 11 34  1  0
 15 35  1  0
 16 36  1  0
 19 37  1  0
 19 38  1  0
 19 39  1  0
 20 40  1  0
 20 41  1  0
 20 42  1  0
 21 43  1  0
 22 44  1  0
M  END
$$$$
