@<TRIPOS>MOLECULE
*****
 45 48 0 0 0
SMALL
GASTEIGER

@<TRIPOS>ATOM
      1 C           0.0850    3.2545    2.6791 C.3     1  UNL1       -0.0369
      2 C           0.0481    1.8803    2.0731 C.ar    1  UNL1       -0.0132
      3 C           1.0878    1.0908    1.8889 C.ar    1  UNL1       -0.0348
      4 C           1.0830   -0.1085    1.2645 C.ar    1  UNL1        0.0345
      5 N           2.1593   -0.7618    0.6449 N.am    1  UNL1       -0.2789
      6 C           3.2520   -1.5180    1.0174 C.2     1  UNL1        0.2855
      7 O           3.4744   -1.8579    2.1152 O.2     1  UNL1       -0.2664
      8 C           4.1845   -1.8861   -0.1854 C.ar    1  UNL1        0.2161
      9 N           4.2782   -0.8819   -1.0146 N.ar    1  UNL1       -0.2305
     10 C           4.9075   -1.1598   -2.4619 C.ar    1  UNL1        0.0489
     11 C           5.1114   -2.3362   -2.2758 C.ar    1  UNL1        0.0879
     12 C           6.0851   -2.6178   -3.6969 C.1     1  UNL1        0.1022
     13 N           6.7848   -2.8283   -4.6864 N.1     1  UNL1       -0.1908
     14 C           5.1549   -3.4824   -1.6594 C.ar    1  UNL1        0.0489
     15 N           4.5431   -3.1467   -0.3237 N.ar    1  UNL1       -0.2305
     16 C          -0.2094   -0.6085    0.7566 C.ar    1  UNL1       -0.0320
     17 C          -1.3022    0.2825    0.9724 C.ar    1  UNL1        0.0230
     18 C          -2.4767   -0.0188    0.1210 C.3     1  UNL1        0.1603
     19 C          -2.7834   -1.5781    0.3093 C.3     1  UNL1        0.2686
     20 F          -3.9551   -1.7731   -0.5057 F       1  UNL1       -0.2062
     21 F          -3.2818   -1.6446    1.5770 F       1  UNL1       -0.2062
     22 N          -3.6686    0.5032    0.7146 N.2     1  UNL1       -0.2194
     23 C          -4.2008    1.5854    0.1428 C.2     1  UNL1        0.2764
     24 N          -5.4023    2.1501    0.7236 N.pl3   1  UNL1       -0.3134
     25 O          -3.5918    2.1238   -0.9547 O.2     1  UNL1       -0.4622
     26 C          -2.7839    1.4561   -1.8694 C.3     1  UNL1        0.1091
     27 C          -3.2339    0.0782   -2.3391 C.3     1  UNL1       -0.0064
     28 C          -2.1914    0.2366   -1.3058 C.3     1  UNL1        0.0344
     29 C          -1.1946    1.4543    1.5867 C.ar    1  UNL1        0.1320
     30 F          -2.2948    2.3113    1.7605 F       1  UNL1       -0.2048
     31 H           0.3495    3.9711    1.8436 H       1  UNL1        0.0278
     32 H          -0.8307    3.5151    3.2256 H       1  UNL1        0.0278
     33 H           0.8842    3.3206    3.4268 H       1  UNL1        0.0278
     34 H           2.0406    1.3873    2.3008 H       1  UNL1        0.0640
     35 H           2.0278   -0.6829   -0.4949 H       1  UNL1        0.1552
     36 H           4.8278   -0.2058   -2.7906 H       1  UNL1        0.0844
     37 H           5.6159   -4.4371   -1.6544 H       1  UNL1        0.0844
     38 H          -0.2328   -1.5175    0.2891 H       1  UNL1        0.0640
     39 H          -1.9729   -2.1873    0.0018 H       1  UNL1        0.1047
     40 H          -6.2864    1.6517    0.8748 H       1  UNL1        0.1466
     41 H          -5.4003    3.2096    1.0229 H       1  UNL1        0.1466
     42 H          -2.2078    2.0678   -2.5905 H       1  UNL1        0.0737
     43 H          -3.0518   -0.2356   -3.3505 H       1  UNL1        0.0306
     44 H          -4.3149   -0.1355   -2.0441 H       1  UNL1        0.0306
     45 H          -1.1166    0.0801   -1.5768 H       1  UNL1        0.0366
@<TRIPOS>BOND
     1     1     2    1
     2     2     3   ar
     3     3     4   ar
     4     4     5    1
     5     5     6   am
     6     6     7    2
     7     6     8    1
     8     8     9   ar
     9     9    10   ar
    10    10    11   ar
    11    11    12    1
    12    12    13    3
    13    11    14   ar
    14    14    15   ar
    15     4    16   ar
    16    16    17   ar
    17    17    18    1
    18    18    19    1
    19    19    20    1
    20    19    21    1
    21    18    22    1
    22    22    23    2
    23    23    24    1
    24    23    25    1
    25    25    26    1
    26    26    27    1
    27    27    28    1
    28    17    29   ar
    29    29    30    1
    30    29     2   ar
    31    15     8   ar
    32    28    18    1
    33    28    26    1
    34     1    31    1
    35     1    32    1
    36     1    33    1
    37     3    34    1
    38     5    35    1
    39    10    36    1
    40    14    37    1
    41    16    38    1
    42    19    39    1
    43    24    40    1
    44    24    41    1
    45    26    42    1
    46    27    43    1
    47    27    44    1
    48    28    45    1
