
     RDKit          3D

 35 35  0  0  0  0  0  0  0  0999 V2000
    4.9742   -1.2456    0.4554 C   0  0  0  0  0  0  0  0  0  0  0  0
    4.1108   -0.2156   -0.0823 N   0  0  0  0  0  0  0  0  0  0  0  0
    4.6316    0.6757   -1.0934 C   0  0  0  0  0  0  0  0  0  0  0  0
    2.7881   -0.1377    0.4181 C   0  0  0  0  0  0  0  0  0  0  0  0
    2.3542   -0.9233    1.2984 O   0  0  0  0  0  0  0  0  0  0  0  0
    1.8693    0.8204   -0.0324 O   0  0  0  0  0  0  0  0  0  0  0  0
    0.5742    0.8938    0.4602 C   0  0  0  0  0  0  0  0  0  0  0  0
    0.3496    1.6963    1.5584 C   0  0  0  0  0  0  0  0  0  0  0  0
   -0.9265    1.8250    2.1160 C   0  0  0  0  0  0  0  0  0  0  0  0
   -1.9659    1.1086    1.5171 C   0  0  0  0  0  0  0  0  0  0  0  0
   -1.7700    0.2992    0.4189 C   0  0  0  0  0  0  0  0  0  0  0  0
   -2.8678   -0.4017   -0.1420 N   0  0  0  0  0  4  0  0  0  0  0  0
   -3.2963    0.2608   -1.3633 C   0  0  0  0  0  0  0  0  0  0  0  0
   -2.5241   -1.7645   -0.4951 C   0  0  0  0  0  0  0  0  0  0  0  0
   -3.9800   -0.4419    0.7575 C   0  0  0  0  0  0  0  0  0  0  0  0
   -0.4915    0.2121   -0.0861 C   0  0  0  0  0  0  0  0  0  0  0  0
    5.6086   -1.6186   -0.3906 H   0  0  0  0  0  0  0  0  0  0  0  0
    4.3728   -2.0645    0.9098 H   0  0  0  0  0  0  0  0  0  0  0  0
    5.6783   -0.8571    1.2169 H   0  0  0  0  0  0  0  0  0  0  0  0
    4.8010    1.6895   -0.6255 H   0  0  0  0  0  0  0  0  0  0  0  0
    3.8159    0.8208   -1.8595 H   0  0  0  0  0  0  0  0  0  0  0  0
    5.5361    0.2619   -1.5443 H   0  0  0  0  0  0  0  0  0  0  0  0
    1.1582    2.2511    2.0209 H   0  0  0  0  0  0  0  0  0  0  0  0
   -1.1347    2.4381    2.9662 H   0  0  0  0  0  0  0  0  0  0  0  0
   -2.9619    1.2070    1.9497 H   0  0  0  0  0  0  0  0  0  0  0  0
   -2.4492    0.1771   -2.0939 H   0  0  0  0  0  0  0  0  0  0  0  0
   -3.4059    1.3416   -1.1481 H   0  0  0  0  0  0  0  0  0  0  0  0
   -4.1975   -0.1920   -1.7743 H   0  0  0  0  0  0  0  0  0  0  0  0
   -3.4990   -2.3343   -0.5153 H   0  0  0  0  0  0  0  0  0  0  0  0
   -1.8429   -2.2036    0.2648 H   0  0  0  0  0  0  0  0  0  0  0  0
   -2.0904   -1.8362   -1.5127 H   0  0  0  0  0  0  0  0  0  0  0  0
   -3.6993   -0.6955    1.8065 H   0  0  0  0  0  0  0  0  0  0  0  0
   -4.7071   -1.1902    0.3648 H   0  0  0  0  0  0  0  0  0  0  0  0
   -4.5180    0.5507    0.7924 H   0  0  0  0  0  0  0  0  0  0  0  0
   -0.2947   -0.4073   -0.9410 H   0  0  0  0  0  0  0  0  0  0  0  0
  1  2  1  0
  2  3  1  0
  2  4  1  0
  4  5  2  0
  4  6  1  0
  6  7  1  0
  7  8  2  0
  8  9  1  0
  9 10  2  0
 10 11  1  0
 11 12  1  0
 12 13  1  0
 12 14  1  0
 12 15  1  0
 11 16  2  0
 16  7  1  0
  1 17  1  0
  1 18  1  0
  1 19  1  0
  3 20  1  0
  3 21  1  0
  3 22  1  0
  8 23  1  0
  9 24  1  0
 10 25  1  0
 13 26  1  0
 13 27  1  0
 13 28  1  0
 14 29  1  0
 14 30  1  0
 14 31  1  0
 15 32  1  0
 15 33  1  0
 15 34  1  0
 16 35  1  0
M  CHG  1  12   1
M  END
$$$$
