@<TRIPOS>MOLECULE
*****
 35 35 0 0 0
SMALL
GASTEIGER

@<TRIPOS>ATOM
      1 C           4.9742   -1.2456    0.4554 C.3     1  UNL1        0.0060
      2 N           4.1108   -0.2156   -0.0823 N.am    1  UNL1       -0.2732
      3 C           4.6316    0.6757   -1.0934 C.3     1  UNL1        0.0060
      4 C           2.7881   -0.1377    0.4181 C.2     1  UNL1        0.4077
      5 O           2.3542   -0.9233    1.2984 O.2     1  UNL1       -0.2258
      6 O           1.8693    0.8204   -0.0324 O.3     1  UNL1       -0.4112
      7 C           0.5742    0.8938    0.4602 C.ar    1  UNL1        0.1393
      8 C           0.3496    1.6963    1.5584 C.ar    1  UNL1       -0.0188
      9 C          -0.9265    1.8250    2.1160 C.ar    1  UNL1       -0.0523
     10 C          -1.9659    1.1086    1.5171 C.ar    1  UNL1        0.0039
     11 C          -1.7700    0.2992    0.4189 C.ar    1  UNL1        0.1489
     12 N          -2.8678   -0.4017   -0.1420 N.pl3   1  UNL1       -0.3830
     13 C          -3.2963    0.2608   -1.3633 C.3     1  UNL1        0.0812
     14 C          -2.5241   -1.7645   -0.4951 C.3     1  UNL1        0.0812
     15 C          -3.9800   -0.4419    0.7575 C.3     1  UNL1        0.0812
     16 C          -0.4915    0.2121   -0.0861 C.ar    1  UNL1        0.0460
     17 H           5.6086   -1.6186   -0.3906 H       1  UNL1        0.0429
     18 H           4.3728   -2.0645    0.9098 H       1  UNL1        0.0429
     19 H           5.6783   -0.8571    1.2169 H       1  UNL1        0.0429
     20 H           4.8010    1.6895   -0.6255 H       1  UNL1        0.0429
     21 H           3.8159    0.8208   -1.8595 H       1  UNL1        0.0429
     22 H           5.5361    0.2619   -1.5443 H       1  UNL1        0.0429
     23 H           1.1582    2.2511    2.0209 H       1  UNL1        0.0654
     24 H          -1.1347    2.4381    2.9662 H       1  UNL1        0.0621
     25 H          -2.9619    1.2070    1.9497 H       1  UNL1        0.0681
     26 H          -2.4492    0.1771   -2.0939 H       1  UNL1        0.0931
     27 H          -3.4059    1.3416   -1.1481 H       1  UNL1        0.0931
     28 H          -4.1975   -0.1920   -1.7743 H       1  UNL1        0.0931
     29 H          -3.4990   -2.3343   -0.5153 H       1  UNL1        0.0931
     30 H          -1.8429   -2.2036    0.2648 H       1  UNL1        0.0931
     31 H          -2.0904   -1.8362   -1.5127 H       1  UNL1        0.0931
     32 H          -3.6993   -0.6955    1.8065 H       1  UNL1        0.0931
     33 H          -4.7071   -1.1902    0.3648 H       1  UNL1        0.0931
     34 H          -4.5180    0.5507    0.7924 H       1  UNL1        0.0931
     35 H          -0.2947   -0.4073   -0.9410 H       1  UNL1        0.0718
@<TRIPOS>UNITY_ATOM_ATTR
12 1
charge 1
@<TRIPOS>BOND
     1     1     2    1
     2     2     3    1
     3     2     4   am
     4     4     5    2
     5     4     6    1
     6     6     7    1
     7     7     8   ar
     8     8     9   ar
     9     9    10   ar
    10    10    11   ar
    11    11    12    1
    12    12    13    1
    13    12    14    1
    14    12    15    1
    15    11    16   ar
    16    16     7   ar
    17     1    17    1
    18     1    18    1
    19     1    19    1
    20     3    20    1
    21     3    21    1
    22     3    22    1
    23     8    23    1
    24     9    24    1
    25    10    25    1
    26    13    26    1
    27    13    27    1
    28    13    28    1
    29    14    29    1
    30    14    30    1
    31    14    31    1
    32    15    32    1
    33    15    33    1
    34    15    34    1
    35    16    35    1
