@<TRIPOS>MOLECULE
*****
 34 36 0 0 0
SMALL
GASTEIGER

@<TRIPOS>ATOM
      1 C          -2.1146    3.5910    0.0833 C.3     1  UNL1        0.0820
      2 O          -1.9397    2.2362   -0.2631 O.3     1  UNL1       -0.4646
      3 C          -0.8253    1.5153    0.1376 C.2     1  UNL1        0.3377
      4 O           0.0565    2.0489    0.8106 O.2     1  UNL1       -0.2452
      5 C          -0.7673    0.1300   -0.2761 C.2     1  UNL1        0.0688
      6 C           0.2741   -0.6198    0.0827 C.2     1  UNL1       -0.0253
      7 C           1.5965   -0.0493    0.2871 C.ar    1  UNL1       -0.0197
      8 C           2.3426   -0.4323    1.3802 C.ar    1  UNL1       -0.0529
      9 C           3.6051    0.0738    1.6078 C.ar    1  UNL1       -0.0414
     10 C           4.1644    0.9956    0.7279 C.ar    1  UNL1        0.0593
     11 CL          5.7622    1.6572    0.9903 Cl      1  UNL1       -0.0820
     12 C           3.4468    1.4018   -0.3783 C.ar    1  UNL1        0.0598
     13 CL          4.1565    2.5555   -1.4873 Cl      1  UNL1       -0.0820
     14 C           2.1946    0.8661   -0.5552 C.ar    1  UNL1       -0.0345
     15 C          -0.0425   -2.0728    0.2306 C.3     1  UNL1       -0.0001
     16 C          -0.9043   -2.5322   -0.9467 C.3     1  UNL1        0.0636
     17 C          -2.3306   -2.7716   -0.4918 C.3     1  UNL1       -0.0236
     18 C          -2.7645   -1.3269   -0.2116 C.3     1  UNL1       -0.0198
     19 C          -1.8192   -0.5354   -1.0890 C.3     1  UNL1        0.0910
     20 O          -1.1137   -1.4822   -1.8669 O.3     1  UNL1       -0.3682
     21 H          -3.1784    3.7502    0.4227 H       1  UNL1        0.0661
     22 H          -1.9220    4.2478   -0.7779 H       1  UNL1        0.0661
     23 H          -1.4600    3.9117    0.9058 H       1  UNL1        0.0661
     24 H           1.9457   -1.1492    2.0890 H       1  UNL1        0.0624
     25 H           4.2163   -0.2121    2.4613 H       1  UNL1        0.0633
     26 H           1.6391    1.1948   -1.4288 H       1  UNL1        0.0638
     27 H           0.8614   -2.6783    0.3262 H       1  UNL1        0.0339
     28 H          -0.6118   -2.1790    1.1808 H       1  UNL1        0.0339
     29 H          -0.4703   -3.4027   -1.4642 H       1  UNL1        0.0599
     30 H          -2.8791   -3.1634   -1.3891 H       1  UNL1        0.0291
     31 H          -2.4197   -3.4190    0.3939 H       1  UNL1        0.0291
     32 H          -3.7893   -1.2208   -0.5585 H       1  UNL1        0.0294
     33 H          -2.5806   -1.0816    0.8523 H       1  UNL1        0.0294
     34 H          -2.3288    0.1531   -1.7854 H       1  UNL1        0.0649
@<TRIPOS>BOND
     1     1     2    1
     2     2     3    1
     3     3     4    2
     4     3     5    1
     5     5     6    2
     6     6     7    1
     7     7     8   ar
     8     8     9   ar
     9     9    10   ar
    10    10    11    1
    11    10    12   ar
    12    12    13    1
    13    12    14   ar
    14     6    15    1
    15    15    16    1
    16    16    17    1
    17    17    18    1
    18    18    19    1
    19    19    20    1
    20    19     5    1
    21    14     7   ar
    22    20    16    1
    23     1    21    1
    24     1    22    1
    25     1    23    1
    26     8    24    1
    27     9    25    1
    28    14    26    1
    29    15    27    1
    30    15    28    1
    31    16    29    1
    32    17    30    1
    33    17    31    1
    34    18    32    1
    35    18    33    1
    36    19    34    1
