@<TRIPOS>MOLECULE
*****
 44 46 0 0 0
SMALL
GASTEIGER

@<TRIPOS>ATOM
      1 C          -2.4440   -2.5869    1.5000 C.3     1  UNL1       -0.0471
      2 C          -2.6356   -2.1788    0.0611 C.3     1  UNL1        0.0206
      3 N          -2.7436   -0.7567   -0.1421 N.ar    1  UNL1       -0.3436
      4 C          -3.9378   -0.0925   -0.1639 C.ar    1  UNL1        0.0229
      5 C          -4.1437    1.2533   -0.3648 C.ar    1  UNL1        0.1220
      6 C          -5.5016    1.7845   -0.3539 C.2     1  UNL1        0.3420
      7 O          -5.6284    3.1550   -0.5643 O.3     1  UNL1       -0.4770
      8 O          -6.5774    1.1344   -0.1738 O.2     1  UNL1       -0.2449
      9 C          -3.0207    2.0256   -0.5678 C.ar    1  UNL1        0.2035
     10 O          -3.1816    3.2484   -0.7525 O.2     1  UNL1       -0.2863
     11 C          -1.7874    1.4269   -0.5587 C.ar    1  UNL1        0.0516
     12 C          -0.6897    2.2312   -0.7597 C.ar    1  UNL1       -0.0116
     13 C           0.5805    1.6922   -0.7566 C.ar    1  UNL1        0.1479
     14 F           1.6295    2.5109   -0.9569 F       1  UNL1       -0.2034
     15 C           0.6991    0.3190   -0.5441 C.ar    1  UNL1        0.1032
     16 N           2.0163   -0.2076   -0.5458 N.pl3   1  UNL1       -0.3227
     17 C           2.6268   -0.6779   -1.7591 C.3     1  UNL1        0.0249
     18 C           3.6746   -1.7089   -1.3363 C.3     1  UNL1        0.0119
     19 N           4.7010   -1.1463   -0.5139 N.3     1  UNL1       -0.3105
     20 C           4.2629   -0.1976    0.4599 C.3     1  UNL1        0.0205
     21 C           4.6685    1.2311    0.1457 C.3     1  UNL1       -0.0482
     22 C           2.7816   -0.2839    0.6842 C.3     1  UNL1        0.0275
     23 C          -0.4330   -0.4417   -0.3480 C.ar    1  UNL1        0.1711
     24 F          -0.1971   -1.7333   -0.1464 F       1  UNL1       -0.2013
     25 C          -1.6995    0.0720   -0.3479 C.ar    1  UNL1        0.0904
     26 H          -1.8827   -3.5236    1.6114 H       1  UNL1        0.0247
     27 H          -3.3914   -2.7064    2.0663 H       1  UNL1        0.0247
     28 H          -1.9458   -1.7183    2.0243 H       1  UNL1        0.0247
     29 H          -3.7015   -2.5400   -0.1550 H       1  UNL1        0.0489
     30 H          -2.0813   -2.7411   -0.6844 H       1  UNL1        0.0489
     31 H          -4.8294   -0.7093   -0.0021 H       1  UNL1        0.0818
     32 H          -6.3740    3.7129   -0.1798 H       1  UNL1        0.2954
     33 H          -0.7983    3.2895   -0.9222 H       1  UNL1        0.0654
     34 H           3.1540    0.0813   -2.3463 H       1  UNL1        0.0476
     35 H           1.8879   -1.2381   -2.3707 H       1  UNL1        0.0476
     36 H           4.1295   -2.1896   -2.2099 H       1  UNL1        0.0439
     37 H           3.1054   -2.4869   -0.7678 H       1  UNL1        0.0439
     38 H           5.5464   -0.8705   -1.0426 H       1  UNL1        0.1223
     39 H           4.7235   -0.4066    1.4696 H       1  UNL1        0.0473
     40 H           4.4770    1.8321    1.0606 H       1  UNL1        0.0245
     41 H           4.1595    1.5717   -0.7558 H       1  UNL1        0.0245
     42 H           5.7799    1.2640    0.0233 H       1  UNL1        0.0245
     43 H           2.5119    0.5301    1.3830 H       1  UNL1        0.0479
     44 H           2.5095   -1.2236    1.2125 H       1  UNL1        0.0479
@<TRIPOS>BOND
     1     1     2    1
     2     2     3    1
     3     3     4   ar
     4     4     5   ar
     5     5     6    1
     6     6     7    1
     7     6     8    2
     8     5     9   ar
     9     9    10    2
    10     9    11   ar
    11    11    12   ar
    12    12    13   ar
    13    13    14    1
    14    13    15   ar
    15    15    16    1
    16    16    17    1
    17    17    18    1
    18    18    19    1
    19    19    20    1
    20    20    21    1
    21    20    22    1
    22    15    23   ar
    23    23    24    1
    24    23    25   ar
    25    25     3   ar
    26    25    11   ar
    27    22    16    1
    28     1    26    1
    29     1    27    1
    30     1    28    1
    31     2    29    1
    32     2    30    1
    33     4    31    1
    34     7    32    1
    35    12    33    1
    36    17    34    1
    37    17    35    1
    38    18    36    1
    39    18    37    1
    40    19    38    1
    41    20    39    1
    42    21    40    1
    43    21    41    1
    44    21    42    1
    45    22    43    1
    46    22    44    1
