@<TRIPOS>MOLECULE
*****
 40 40 0 0 0
SMALL
GASTEIGER

@<TRIPOS>ATOM
      1 C           4.9493   -0.7202   -2.3558 C.3     1  UNL1       -0.0396
      2 C           4.2889   -0.4235   -1.0768 C.ar    1  UNL1       -0.0470
      3 C           2.9138   -0.3446   -0.9791 C.ar    1  UNL1       -0.0168
      4 C           2.3566   -0.0618    0.2545 C.ar    1  UNL1        0.1236
      5 O           0.9903    0.0430    0.4769 O.3     1  UNL1       -0.4917
      6 C           0.0357   -0.1335   -0.5562 C.3     1  UNL1        0.0896
      7 C          -1.3494    0.0486    0.0302 C.3     1  UNL1       -0.0176
      8 C          -2.4187   -0.1228   -1.0020 C.3     1  UNL1       -0.0347
      9 C          -3.7749    0.0666   -0.3737 C.3     1  UNL1        0.0621
     10 C          -4.0264   -0.9363    0.7341 C.3     1  UNL1       -0.0497
     11 C          -4.8202   -0.2170   -1.4602 C.3     1  UNL1       -0.0497
     12 C          -4.0292    1.4546    0.0738 C.2     1  UNL1        0.3104
     13 O          -3.3272    2.2100    1.0025 O.3     1  UNL1       -0.4802
     14 O          -4.9438    2.2558   -0.2938 O.2     1  UNL1       -0.2504
     15 C           3.1509    0.1423    1.3868 C.ar    1  UNL1       -0.0088
     16 C           2.5626    0.4463    2.7147 C.3     1  UNL1       -0.0362
     17 C           4.5439    0.0600    1.2764 C.ar    1  UNL1       -0.0551
     18 C           5.0816   -0.2230    0.0379 C.ar    1  UNL1       -0.0584
     19 H           5.4808    0.1710   -2.7898 H       1  UNL1        0.0278
     20 H           5.7783   -1.4377   -2.1340 H       1  UNL1        0.0278
     21 H           4.2572   -1.0493   -3.1366 H       1  UNL1        0.0278
     22 H           2.2650   -0.4951   -1.8269 H       1  UNL1        0.0657
     23 H           0.0750   -1.1647   -0.9476 H       1  UNL1        0.0696
     24 H           0.2286    0.6112   -1.3462 H       1  UNL1        0.0696
     25 H          -1.3753    1.0494    0.4540 H       1  UNL1        0.0298
     26 H          -1.4529   -0.7016    0.8346 H       1  UNL1        0.0298
     27 H          -2.3835   -1.0793   -1.5212 H       1  UNL1        0.0277
     28 H          -2.3171    0.6613   -1.7804 H       1  UNL1        0.0277
     29 H          -3.7654   -1.9322    0.3357 H       1  UNL1        0.0240
     30 H          -3.4952   -0.6534    1.6550 H       1  UNL1        0.0240
     31 H          -5.1079   -0.9543    0.9421 H       1  UNL1        0.0240
     32 H          -5.7926    0.0896   -1.0196 H       1  UNL1        0.0240
     33 H          -4.8048   -1.2889   -1.6981 H       1  UNL1        0.0240
     34 H          -4.6069    0.4530   -2.3014 H       1  UNL1        0.0240
     35 H          -3.7346    2.5714    1.8556 H       1  UNL1        0.2951
     36 H           3.3030    0.1967    3.5007 H       1  UNL1        0.0279
     37 H           2.3469    1.5391    2.8374 H       1  UNL1        0.0279
     38 H           1.6186   -0.0885    2.9040 H       1  UNL1        0.0279
     39 H           5.1292    0.2239    2.1751 H       1  UNL1        0.0621
     40 H           6.1697   -0.2659    0.0541 H       1  UNL1        0.0620
@<TRIPOS>BOND
     1     1     2    1
     2     2     3   ar
     3     3     4   ar
     4     4     5    1
     5     5     6    1
     6     6     7    1
     7     7     8    1
     8     8     9    1
     9     9    10    1
    10     9    11    1
    11     9    12    1
    12    12    13    1
    13    12    14    2
    14     4    15   ar
    15    15    16    1
    16    15    17   ar
    17    17    18   ar
    18    18     2   ar
    19     1    19    1
    20     1    20    1
    21     1    21    1
    22     3    22    1
    23     6    23    1
    24     6    24    1
    25     7    25    1
    26     7    26    1
    27     8    27    1
    28     8    28    1
    29    10    29    1
    30    10    30    1
    31    10    31    1
    32    11    32    1
    33    11    33    1
    34    11    34    1
    35    13    35    1
    36    16    36    1
    37    16    37    1
    38    16    38    1
    39    17    39    1
    40    18    40    1
