@<TRIPOS>MOLECULE
*****
 55 59 0 0 0
SMALL
GASTEIGER

@<TRIPOS>ATOM
      1 O           0.9272   -0.0604    1.7465 O.2     1  UNL1       -0.2749
      2 C           1.2673    0.1414    0.5613 C.2     1  UNL1        0.2235
      3 C           2.6974    0.2871    0.1812 C.3     1  UNL1        0.0776
      4 S           3.8017    0.1419    1.5833 S.3     1  UNL1       -0.0785
      5 C           5.4757    0.3355    0.9975 C.ar    1  UNL1        0.1699
      6 N           6.1808   -0.7376    0.6014 N.ar    1  UNL1       -0.2232
      7 C           7.4534   -0.6753    0.1453 C.ar    1  UNL1        0.0790
      8 C           8.1715   -1.7624   -0.2574 C.ar    1  UNL1       -0.0355
      9 C           9.4700   -1.6231   -0.7130 C.ar    1  UNL1       -0.0597
     10 C          10.0641   -0.3837   -0.7693 C.ar    1  UNL1       -0.0609
     11 C           9.3193    0.7015   -0.3572 C.ar    1  UNL1       -0.0474
     12 C           8.0267    0.5912    0.1001 C.ar    1  UNL1        0.0647
     13 C           7.3267    1.7050    0.4996 C.ar    1  UNL1        0.2598
     14 O           7.8843    2.8202    0.4406 O.2     1  UNL1       -0.2671
     15 N           6.0712    1.5514    0.9377 N.ar    1  UNL1       -0.3014
     16 N           0.2731    0.2314   -0.4279 N.am    1  UNL1       -0.3118
     17 C          -1.1497    0.1040   -0.1642 C.3     1  UNL1        0.0233
     18 C          -1.8535    1.2788   -0.7394 C.3     1  UNL1       -0.0326
     19 C          -3.2545    1.0826   -1.1612 C.3     1  UNL1       -0.0303
     20 C          -3.9572   -0.1374   -0.7229 C.3     1  UNL1        0.0395
     21 N          -4.9200    0.1129    0.3480 N.ar    1  UNL1       -0.2891
     22 C          -4.6633    0.7532    1.4972 C.ar    1  UNL1        0.3278
     23 O          -3.5793    1.2425    1.8561 O.2     1  UNL1       -0.2465
     24 N          -5.7946    0.8008    2.2557 N.ar    1  UNL1       -0.3059
     25 C          -6.7851    0.1902    1.5959 C.ar    1  UNL1        0.0671
     26 C          -8.1068   -0.0450    1.8916 C.ar    1  UNL1       -0.0349
     27 C          -8.8878   -0.7201    0.9783 C.ar    1  UNL1       -0.0413
     28 C          -8.3401   -1.1535   -0.2216 C.ar    1  UNL1        0.0431
     29 CL         -9.3398   -2.0105   -1.3757 Cl      1  UNL1       -0.0835
     30 C          -7.0076   -0.9196   -0.5263 C.ar    1  UNL1       -0.0177
     31 C          -6.2327   -0.2365    0.4069 C.ar    1  UNL1        0.0713
     32 C          -3.0854   -1.3088   -0.3663 C.3     1  UNL1       -0.0303
     33 C          -1.6690   -1.1390   -0.8975 C.3     1  UNL1       -0.0326
     34 H           2.9246   -0.5085   -0.5630 H       1  UNL1        0.0475
     35 H           2.8626    1.2507   -0.3562 H       1  UNL1        0.0475
     36 H           7.6917   -2.7364   -0.2085 H       1  UNL1        0.0639
     37 H          10.0498   -2.4827   -1.0358 H       1  UNL1        0.0618
     38 H          11.0963   -0.2642   -1.1304 H       1  UNL1        0.0618
     39 H           9.7657    1.6972   -0.3912 H       1  UNL1        0.0626
     40 H           5.5261    2.3923    1.2454 H       1  UNL1        0.1709
     41 H           0.5781    0.4001   -1.4108 H       1  UNL1        0.1490
     42 H          -1.3624   -0.0720    0.9014 H       1  UNL1        0.0498
     43 H          -1.7425    2.1197    0.0100 H       1  UNL1        0.0284
     44 H          -1.2310    1.6471   -1.6103 H       1  UNL1        0.0284
     45 H          -3.3302    1.2238   -2.2819 H       1  UNL1        0.0286
     46 H          -3.8487    1.9647   -0.7693 H       1  UNL1        0.0286
     47 H          -4.5929   -0.4973   -1.5890 H       1  UNL1        0.0529
     48 H          -5.9017    1.2377    3.2049 H       1  UNL1        0.1704
     49 H          -8.5755    0.2733    2.8120 H       1  UNL1        0.0639
     50 H          -9.9332   -0.9393    1.1448 H       1  UNL1        0.0633
     51 H          -6.5585   -1.2479   -1.4554 H       1  UNL1        0.0653
     52 H          -3.4585   -2.2728   -0.7340 H       1  UNL1        0.0286
     53 H          -2.9919   -1.4038    0.7441 H       1  UNL1        0.0286
     54 H          -1.1002   -2.0374   -0.6117 H       1  UNL1        0.0284
     55 H          -1.6517   -0.9030   -1.9700 H       1  UNL1        0.0284
@<TRIPOS>BOND
     1     1     2    2
     2     2     3    1
     3     3     4    1
     4     4     5    1
     5     5     6   ar
     6     6     7   ar
     7     7     8   ar
     8     8     9   ar
     9     9    10   ar
    10    10    11   ar
    11    11    12   ar
    12    12    13   ar
    13    13    14    2
    14    13    15   ar
    15     2    16   am
    16    16    17    1
    17    17    18    1
    18    18    19    1
    19    19    20    1
    20    20    21    1
    21    21    22   ar
    22    22    23    2
    23    22    24   ar
    24    24    25   ar
    25    25    26   ar
    26    26    27   ar
    27    27    28   ar
    28    28    29    1
    29    28    30   ar
    30    30    31   ar
    31    20    32    1
    32    32    33    1
    33    15     5   ar
    34    33    17    1
    35    12     7   ar
    36    31    21   ar
    37    31    25   ar
    38     3    34    1
    39     3    35    1
    40     8    36    1
    41     9    37    1
    42    10    38    1
    43    11    39    1
    44    15    40    1
    45    16    41    1
    46    17    42    1
    47    18    43    1
    48    18    44    1
    49    19    45    1
    50    19    46    1
    51    20    47    1
    52    24    48    1
    53    26    49    1
    54    27    50    1
    55    30    51    1
    56    32    52    1
    57    32    53    1
    58    33    54    1
    59    33    55    1
