@<TRIPOS>MOLECULE
*****
 44 48 0 0 0
SMALL
GASTEIGER

@<TRIPOS>ATOM
      1 O          -0.6939   -1.7565    3.6419 O.2     1  UNL1       -0.2656
      2 C          -0.2453   -1.2534    2.5822 C.ar    1  UNL1        0.2748
      3 N           1.0779   -1.0952    2.3619 N.ar    1  UNL1       -0.3203
      4 C           1.5474   -0.5543    1.2215 C.ar    1  UNL1        0.0519
      5 C           2.9031   -0.3902    0.9923 C.ar    1  UNL1       -0.0299
      6 C           3.3169    0.1670   -0.1886 C.ar    1  UNL1       -0.0159
      7 C           4.7471    0.3385   -0.4234 C.ar    1  UNL1       -0.0178
      8 C           5.7021   -0.5192    0.0812 C.ar    1  UNL1       -0.0540
      9 C           7.0411   -0.3085   -0.1718 C.ar    1  UNL1       -0.0612
     10 C           7.4874    0.7598   -0.9343 C.ar    1  UNL1       -0.0617
     11 C           6.5409    1.6230   -1.4433 C.ar    1  UNL1       -0.0612
     12 C           5.2034    1.4086   -1.1880 C.ar    1  UNL1       -0.0540
     13 C           2.4142    0.5681   -1.1543 C.ar    1  UNL1       -0.0533
     14 C           1.0591    0.4120   -0.9427 C.ar    1  UNL1       -0.0499
     15 C           0.6722   -0.1550    0.2627 C.ar    1  UNL1        0.0260
     16 C          -0.6922   -0.3068    0.4649 C.ar    1  UNL1        0.1039
     17 N          -1.7381   -0.0098   -0.2850 N.ar    1  UNL1       -0.2268
     18 C          -2.9002   -0.3670    0.3878 C.ar    1  UNL1        0.1414
     19 C          -4.2005   -0.0964   -0.2005 C.ar    1  UNL1        0.0472
     20 C          -4.2233    0.2276   -1.5650 C.ar    1  UNL1        0.0521
     21 CL         -2.7088    0.2027   -2.4918 Cl      1  UNL1       -0.0828
     22 C          -5.3953    0.5557   -2.2038 C.ar    1  UNL1       -0.0427
     23 C          -6.5974    0.5843   -1.5487 C.ar    1  UNL1       -0.0598
     24 C          -6.5936    0.2712   -0.2197 C.ar    1  UNL1       -0.0493
     25 C          -5.4004   -0.0678    0.4519 C.ar    1  UNL1        0.0668
     26 C          -5.5252   -0.3920    1.8764 C.3     1  UNL1        0.4181
     27 F          -6.8825   -0.1830    2.2665 F       1  UNL1       -0.1659
     28 F          -4.8166    0.4265    2.7009 F       1  UNL1       -0.1659
     29 F          -5.3751   -1.7386    2.1654 F       1  UNL1       -0.1659
     30 N          -2.5104   -0.8817    1.5506 N.ar    1  UNL1       -0.3336
     31 C          -1.1518   -0.8569    1.6266 C.ar    1  UNL1        0.1322
     32 H           1.7575   -1.3927    3.0788 H       1  UNL1        0.1690
     33 H           3.5783   -0.7129    1.7641 H       1  UNL1        0.0644
     34 H           5.3951   -1.3591    0.6771 H       1  UNL1        0.0624
     35 H           7.8089   -0.9765    0.2191 H       1  UNL1        0.0618
     36 H           8.5556    0.8998   -1.1168 H       1  UNL1        0.0618
     37 H           6.8330    2.4720   -2.0442 H       1  UNL1        0.0618
     38 H           4.4296    2.0843   -1.5839 H       1  UNL1        0.0624
     39 H           2.7258    1.0089   -2.0906 H       1  UNL1        0.0624
     40 H           0.3405    0.7259   -1.6994 H       1  UNL1        0.0625
     41 H          -5.3699    0.7965   -3.2469 H       1  UNL1        0.0632
     42 H          -7.5455    0.8349   -2.0033 H       1  UNL1        0.0618
     43 H          -7.5170    0.2774    0.3475 H       1  UNL1        0.0623
     44 H          -3.0541   -1.2712    2.3123 H       1  UNL1        0.1675
@<TRIPOS>BOND
     1     1     2    2
     2     2     3   ar
     3     3     4   ar
     4     4     5   ar
     5     5     6   ar
     6     6     7    1
     7     7     8   ar
     8     8     9   ar
     9     9    10   ar
    10    10    11   ar
    11    11    12   ar
    12     6    13   ar
    13    13    14   ar
    14    14    15   ar
    15    15    16   ar
    16    16    17   ar
    17    17    18   ar
    18    18    19    1
    19    19    20   ar
    20    20    21    1
    21    20    22   ar
    22    22    23   ar
    23    23    24   ar
    24    24    25   ar
    25    25    26    1
    26    26    27    1
    27    26    28    1
    28    26    29    1
    29    18    30   ar
    30    30    31   ar
    31    31     2   ar
    32    15     4   ar
    33    31    16   ar
    34    12     7   ar
    35    25    19   ar
    36     3    32    1
    37     5    33    1
    38     8    34    1
    39     9    35    1
    40    10    36    1
    41    11    37    1
    42    12    38    1
    43    13    39    1
    44    14    40    1
    45    22    41    1
    46    23    42    1
    47    24    43    1
    48    30    44    1
