
     RDKit          3D

 44 48  0  0  0  0  0  0  0  0999 V2000
   -0.6939   -1.7565    3.6419 O   0  0  0  0  0  0  0  0  0  0  0  0
   -0.2453   -1.2534    2.5822 C   0  0  0  0  0  0  0  0  0  0  0  0
    1.0779   -1.0952    2.3619 N   0  0  0  0  0  0  0  0  0  0  0  0
    1.5474   -0.5543    1.2215 C   0  0  0  0  0  0  0  0  0  0  0  0
    2.9031   -0.3902    0.9923 C   0  0  0  0  0  0  0  0  0  0  0  0
    3.3169    0.1670   -0.1886 C   0  0  0  0  0  0  0  0  0  0  0  0
    4.7471    0.3385   -0.4234 C   0  0  0  0  0  0  0  0  0  0  0  0
    5.7021   -0.5192    0.0812 C   0  0  0  0  0  0  0  0  0  0  0  0
    7.0411   -0.3085   -0.1718 C   0  0  0  0  0  0  0  0  0  0  0  0
    7.4874    0.7598   -0.9343 C   0  0  0  0  0  0  0  0  0  0  0  0
    6.5409    1.6230   -1.4433 C   0  0  0  0  0  0  0  0  0  0  0  0
    5.2034    1.4086   -1.1880 C   0  0  0  0  0  0  0  0  0  0  0  0
    2.4142    0.5681   -1.1543 C   0  0  0  0  0  0  0  0  0  0  0  0
    1.0591    0.4120   -0.9427 C   0  0  0  0  0  0  0  0  0  0  0  0
    0.6722   -0.1550    0.2627 C   0  0  0  0  0  0  0  0  0  0  0  0
   -0.6922   -0.3068    0.4649 C   0  0  0  0  0  0  0  0  0  0  0  0
   -1.7381   -0.0098   -0.2850 N   0  0  0  0  0  0  0  0  0  0  0  0
   -2.9002   -0.3670    0.3878 C   0  0  0  0  0  0  0  0  0  0  0  0
   -4.2005   -0.0964   -0.2005 C   0  0  0  0  0  0  0  0  0  0  0  0
   -4.2233    0.2276   -1.5650 C   0  0  0  0  0  0  0  0  0  0  0  0
   -2.7088    0.2027   -2.4918 Cl  0  0  0  0  0  0  0  0  0  0  0  0
   -5.3953    0.5557   -2.2038 C   0  0  0  0  0  0  0  0  0  0  0  0
   -6.5974    0.5843   -1.5487 C   0  0  0  0  0  0  0  0  0  0  0  0
   -6.5936    0.2712   -0.2197 C   0  0  0  0  0  0  0  0  0  0  0  0
   -5.4004   -0.0678    0.4519 C   0  0  0  0  0  0  0  0  0  0  0  0
   -5.5252   -0.3920    1.8764 C   0  0  0  0  0  0  0  0  0  0  0  0
   -6.8825   -0.1830    2.2665 F   0  0  0  0  0  0  0  0  0  0  0  0
   -4.8166    0.4265    2.7009 F   0  0  0  0  0  0  0  0  0  0  0  0
   -5.3751   -1.7386    2.1654 F   0  0  0  0  0  0  0  0  0  0  0  0
   -2.5104   -0.8817    1.5506 N   0  0  0  0  0  0  0  0  0  0  0  0
   -1.1518   -0.8569    1.6266 C   0  0  0  0  0  0  0  0  0  0  0  0
    1.7575   -1.3927    3.0788 H   0  0  0  0  0  0  0  0  0  0  0  0
    3.5783   -0.7129    1.7641 H   0  0  0  0  0  0  0  0  0  0  0  0
    5.3951   -1.3591    0.6771 H   0  0  0  0  0  0  0  0  0  0  0  0
    7.8089   -0.9765    0.2191 H   0  0  0  0  0  0  0  0  0  0  0  0
    8.5556    0.8998   -1.1168 H   0  0  0  0  0  0  0  0  0  0  0  0
    6.8330    2.4720   -2.0442 H   0  0  0  0  0  0  0  0  0  0  0  0
    4.4296    2.0843   -1.5839 H   0  0  0  0  0  0  0  0  0  0  0  0
    2.7258    1.0089   -2.0906 H   0  0  0  0  0  0  0  0  0  0  0  0
    0.3405    0.7259   -1.6994 H   0  0  0  0  0  0  0  0  0  0  0  0
   -5.3699    0.7965   -3.2469 H   0  0  0  0  0  0  0  0  0  0  0  0
   -7.5455    0.8349   -2.0033 H   0  0  0  0  0  0  0  0  0  0  0  0
   -7.5170    0.2774    0.3475 H   0  0  0  0  0  0  0  0  0  0  0  0
   -3.0541   -1.2712    2.3123 H   0  0  0  0  0  0  0  0  0  0  0  0
  1  2  2  0
  2  3  1  0
  3  4  1  0
  4  5  2  0
  5  6  1  0
  6  7  1  0
  7  8  2  0
  8  9  1  0
  9 10  2  0
 10 11  1  0
 11 12  2  0
  6 13  2  0
 13 14  1  0
 14 15  2  0
 15 16  1  0
 16 17  1  0
 17 18  2  0
 18 19  1  0
 19 20  2  0
 20 21  1  0
 20 22  1  0
 22 23  2  0
 23 24  1  0
 24 25  2  0
 25 26  1  0
 26 27  1  0
 26 28  1  0
 26 29  1  0
 18 30  1  0
 30 31  1  0
 31  2  1  0
 15  4  1  0
 31 16  2  0
 12  7  1  0
 25 19  1  0
  3 32  1  0
  5 33  1  0
  8 34  1  0
  9 35  1  0
 10 36  1  0
 11 37  1  0
 12 38  1  0
 13 39  1  0
 14 40  1  0
 22 41  1  0
 23 42  1  0
 24 43  1  0
 30 44  1  0
M  END
$$$$
