@<TRIPOS>MOLECULE
*****
 43 46 0 0 0
SMALL
GASTEIGER

@<TRIPOS>ATOM
      1 C           8.1185    0.4299    0.8108 C.3     1  UNL1       -0.0453
      2 C           6.6210    0.4432    1.0459 C.3     1  UNL1        0.0681
      3 S           5.8923   -0.6294   -0.1531 S.O2    1  UNL1       -0.0033
      4 O           6.4016   -2.0238    0.1142 O.2     1  UNL1       -0.1694
      5 O           6.2429   -0.2806   -1.5466 O.2     1  UNL1       -0.1694
      6 C           4.1435   -0.7035    0.0140 C.ar    1  UNL1        0.0902
      7 C           3.5431   -1.6424    0.8343 C.ar    1  UNL1       -0.0347
      8 C           2.1699   -1.6857    0.9521 C.ar    1  UNL1       -0.0324
      9 C           1.3372   -0.8195    0.2776 C.ar    1  UNL1        0.0896
     10 N           0.0041   -0.6361    0.2033 N.ar    1  UNL1       -0.2262
     11 C          -0.2737    0.3814   -0.6309 C.ar    1  UNL1        0.1577
     12 C          -1.6124    0.8826   -0.9721 C.ar    1  UNL1        0.1065
     13 C          -2.7425    0.3121   -0.4291 C.ar    1  UNL1       -0.0250
     14 C          -4.0247    0.7384   -0.7119 C.ar    1  UNL1       -0.0143
     15 C          -5.1960    0.0921   -0.1035 C.ar    1  UNL1       -0.0178
     16 C          -5.0584   -0.4337    1.1750 C.ar    1  UNL1       -0.0540
     17 C          -6.1087   -1.0568    1.8160 C.ar    1  UNL1       -0.0612
     18 C          -7.3354   -1.1735    1.1940 C.ar    1  UNL1       -0.0617
     19 C          -7.4516   -0.6438   -0.0778 C.ar    1  UNL1       -0.0612
     20 C          -6.4031   -0.0211   -0.7195 C.ar    1  UNL1       -0.0540
     21 C          -4.1650    1.7938   -1.5874 C.ar    1  UNL1       -0.0358
     22 C          -3.0188    2.3472   -2.1168 C.ar    1  UNL1        0.0289
     23 N          -1.7799    1.9073   -1.8202 N.ar    1  UNL1       -0.2519
     24 N           0.9097    0.8284   -1.0744 N.ar    1  UNL1       -0.3366
     25 C           1.9225    0.1214   -0.5434 C.ar    1  UNL1        0.0683
     26 C           3.3059    0.1613   -0.6588 C.ar    1  UNL1       -0.0114
     27 H           8.3659    0.2995   -0.2570 H       1  UNL1        0.0245
     28 H           8.5181    1.4096    1.1263 H       1  UNL1        0.0245
     29 H           8.5685   -0.4084    1.3920 H       1  UNL1        0.0245
     30 H           6.4037    0.0314    2.0570 H       1  UNL1        0.0501
     31 H           6.1782    1.4376    0.9724 H       1  UNL1        0.0501
     32 H           4.1791   -2.3250    1.3663 H       1  UNL1        0.0637
     33 H           1.6792   -2.4276    1.6019 H       1  UNL1        0.0640
     34 H          -2.5752   -0.5176    0.2559 H       1  UNL1        0.0646
     35 H          -4.0958   -0.3474    1.6750 H       1  UNL1        0.0624
     36 H          -6.0318   -1.4788    2.8176 H       1  UNL1        0.0618
     37 H          -8.1814   -1.6618    1.6803 H       1  UNL1        0.0618
     38 H          -8.4153   -0.7347   -0.5687 H       1  UNL1        0.0618
     39 H          -6.5236    0.3868   -1.7209 H       1  UNL1        0.0624
     40 H          -5.1575    2.1672   -1.8426 H       1  UNL1        0.0639
     41 H          -3.1668    3.1821   -2.8070 H       1  UNL1        0.0830
     42 H           1.0614    1.6133   -1.7394 H       1  UNL1        0.1674
     43 H           3.7511    0.8976   -1.3007 H       1  UNL1        0.0658
@<TRIPOS>BOND
     1     1     2    1
     2     2     3    1
     3     3     4    2
     4     3     5    2
     5     3     6    1
     6     6     7   ar
     7     7     8   ar
     8     8     9   ar
     9     9    10   ar
    10    10    11   ar
    11    11    12    1
    12    12    13   ar
    13    13    14   ar
    14    14    15    1
    15    15    16   ar
    16    16    17   ar
    17    17    18   ar
    18    18    19   ar
    19    19    20   ar
    20    14    21   ar
    21    21    22   ar
    22    22    23   ar
    23    11    24   ar
    24    24    25   ar
    25    25    26   ar
    26    26     6   ar
    27    25     9   ar
    28    23    12   ar
    29    20    15   ar
    30     1    27    1
    31     1    28    1
    32     1    29    1
    33     2    30    1
    34     2    31    1
    35     7    32    1
    36     8    33    1
    37    13    34    1
    38    16    35    1
    39    17    36    1
    40    18    37    1
    41    19    38    1
    42    20    39    1
    43    21    40    1
    44    22    41    1
    45    24    42    1
    46    26    43    1
