
     RDKit          3D

 43 46  0  0  0  0  0  0  0  0999 V2000
    8.1185    0.4299    0.8108 C   0  0  0  0  0  0  0  0  0  0  0  0
    6.6210    0.4432    1.0459 C   0  0  0  0  0  0  0  0  0  0  0  0
    5.8923   -0.6294   -0.1531 S   0  0  0  0  0  6  0  0  0  0  0  0
    6.4016   -2.0238    0.1142 O   0  0  0  0  0  0  0  0  0  0  0  0
    6.2429   -0.2806   -1.5466 O   0  0  0  0  0  0  0  0  0  0  0  0
    4.1435   -0.7035    0.0140 C   0  0  0  0  0  0  0  0  0  0  0  0
    3.5431   -1.6424    0.8343 C   0  0  0  0  0  0  0  0  0  0  0  0
    2.1699   -1.6857    0.9521 C   0  0  0  0  0  0  0  0  0  0  0  0
    1.3372   -0.8195    0.2776 C   0  0  0  0  0  0  0  0  0  0  0  0
    0.0041   -0.6361    0.2033 N   0  0  0  0  0  0  0  0  0  0  0  0
   -0.2737    0.3814   -0.6309 C   0  0  0  0  0  0  0  0  0  0  0  0
   -1.6124    0.8826   -0.9721 C   0  0  0  0  0  0  0  0  0  0  0  0
   -2.7425    0.3121   -0.4291 C   0  0  0  0  0  0  0  0  0  0  0  0
   -4.0247    0.7384   -0.7119 C   0  0  0  0  0  0  0  0  0  0  0  0
   -5.1960    0.0921   -0.1035 C   0  0  0  0  0  0  0  0  0  0  0  0
   -5.0584   -0.4337    1.1750 C   0  0  0  0  0  0  0  0  0  0  0  0
   -6.1087   -1.0568    1.8160 C   0  0  0  0  0  0  0  0  0  0  0  0
   -7.3354   -1.1735    1.1940 C   0  0  0  0  0  0  0  0  0  0  0  0
   -7.4516   -0.6438   -0.0778 C   0  0  0  0  0  0  0  0  0  0  0  0
   -6.4031   -0.0211   -0.7195 C   0  0  0  0  0  0  0  0  0  0  0  0
   -4.1650    1.7938   -1.5874 C   0  0  0  0  0  0  0  0  0  0  0  0
   -3.0188    2.3472   -2.1168 C   0  0  0  0  0  0  0  0  0  0  0  0
   -1.7799    1.9073   -1.8202 N   0  0  0  0  0  0  0  0  0  0  0  0
    0.9097    0.8284   -1.0744 N   0  0  0  0  0  0  0  0  0  0  0  0
    1.9225    0.1214   -0.5434 C   0  0  0  0  0  0  0  0  0  0  0  0
    3.3059    0.1613   -0.6588 C   0  0  0  0  0  0  0  0  0  0  0  0
    8.3659    0.2995   -0.2570 H   0  0  0  0  0  0  0  0  0  0  0  0
    8.5181    1.4096    1.1263 H   0  0  0  0  0  0  0  0  0  0  0  0
    8.5685   -0.4084    1.3920 H   0  0  0  0  0  0  0  0  0  0  0  0
    6.4037    0.0314    2.0570 H   0  0  0  0  0  0  0  0  0  0  0  0
    6.1782    1.4376    0.9724 H   0  0  0  0  0  0  0  0  0  0  0  0
    4.1791   -2.3250    1.3663 H   0  0  0  0  0  0  0  0  0  0  0  0
    1.6792   -2.4276    1.6019 H   0  0  0  0  0  0  0  0  0  0  0  0
   -2.5752   -0.5176    0.2559 H   0  0  0  0  0  0  0  0  0  0  0  0
   -4.0958   -0.3474    1.6750 H   0  0  0  0  0  0  0  0  0  0  0  0
   -6.0318   -1.4788    2.8176 H   0  0  0  0  0  0  0  0  0  0  0  0
   -8.1814   -1.6618    1.6803 H   0  0  0  0  0  0  0  0  0  0  0  0
   -8.4153   -0.7347   -0.5687 H   0  0  0  0  0  0  0  0  0  0  0  0
   -6.5236    0.3868   -1.7209 H   0  0  0  0  0  0  0  0  0  0  0  0
   -5.1575    2.1672   -1.8426 H   0  0  0  0  0  0  0  0  0  0  0  0
   -3.1668    3.1821   -2.8070 H   0  0  0  0  0  0  0  0  0  0  0  0
    1.0614    1.6133   -1.7394 H   0  0  0  0  0  0  0  0  0  0  0  0
    3.7511    0.8976   -1.3007 H   0  0  0  0  0  0  0  0  0  0  0  0
  1  2  1  0
  2  3  1  0
  3  4  2  0
  3  5  2  0
  3  6  1  0
  6  7  2  0
  7  8  1  0
  8  9  2  0
  9 10  1  0
 10 11  2  0
 11 12  1  0
 12 13  2  0
 13 14  1  0
 14 15  1  0
 15 16  2  0
 16 17  1  0
 17 18  2  0
 18 19  1  0
 19 20  2  0
 14 21  2  0
 21 22  1  0
 22 23  2  0
 11 24  1  0
 24 25  1  0
 25 26  2  0
 26  6  1  0
 25  9  1  0
 23 12  1  0
 20 15  1  0
  1 27  1  0
  1 28  1  0
  1 29  1  0
  2 30  1  0
  2 31  1  0
  7 32  1  0
  8 33  1  0
 13 34  1  0
 16 35  1  0
 17 36  1  0
 18 37  1  0
 19 38  1  0
 20 39  1  0
 21 40  1  0
 22 41  1  0
 24 42  1  0
 26 43  1  0
M  END
$$$$
