@<TRIPOS>MOLECULE
*****
 56 61 0 0 0
SMALL
GASTEIGER

@<TRIPOS>ATOM
      1 C          -8.0156    0.7484    1.0466 C.3     1  UNL1       -0.0499
      2 C          -6.9014    0.2353    0.1642 C.3     1  UNL1        0.0023
      3 C          -6.9759    0.9380   -1.1524 C.3     1  UNL1       -0.0499
      4 N          -5.6536    0.4650    0.8698 N.3     1  UNL1       -0.3097
      5 C          -4.5137    0.0013    0.0952 C.3     1  UNL1        0.0235
      6 C          -3.2837    0.2755    0.8809 C.ar    1  UNL1       -0.0082
      7 C          -3.3195    0.8757    2.1223 C.ar    1  UNL1       -0.0553
      8 C          -2.1580    1.1279    2.8498 C.ar    1  UNL1       -0.0593
      9 C          -0.9400    0.7836    2.3474 C.ar    1  UNL1       -0.0342
     10 C          -0.9017    0.1781    1.0956 C.ar    1  UNL1        0.0898
     11 N           0.1455   -0.2704    0.3465 N.ar    1  UNL1       -0.2261
     12 C          -0.3002   -0.7834   -0.7980 C.ar    1  UNL1        0.1601
     13 C           0.4732   -1.3764   -1.8954 C.ar    1  UNL1        0.1367
     14 N           0.0174   -1.8921   -3.0473 N.ar    1  UNL1       -0.1683
     15 N           1.0260   -2.3316   -3.7848 N.ar    1  UNL1       -0.2595
     16 C           2.1690   -2.0920   -3.0868 C.ar    1  UNL1        0.1563
     17 N           3.4749   -2.3130   -3.3178 N.ar    1  UNL1       -0.2355
     18 C           4.4302   -1.9715   -2.4414 C.ar    1  UNL1        0.0377
     19 C           4.1528   -1.3572   -1.2131 C.ar    1  UNL1        0.0030
     20 C           5.2143   -1.0322   -0.2803 C.ar    1  UNL1        0.0094
     21 C           6.0920   -1.9967    0.1990 C.ar    1  UNL1        0.0359
     22 N           7.0544   -1.6871    1.0945 N.ar    1  UNL1       -0.2620
     23 C           7.2122   -0.4467    1.5629 C.ar    1  UNL1        0.0353
     24 C           6.3677    0.5568    1.1210 C.ar    1  UNL1        0.0008
     25 C           6.5426    1.8375    1.6017 C.ar    1  UNL1       -0.0526
     26 C           5.7269    2.8622    1.1752 C.ar    1  UNL1       -0.0611
     27 C           4.7356    2.5789    0.2599 C.ar    1  UNL1       -0.0611
     28 C           4.5675    1.2730   -0.2212 C.ar    1  UNL1       -0.0534
     29 C           5.3611    0.2476    0.1879 C.ar    1  UNL1       -0.0072
     30 C           2.8136   -1.1256   -0.9648 C.ar    1  UNL1       -0.0396
     31 C           1.8591   -1.4888   -1.8867 C.ar    1  UNL1        0.0498
     32 N          -1.6386   -0.6616   -0.7789 N.ar    1  UNL1       -0.3363
     33 C          -2.0289   -0.0718    0.3789 C.ar    1  UNL1        0.0710
     34 H          -8.8137    1.2475    0.4489 H       1  UNL1        0.0245
     35 H          -8.4858   -0.0832    1.6363 H       1  UNL1        0.0245
     36 H          -7.6317    1.4936    1.7760 H       1  UNL1        0.0245
     37 H          -7.0605   -0.8772    0.0634 H       1  UNL1        0.0455
     38 H          -7.0650    0.1896   -1.9794 H       1  UNL1        0.0245
     39 H          -7.8805    1.5771   -1.2240 H       1  UNL1        0.0245
     40 H          -6.1102    1.6191   -1.2983 H       1  UNL1        0.0245
     41 H          -5.7337   -0.0034    1.7780 H       1  UNL1        0.1225
     42 H          -4.6626   -1.1108   -0.0248 H       1  UNL1        0.0474
     43 H          -4.5036    0.4174   -0.9106 H       1  UNL1        0.0474
     44 H          -4.2639    1.1683    2.5646 H       1  UNL1        0.0621
     45 H          -2.2645    1.6034    3.8193 H       1  UNL1        0.0618
     46 H          -0.0238    0.9661    2.8870 H       1  UNL1        0.0639
     47 H           0.9862   -2.7822   -4.7285 H       1  UNL1        0.1905
     48 H           5.4526   -2.1883   -2.7133 H       1  UNL1        0.0836
     49 H           5.9663   -3.0029   -0.1792 H       1  UNL1        0.0836
     50 H           7.9925   -0.1885    2.2915 H       1  UNL1        0.0836
     51 H           7.3449    2.0273    2.3318 H       1  UNL1        0.0624
     52 H           5.8919    3.8555    1.5733 H       1  UNL1        0.0618
     53 H           4.0870    3.3510   -0.0909 H       1  UNL1        0.0618
     54 H           3.7864    1.0739   -0.9547 H       1  UNL1        0.0624
     55 H           2.4939   -0.6725   -0.0589 H       1  UNL1        0.0632
     56 H          -2.3075   -0.9704   -1.5379 H       1  UNL1        0.1674
@<TRIPOS>BOND
     1     1     2    1
     2     2     3    1
     3     2     4    1
     4     4     5    1
     5     5     6    1
     6     6     7   ar
     7     7     8   ar
     8     8     9   ar
     9     9    10   ar
    10    10    11   ar
    11    11    12   ar
    12    12    13    1
    13    13    14   ar
    14    14    15   ar
    15    15    16   ar
    16    16    17   ar
    17    17    18   ar
    18    18    19   ar
    19    19    20    1
    20    20    21   ar
    21    21    22   ar
    22    22    23   ar
    23    23    24   ar
    24    24    25   ar
    25    25    26   ar
    26    26    27   ar
    27    27    28   ar
    28    28    29   ar
    29    19    30   ar
    30    30    31   ar
    31    12    32   ar
    32    32    33   ar
    33    33     6   ar
    34    33    10   ar
    35    31    13   ar
    36    31    16   ar
    37    29    20   ar
    38    29    24   ar
    39     1    34    1
    40     1    35    1
    41     1    36    1
    42     2    37    1
    43     3    38    1
    44     3    39    1
    45     3    40    1
    46     4    41    1
    47     5    42    1
    48     5    43    1
    49     7    44    1
    50     8    45    1
    51     9    46    1
    52    15    47    1
    53    18    48    1
    54    21    49    1
    55    23    50    1
    56    25    51    1
    57    26    52    1
    58    27    53    1
    59    28    54    1
    60    30    55    1
    61    32    56    1
