
     RDKit          3D

 56 61  0  0  0  0  0  0  0  0999 V2000
   -8.0156    0.7484    1.0466 C   0  0  0  0  0  0  0  0  0  0  0  0
   -6.9014    0.2353    0.1642 C   0  0  0  0  0  0  0  0  0  0  0  0
   -6.9759    0.9380   -1.1524 C   0  0  0  0  0  0  0  0  0  0  0  0
   -5.6536    0.4650    0.8698 N   0  0  0  0  0  0  0  0  0  0  0  0
   -4.5137    0.0013    0.0952 C   0  0  0  0  0  0  0  0  0  0  0  0
   -3.2837    0.2755    0.8809 C   0  0  0  0  0  0  0  0  0  0  0  0
   -3.3195    0.8757    2.1223 C   0  0  0  0  0  0  0  0  0  0  0  0
   -2.1580    1.1279    2.8498 C   0  0  0  0  0  0  0  0  0  0  0  0
   -0.9400    0.7836    2.3474 C   0  0  0  0  0  0  0  0  0  0  0  0
   -0.9017    0.1781    1.0956 C   0  0  0  0  0  0  0  0  0  0  0  0
    0.1455   -0.2704    0.3465 N   0  0  0  0  0  0  0  0  0  0  0  0
   -0.3002   -0.7834   -0.7980 C   0  0  0  0  0  0  0  0  0  0  0  0
    0.4732   -1.3764   -1.8954 C   0  0  0  0  0  0  0  0  0  0  0  0
    0.0174   -1.8921   -3.0473 N   0  0  0  0  0  0  0  0  0  0  0  0
    1.0260   -2.3316   -3.7848 N   0  0  0  0  0  0  0  0  0  0  0  0
    2.1690   -2.0920   -3.0868 C   0  0  0  0  0  0  0  0  0  0  0  0
    3.4749   -2.3130   -3.3178 N   0  0  0  0  0  0  0  0  0  0  0  0
    4.4302   -1.9715   -2.4414 C   0  0  0  0  0  0  0  0  0  0  0  0
    4.1528   -1.3572   -1.2131 C   0  0  0  0  0  0  0  0  0  0  0  0
    5.2143   -1.0322   -0.2803 C   0  0  0  0  0  0  0  0  0  0  0  0
    6.0920   -1.9967    0.1990 C   0  0  0  0  0  0  0  0  0  0  0  0
    7.0544   -1.6871    1.0945 N   0  0  0  0  0  0  0  0  0  0  0  0
    7.2122   -0.4467    1.5629 C   0  0  0  0  0  0  0  0  0  0  0  0
    6.3677    0.5568    1.1210 C   0  0  0  0  0  0  0  0  0  0  0  0
    6.5426    1.8375    1.6017 C   0  0  0  0  0  0  0  0  0  0  0  0
    5.7269    2.8622    1.1752 C   0  0  0  0  0  0  0  0  0  0  0  0
    4.7356    2.5789    0.2599 C   0  0  0  0  0  0  0  0  0  0  0  0
    4.5675    1.2730   -0.2212 C   0  0  0  0  0  0  0  0  0  0  0  0
    5.3611    0.2476    0.1879 C   0  0  0  0  0  0  0  0  0  0  0  0
    2.8136   -1.1256   -0.9648 C   0  0  0  0  0  0  0  0  0  0  0  0
    1.8591   -1.4888   -1.8867 C   0  0  0  0  0  0  0  0  0  0  0  0
   -1.6386   -0.6616   -0.7789 N   0  0  0  0  0  0  0  0  0  0  0  0
   -2.0289   -0.0718    0.3789 C   0  0  0  0  0  0  0  0  0  0  0  0
   -8.8137    1.2475    0.4489 H   0  0  0  0  0  0  0  0  0  0  0  0
   -8.4858   -0.0832    1.6363 H   0  0  0  0  0  0  0  0  0  0  0  0
   -7.6317    1.4936    1.7760 H   0  0  0  0  0  0  0  0  0  0  0  0
   -7.0605   -0.8772    0.0634 H   0  0  0  0  0  0  0  0  0  0  0  0
   -7.0650    0.1896   -1.9794 H   0  0  0  0  0  0  0  0  0  0  0  0
   -7.8805    1.5771   -1.2240 H   0  0  0  0  0  0  0  0  0  0  0  0
   -6.1102    1.6191   -1.2983 H   0  0  0  0  0  0  0  0  0  0  0  0
   -5.7337   -0.0034    1.7780 H   0  0  0  0  0  0  0  0  0  0  0  0
   -4.6626   -1.1108   -0.0248 H   0  0  0  0  0  0  0  0  0  0  0  0
   -4.5036    0.4174   -0.9106 H   0  0  0  0  0  0  0  0  0  0  0  0
   -4.2639    1.1683    2.5646 H   0  0  0  0  0  0  0  0  0  0  0  0
   -2.2645    1.6034    3.8193 H   0  0  0  0  0  0  0  0  0  0  0  0
   -0.0238    0.9661    2.8870 H   0  0  0  0  0  0  0  0  0  0  0  0
    0.9862   -2.7822   -4.7285 H   0  0  0  0  0  0  0  0  0  0  0  0
    5.4526   -2.1883   -2.7133 H   0  0  0  0  0  0  0  0  0  0  0  0
    5.9663   -3.0029   -0.1792 H   0  0  0  0  0  0  0  0  0  0  0  0
    7.9925   -0.1885    2.2915 H   0  0  0  0  0  0  0  0  0  0  0  0
    7.3449    2.0273    2.3318 H   0  0  0  0  0  0  0  0  0  0  0  0
    5.8919    3.8555    1.5733 H   0  0  0  0  0  0  0  0  0  0  0  0
    4.0870    3.3510   -0.0909 H   0  0  0  0  0  0  0  0  0  0  0  0
    3.7864    1.0739   -0.9547 H   0  0  0  0  0  0  0  0  0  0  0  0
    2.4939   -0.6725   -0.0589 H   0  0  0  0  0  0  0  0  0  0  0  0
   -2.3075   -0.9704   -1.5379 H   0  0  0  0  0  0  0  0  0  0  0  0
  1  2  1  0
  2  3  1  0
  2  4  1  0
  4  5  1  0
  5  6  1  0
  6  7  2  0
  7  8  1  0
  8  9  2  0
  9 10  1  0
 10 11  1  0
 11 12  2  0
 12 13  1  0
 13 14  2  0
 14 15  1  0
 15 16  1  0
 16 17  2  0
 17 18  1  0
 18 19  2  0
 19 20  1  0
 20 21  2  0
 21 22  1  0
 22 23  2  0
 23 24  1  0
 24 25  2  0
 25 26  1  0
 26 27  2  0
 27 28  1  0
 28 29  2  0
 19 30  1  0
 30 31  2  0
 12 32  1  0
 32 33  1  0
 33  6  1  0
 33 10  2  0
 31 13  1  0
 31 16  1  0
 29 20  1  0
 29 24  1  0
  1 34  1  0
  1 35  1  0
  1 36  1  0
  2 37  1  0
  3 38  1  0
  3 39  1  0
  3 40  1  0
  4 41  1  0
  5 42  1  0
  5 43  1  0
  7 44  1  0
  8 45  1  0
  9 46  1  0
 15 47  1  0
 18 48  1  0
 21 49  1  0
 23 50  1  0
 25 51  1  0
 26 52  1  0
 27 53  1  0
 28 54  1  0
 30 55  1  0
 32 56  1  0
M  END
$$$$
