@<TRIPOS>MOLECULE
*****
 58 62 0 0 0
SMALL
GASTEIGER

@<TRIPOS>ATOM
      1 C          -4.0103   -1.3471   -4.9216 C.3     1  UNL1       -0.0206
      2 C          -3.4386   -1.1013   -3.5564 C.ar    1  UNL1        0.0611
      3 C          -2.3424   -0.3488   -3.2107 C.ar    1  UNL1       -0.0084
      4 C          -2.2844   -0.4528   -1.7959 C.ar    1  UNL1        0.1296
      5 C          -1.1995    0.2156   -1.0337 C.2     1  UNL1        0.2667
      6 O          -1.3781    0.8409    0.0020 O.2     1  UNL1       -0.2682
      7 N           0.1392    0.0871   -1.5752 N.am    1  UNL1       -0.2802
      8 C           1.2946    0.6606   -0.9698 C.ar    1  UNL1        0.0338
      9 C           1.3209    1.7457   -0.1721 C.ar    1  UNL1       -0.0399
     10 C           2.4883    2.2246    0.4546 C.ar    1  UNL1       -0.0522
     11 C           3.6962    1.5819    0.2763 C.ar    1  UNL1       -0.0159
     12 C           4.9308    1.9741    0.9752 C.ar    1  UNL1        0.0084
     13 C           4.9993    1.5968    2.3309 C.ar    1  UNL1       -0.0522
     14 C           6.0913    1.8524    3.1106 C.ar    1  UNL1       -0.0611
     15 C           7.1563    2.5060    2.5056 C.ar    1  UNL1       -0.0599
     16 C           7.1168    2.8923    1.1756 C.ar    1  UNL1       -0.0348
     17 C           5.9842    2.6129    0.4139 C.ar    1  UNL1        0.1127
     18 S           5.9513    3.1117   -1.2464 S.O2    1  UNL1        0.0565
     19 N           5.9592    1.7029   -2.2618 N.3     1  UNL1       -0.2035
     20 O           4.6929    3.9252   -1.5178 O.2     1  UNL1       -0.1532
     21 O           7.1874    3.8987   -1.5509 O.2     1  UNL1       -0.1532
     22 C           3.6811    0.4569   -0.5441 C.ar    1  UNL1       -0.0522
     23 C           2.5327    0.0001   -1.1514 C.ar    1  UNL1       -0.0399
     24 N          -3.2490   -1.2040   -1.3462 N.ar    1  UNL1       -0.2261
     25 C          -3.6501   -1.6150   -0.0469 C.ar    1  UNL1        0.0841
     26 C          -4.9997   -1.5834    0.2804 C.ar    1  UNL1       -0.0273
     27 C          -5.5327   -1.9330    1.5045 C.ar    1  UNL1       -0.0158
     28 C          -6.9085   -1.8511    1.7244 C.ar    1  UNL1       -0.0540
     29 C          -7.4221   -2.1986    2.9785 C.ar    1  UNL1       -0.0612
     30 C          -6.5638   -2.6156    3.9813 C.ar    1  UNL1       -0.0612
     31 C          -5.2224   -2.6802    3.7156 C.ar    1  UNL1       -0.0540
     32 C          -4.6688   -2.3429    2.4775 C.ar    1  UNL1       -0.0165
     33 C          -3.3297   -2.3992    2.2210 C.ar    1  UNL1       -0.0346
     34 C          -2.7595   -2.0477    0.9672 C.ar    1  UNL1        0.0777
     35 C          -1.4495   -2.1356    0.7978 C.1     1  UNL1        0.1013
     36 N          -0.1472   -2.2448    0.6205 N.1     1  UNL1       -0.1908
     37 N          -3.9665   -1.6068   -2.4586 N.ar    1  UNL1       -0.1709
     38 H          -4.9127   -0.7428   -5.0359 H       1  UNL1        0.0293
     39 H          -4.3323   -2.4225   -4.9168 H       1  UNL1        0.0293
     40 H          -3.2615   -1.2123   -5.7014 H       1  UNL1        0.0293
     41 H          -1.6918    0.1877   -3.8433 H       1  UNL1        0.0659
     42 H           0.1979   -0.4618   -2.4652 H       1  UNL1        0.1552
     43 H           0.3775    2.2933   -0.0272 H       1  UNL1        0.0636
     44 H           2.4417    3.0917    1.0648 H       1  UNL1        0.0624
     45 H           4.1381    1.0840    2.7764 H       1  UNL1        0.0624
     46 H           6.1236    1.5486    4.1688 H       1  UNL1        0.0618
     47 H           8.0169    2.6975    3.1401 H       1  UNL1        0.0618
     48 H           7.9832    3.4191    0.7386 H       1  UNL1        0.0637
     49 H           6.5020    1.9170   -3.1472 H       1  UNL1        0.1442
     50 H           6.4532    0.8960   -1.7647 H       1  UNL1        0.1442
     51 H           4.6313   -0.0543   -0.6485 H       1  UNL1        0.0624
     52 H           2.5153   -0.8619   -1.7811 H       1  UNL1        0.0636
     53 H          -5.6791   -1.2594   -0.5125 H       1  UNL1        0.0645
     54 H          -7.5685   -1.5329    0.9358 H       1  UNL1        0.0624
     55 H          -8.4722   -2.1586    3.2056 H       1  UNL1        0.0618
     56 H          -6.9782   -2.8824    4.9716 H       1  UNL1        0.0618
     57 H          -4.5394   -2.9944    4.4814 H       1  UNL1        0.0624
     58 H          -2.6443   -2.7303    3.0310 H       1  UNL1        0.0637
@<TRIPOS>BOND
     1     1     2    1
     2     2     3   ar
     3     3     4   ar
     4     4     5    1
     5     5     6    2
     6     5     7   am
     7     7     8    1
     8     8     9   ar
     9     9    10   ar
    10    10    11   ar
    11    11    12    1
    12    12    13   ar
    13    13    14   ar
    14    14    15   ar
    15    15    16   ar
    16    16    17   ar
    17    17    18    1
    18    18    19    1
    19    18    20    2
    20    18    21    2
    21    11    22   ar
    22    22    23   ar
    23     4    24   ar
    24    24    25    1
    25    25    26   ar
    26    26    27   ar
    27    27    28   ar
    28    28    29   ar
    29    29    30   ar
    30    30    31   ar
    31    31    32   ar
    32    32    33   ar
    33    33    34   ar
    34    34    35    1
    35    35    36    3
    36    24    37   ar
    37    37     2   ar
    38    23     8   ar
    39    34    25   ar
    40    17    12   ar
    41    32    27   ar
    42     1    38    1
    43     1    39    1
    44     1    40    1
    45     3    41    1
    46     7    42    1
    47     9    43    1
    48    10    44    1
    49    13    45    1
    50    14    46    1
    51    15    47    1
    52    16    48    1
    53    19    49    1
    54    19    50    1
    55    22    51    1
    56    23    52    1
    57    26    53    1
    58    28    54    1
    59    29    55    1
    60    30    56    1
    61    31    57    1
    62    33    58    1
