
     RDKit          3D

 58 62  0  0  0  0  0  0  0  0999 V2000
   -4.0103   -1.3471   -4.9216 C   0  0  0  0  0  0  0  0  0  0  0  0
   -3.4386   -1.1013   -3.5564 C   0  0  0  0  0  0  0  0  0  0  0  0
   -2.3424   -0.3488   -3.2107 C   0  0  0  0  0  0  0  0  0  0  0  0
   -2.2844   -0.4528   -1.7959 C   0  0  0  0  0  0  0  0  0  0  0  0
   -1.1995    0.2156   -1.0337 C   0  0  0  0  0  0  0  0  0  0  0  0
   -1.3781    0.8409    0.0020 O   0  0  0  0  0  0  0  0  0  0  0  0
    0.1392    0.0871   -1.5752 N   0  0  0  0  0  0  0  0  0  0  0  0
    1.2946    0.6606   -0.9698 C   0  0  0  0  0  0  0  0  0  0  0  0
    1.3209    1.7457   -0.1721 C   0  0  0  0  0  0  0  0  0  0  0  0
    2.4883    2.2246    0.4546 C   0  0  0  0  0  0  0  0  0  0  0  0
    3.6962    1.5819    0.2763 C   0  0  0  0  0  0  0  0  0  0  0  0
    4.9308    1.9741    0.9752 C   0  0  0  0  0  0  0  0  0  0  0  0
    4.9993    1.5968    2.3309 C   0  0  0  0  0  0  0  0  0  0  0  0
    6.0913    1.8524    3.1106 C   0  0  0  0  0  0  0  0  0  0  0  0
    7.1563    2.5060    2.5056 C   0  0  0  0  0  0  0  0  0  0  0  0
    7.1168    2.8923    1.1756 C   0  0  0  0  0  0  0  0  0  0  0  0
    5.9842    2.6129    0.4139 C   0  0  0  0  0  0  0  0  0  0  0  0
    5.9513    3.1117   -1.2464 S   0  0  0  0  0  6  0  0  0  0  0  0
    5.9592    1.7029   -2.2618 N   0  0  0  0  0  0  0  0  0  0  0  0
    4.6929    3.9252   -1.5178 O   0  0  0  0  0  0  0  0  0  0  0  0
    7.1874    3.8987   -1.5509 O   0  0  0  0  0  0  0  0  0  0  0  0
    3.6811    0.4569   -0.5441 C   0  0  0  0  0  0  0  0  0  0  0  0
    2.5327    0.0001   -1.1514 C   0  0  0  0  0  0  0  0  0  0  0  0
   -3.2490   -1.2040   -1.3462 N   0  0  0  0  0  0  0  0  0  0  0  0
   -3.6501   -1.6150   -0.0469 C   0  0  0  0  0  0  0  0  0  0  0  0
   -4.9997   -1.5834    0.2804 C   0  0  0  0  0  0  0  0  0  0  0  0
   -5.5327   -1.9330    1.5045 C   0  0  0  0  0  0  0  0  0  0  0  0
   -6.9085   -1.8511    1.7244 C   0  0  0  0  0  0  0  0  0  0  0  0
   -7.4221   -2.1986    2.9785 C   0  0  0  0  0  0  0  0  0  0  0  0
   -6.5638   -2.6156    3.9813 C   0  0  0  0  0  0  0  0  0  0  0  0
   -5.2224   -2.6802    3.7156 C   0  0  0  0  0  0  0  0  0  0  0  0
   -4.6688   -2.3429    2.4775 C   0  0  0  0  0  0  0  0  0  0  0  0
   -3.3297   -2.3992    2.2210 C   0  0  0  0  0  0  0  0  0  0  0  0
   -2.7595   -2.0477    0.9672 C   0  0  0  0  0  0  0  0  0  0  0  0
   -1.4495   -2.1356    0.7978 C   0  0  0  0  0  0  0  0  0  0  0  0
   -0.1472   -2.2448    0.6205 N   0  0  0  0  0  0  0  0  0  0  0  0
   -3.9665   -1.6068   -2.4586 N   0  0  0  0  0  0  0  0  0  0  0  0
   -4.9127   -0.7428   -5.0359 H   0  0  0  0  0  0  0  0  0  0  0  0
   -4.3323   -2.4225   -4.9168 H   0  0  0  0  0  0  0  0  0  0  0  0
   -3.2615   -1.2123   -5.7014 H   0  0  0  0  0  0  0  0  0  0  0  0
   -1.6918    0.1877   -3.8433 H   0  0  0  0  0  0  0  0  0  0  0  0
    0.1979   -0.4618   -2.4652 H   0  0  0  0  0  0  0  0  0  0  0  0
    0.3775    2.2933   -0.0272 H   0  0  0  0  0  0  0  0  0  0  0  0
    2.4417    3.0917    1.0648 H   0  0  0  0  0  0  0  0  0  0  0  0
    4.1381    1.0840    2.7764 H   0  0  0  0  0  0  0  0  0  0  0  0
    6.1236    1.5486    4.1688 H   0  0  0  0  0  0  0  0  0  0  0  0
    8.0169    2.6975    3.1401 H   0  0  0  0  0  0  0  0  0  0  0  0
    7.9832    3.4191    0.7386 H   0  0  0  0  0  0  0  0  0  0  0  0
    6.5020    1.9170   -3.1472 H   0  0  0  0  0  0  0  0  0  0  0  0
    6.4532    0.8960   -1.7647 H   0  0  0  0  0  0  0  0  0  0  0  0
    4.6313   -0.0543   -0.6485 H   0  0  0  0  0  0  0  0  0  0  0  0
    2.5153   -0.8619   -1.7811 H   0  0  0  0  0  0  0  0  0  0  0  0
   -5.6791   -1.2594   -0.5125 H   0  0  0  0  0  0  0  0  0  0  0  0
   -7.5685   -1.5329    0.9358 H   0  0  0  0  0  0  0  0  0  0  0  0
   -8.4722   -2.1586    3.2056 H   0  0  0  0  0  0  0  0  0  0  0  0
   -6.9782   -2.8824    4.9716 H   0  0  0  0  0  0  0  0  0  0  0  0
   -4.5394   -2.9944    4.4814 H   0  0  0  0  0  0  0  0  0  0  0  0
   -2.6443   -2.7303    3.0310 H   0  0  0  0  0  0  0  0  0  0  0  0
  1  2  1  0
  2  3  1  0
  3  4  2  0
  4  5  1  0
  5  6  2  0
  5  7  1  0
  7  8  1  0
  8  9  2  0
  9 10  1  0
 10 11  2  0
 11 12  1  0
 12 13  2  0
 13 14  1  0
 14 15  2  0
 15 16  1  0
 16 17  2  0
 17 18  1  0
 18 19  1  0
 18 20  2  0
 18 21  2  0
 11 22  1  0
 22 23  2  0
  4 24  1  0
 24 25  1  0
 25 26  2  0
 26 27  1  0
 27 28  2  0
 28 29  1  0
 29 30  2  0
 30 31  1  0
 31 32  2  0
 32 33  1  0
 33 34  2  0
 34 35  1  0
 35 36  3  0
 24 37  1  0
 37  2  2  0
 23  8  1  0
 34 25  1  0
 17 12  1  0
 32 27  1  0
  1 38  1  0
  1 39  1  0
  1 40  1  0
  3 41  1  0
  7 42  1  0
  9 43  1  0
 10 44  1  0
 13 45  1  0
 14 46  1  0
 15 47  1  0
 16 48  1  0
 19 49  1  0
 19 50  1  0
 22 51  1  0
 23 52  1  0
 26 53  1  0
 28 54  1  0
 29 55  1  0
 30 56  1  0
 31 57  1  0
 33 58  1  0
M  END
$$$$
