
     RDKit          3D

 56 59  0  0  0  0  0  0  0  0999 V2000
   -4.8852    4.9334   -1.4303 F   0  0  0  0  0  0  0  0  0  0  0  0
   -4.3219    3.7707   -1.0288 C   0  0  0  0  0  0  0  0  0  0  0  0
   -3.8131    2.8361   -1.9402 C   0  0  0  0  0  0  0  0  0  0  0  0
   -3.2482    1.6628   -1.4542 C   0  0  0  0  0  0  0  0  0  0  0  0
   -3.1792    1.4029   -0.1007 C   0  0  0  0  0  0  0  0  0  0  0  0
   -3.6684    2.2934    0.8575 C   0  0  0  0  0  0  0  0  0  0  0  0
   -4.2114    3.4283    0.2945 C   0  0  0  0  0  0  0  0  0  0  0  0
   -2.5655    0.1373    0.3811 C   0  0  0  0  0  0  0  0  0  0  0  0
   -1.3785   -0.2078   -0.3391 N   0  0  0  0  0  0  0  0  0  0  0  0
   -0.3343    0.7388   -0.3348 C   0  0  0  0  0  0  0  0  0  0  0  0
    0.9472    0.3671    0.3244 C   0  0  0  0  0  0  0  0  0  0  0  0
    1.3061   -0.9683    0.0630 N   0  0  0  0  0  0  0  0  0  0  0  0
    2.1413   -1.2584   -1.0383 C   0  0  0  0  0  0  0  0  0  0  0  0
    3.5333   -0.7972   -0.8766 C   0  0  0  0  0  0  0  0  0  0  0  0
    4.2076   -0.1810    0.0490 C   0  0  0  0  0  0  0  0  0  0  0  0
    5.6164    0.1883    0.0020 C   0  0  0  0  0  0  0  0  0  0  0  0
    6.4176   -0.1014   -1.0750 C   0  0  0  0  0  0  0  0  0  0  0  0
    7.7464    0.2508   -1.1068 C   0  0  0  0  0  0  0  0  0  0  0  0
    8.2551    0.9111   -0.0123 C   0  0  0  0  0  0  0  0  0  0  0  0
    7.4780    1.2219    1.0953 C   0  0  0  0  0  0  0  0  0  0  0  0
    6.1410    0.8496    1.0899 C   0  0  0  0  0  0  0  0  0  0  0  0
    0.2732   -1.8821    0.3626 C   0  0  0  0  0  0  0  0  0  0  0  0
   -1.0396   -1.5826   -0.3158 C   0  0  0  0  0  0  0  0  0  0  0  0
   -3.5784   -0.9137    0.3686 C   0  0  0  0  0  0  0  0  0  0  0  0
   -4.2440   -1.2693    1.5496 C   0  0  0  0  0  0  0  0  0  0  0  0
   -5.2146   -2.2293    1.7217 C   0  0  0  0  0  0  0  0  0  0  0  0
   -5.5772   -2.9283    0.5924 C   0  0  0  0  0  0  0  0  0  0  0  0
   -6.5286   -3.8782    0.7428 F   0  0  0  0  0  0  0  0  0  0  0  0
   -4.9615   -2.6361   -0.6305 C   0  0  0  0  0  0  0  0  0  0  0  0
   -3.9951   -1.6561   -0.7180 C   0  0  0  0  0  0  0  0  0  0  0  0
   -3.8609    3.0326   -2.9987 H   0  0  0  0  0  0  0  0  0  0  0  0
   -2.8357    0.9017   -2.1153 H   0  0  0  0  0  0  0  0  0  0  0  0
   -3.6439    2.1456    1.9157 H   0  0  0  0  0  0  0  0  0  0  0  0
   -4.6122    4.1623    1.0030 H   0  0  0  0  0  0  0  0  0  0  0  0
   -2.2375    0.2767    1.4525 H   0  0  0  0  0  0  0  0  0  0  0  0
   -0.6840    1.6838    0.1751 H   0  0  0  0  0  0  0  0  0  0  0  0
   -0.1242    1.0423   -1.3980 H   0  0  0  0  0  0  0  0  0  0  0  0
    1.7013    1.1201   -0.0076 H   0  0  0  0  0  0  0  0  0  0  0  0
    0.8022    0.4802    1.4208 H   0  0  0  0  0  0  0  0  0  0  0  0
    1.7289   -0.7579   -1.9667 H   0  0  0  0  0  0  0  0  0  0  0  0
    2.0937   -2.3687   -1.2060 H   0  0  0  0  0  0  0  0  0  0  0  0
    4.0747   -1.0742   -1.7911 H   0  0  0  0  0  0  0  0  0  0  0  0
    3.5894    0.0325    0.8939 H   0  0  0  0  0  0  0  0  0  0  0  0
    6.0437   -0.6123   -1.9357 H   0  0  0  0  0  0  0  0  0  0  0  0
    8.4373    0.0594   -1.9122 H   0  0  0  0  0  0  0  0  0  0  0  0
    9.2896    1.2149    0.0260 H   0  0  0  0  0  0  0  0  0  0  0  0
    7.8720    1.7400    1.9563 H   0  0  0  0  0  0  0  0  0  0  0  0
    5.5529    1.0994    1.9584 H   0  0  0  0  0  0  0  0  0  0  0  0
    0.5933   -2.8985    0.0303 H   0  0  0  0  0  0  0  0  0  0  0  0
    0.1622   -1.9391    1.4672 H   0  0  0  0  0  0  0  0  0  0  0  0
   -1.0821   -1.9942   -1.3394 H   0  0  0  0  0  0  0  0  0  0  0  0
   -1.8102   -2.1234    0.2891 H   0  0  0  0  0  0  0  0  0  0  0  0
   -3.9430   -0.7006    2.4451 H   0  0  0  0  0  0  0  0  0  0  0  0
   -5.6285   -2.3817    2.6982 H   0  0  0  0  0  0  0  0  0  0  0  0
   -5.2841   -3.2156   -1.4867 H   0  0  0  0  0  0  0  0  0  0  0  0
   -3.5135   -1.4278   -1.6754 H   0  0  0  0  0  0  0  0  0  0  0  0
  1  2  1  0
  2  3  2  0
  3  4  1  0
  4  5  2  0
  5  6  1  0
  6  7  2  0
  5  8  1  0
  8  9  1  0
  9 10  1  0
 10 11  1  0
 11 12  1  0
 12 13  1  0
 13 14  1  0
 14 15  2  0
 15 16  1  0
 16 17  2  0
 17 18  1  0
 18 19  2  0
 19 20  1  0
 20 21  2  0
 12 22  1  0
 22 23  1  0
  8 24  1  0
 24 25  2  0
 25 26  1  0
 26 27  2  0
 27 28  1  0
 27 29  1  0
 29 30  2  0
  7  2  1  0
 23  9  1  0
 30 24  1  0
 21 16  1  0
  3 31  1  0
  4 32  1  0
  6 33  1  0
  7 34  1  0
  8 35  1  0
 10 36  1  0
 10 37  1  0
 11 38  1  0
 11 39  1  0
 13 40  1  0
 13 41  1  0
 14 42  1  0
 15 43  1  0
 17 44  1  0
 18 45  1  0
 19 46  1  0
 20 47  1  0
 21 48  1  0
 22 49  1  0
 22 50  1  0
 23 51  1  0
 23 52  1  0
 25 53  1  0
 26 54  1  0
 29 55  1  0
 30 56  1  0
M  END
$$$$
