@<TRIPOS>MOLECULE
*****
 56 59 0 0 0
SMALL
GASTEIGER

@<TRIPOS>ATOM
      1 F          -4.8852    4.9334   -1.4303 F       1  UNL1       -0.2055
      2 C          -4.3219    3.7707   -1.0288 C.ar    1  UNL1        0.1234
      3 C          -3.8131    2.8361   -1.9402 C.ar    1  UNL1       -0.0261
      4 C          -3.2482    1.6628   -1.4542 C.ar    1  UNL1       -0.0540
      5 C          -3.1792    1.4029   -0.1007 C.ar    1  UNL1       -0.0257
      6 C          -3.6684    2.2934    0.8575 C.ar    1  UNL1       -0.0540
      7 C          -4.2114    3.4283    0.2945 C.ar    1  UNL1       -0.0261
      8 C          -2.5655    0.1373    0.3811 C.3     1  UNL1        0.0610
      9 N          -1.3785   -0.2078   -0.3391 N.3     1  UNL1       -0.2891
     10 C          -0.3343    0.7388   -0.3348 C.3     1  UNL1        0.0126
     11 C           0.9472    0.3671    0.3244 C.3     1  UNL1        0.0121
     12 N           1.3061   -0.9683    0.0630 N.3     1  UNL1       -0.2963
     13 C           2.1413   -1.2584   -1.0383 C.3     1  UNL1        0.0175
     14 C           3.5333   -0.7972   -0.8766 C.2     1  UNL1       -0.0695
     15 C           4.2076   -0.1810    0.0490 C.2     1  UNL1       -0.0573
     16 C           5.6164    0.1883    0.0020 C.ar    1  UNL1       -0.0253
     17 C           6.4176   -0.1014   -1.0750 C.ar    1  UNL1       -0.0546
     18 C           7.7464    0.2508   -1.1068 C.ar    1  UNL1       -0.0612
     19 C           8.2551    0.9111   -0.0123 C.ar    1  UNL1       -0.0617
     20 C           7.4780    1.2219    1.0953 C.ar    1  UNL1       -0.0612
     21 C           6.1410    0.8496    1.0899 C.ar    1  UNL1       -0.0546
     22 C           0.2732   -1.8821    0.3626 C.3     1  UNL1        0.0121
     23 C          -1.0396   -1.5826   -0.3158 C.3     1  UNL1        0.0126
     24 C          -3.5784   -0.9137    0.3686 C.ar    1  UNL1       -0.0257
     25 C          -4.2440   -1.2693    1.5496 C.ar    1  UNL1       -0.0540
     26 C          -5.2146   -2.2293    1.7217 C.ar    1  UNL1       -0.0261
     27 C          -5.5772   -2.9283    0.5924 C.ar    1  UNL1        0.1234
     28 F          -6.5286   -3.8782    0.7428 F       1  UNL1       -0.2055
     29 C          -4.9615   -2.6361   -0.6305 C.ar    1  UNL1       -0.0261
     30 C          -3.9951   -1.6561   -0.7180 C.ar    1  UNL1       -0.0540
     31 H          -3.8609    3.0326   -2.9987 H       1  UNL1        0.0646
     32 H          -2.8357    0.9017   -2.1153 H       1  UNL1        0.0622
     33 H          -3.6439    2.1456    1.9157 H       1  UNL1        0.0622
     34 H          -4.6122    4.1623    1.0030 H       1  UNL1        0.0646
     35 H          -2.2375    0.2767    1.4525 H       1  UNL1        0.0562
     36 H          -0.6840    1.6838    0.1751 H       1  UNL1        0.0439
     37 H          -0.1242    1.0423   -1.3980 H       1  UNL1        0.0439
     38 H           1.7013    1.1201   -0.0076 H       1  UNL1        0.0439
     39 H           0.8022    0.4802    1.4208 H       1  UNL1        0.0439
     40 H           1.7289   -0.7579   -1.9667 H       1  UNL1        0.0470
     41 H           2.0937   -2.3687   -1.2060 H       1  UNL1        0.0470
     42 H           4.0747   -1.0742   -1.7911 H       1  UNL1        0.0585
     43 H           3.5894    0.0325    0.8939 H       1  UNL1        0.0621
     44 H           6.0437   -0.6123   -1.9357 H       1  UNL1        0.0623
     45 H           8.4373    0.0594   -1.9122 H       1  UNL1        0.0618
     46 H           9.2896    1.2149    0.0260 H       1  UNL1        0.0618
     47 H           7.8720    1.7400    1.9563 H       1  UNL1        0.0618
     48 H           5.5529    1.0994    1.9584 H       1  UNL1        0.0623
     49 H           0.5933   -2.8985    0.0303 H       1  UNL1        0.0439
     50 H           0.1622   -1.9391    1.4672 H       1  UNL1        0.0439
     51 H          -1.0821   -1.9942   -1.3394 H       1  UNL1        0.0439
     52 H          -1.8102   -2.1234    0.2891 H       1  UNL1        0.0439
     53 H          -3.9430   -0.7006    2.4451 H       1  UNL1        0.0622
     54 H          -5.6285   -2.3817    2.6982 H       1  UNL1        0.0646
     55 H          -5.2841   -3.2156   -1.4867 H       1  UNL1        0.0646
     56 H          -3.5135   -1.4278   -1.6754 H       1  UNL1        0.0622
@<TRIPOS>BOND
     1     1     2    1
     2     2     3   ar
     3     3     4   ar
     4     4     5   ar
     5     5     6   ar
     6     6     7   ar
     7     5     8    1
     8     8     9    1
     9     9    10    1
    10    10    11    1
    11    11    12    1
    12    12    13    1
    13    13    14    1
    14    14    15    2
    15    15    16    1
    16    16    17   ar
    17    17    18   ar
    18    18    19   ar
    19    19    20   ar
    20    20    21   ar
    21    12    22    1
    22    22    23    1
    23     8    24    1
    24    24    25   ar
    25    25    26   ar
    26    26    27   ar
    27    27    28    1
    28    27    29   ar
    29    29    30   ar
    30     7     2   ar
    31    23     9    1
    32    30    24   ar
    33    21    16   ar
    34     3    31    1
    35     4    32    1
    36     6    33    1
    37     7    34    1
    38     8    35    1
    39    10    36    1
    40    10    37    1
    41    11    38    1
    42    11    39    1
    43    13    40    1
    44    13    41    1
    45    14    42    1
    46    15    43    1
    47    17    44    1
    48    18    45    1
    49    19    46    1
    50    20    47    1
    51    21    48    1
    52    22    49    1
    53    22    50    1
    54    23    51    1
    55    23    52    1
    56    25    53    1
    57    26    54    1
    58    29    55    1
    59    30    56    1
