
     RDKit          3D

 37 39  0  0  0  0  0  0  0  0999 V2000
    0.0088   -2.2177   -0.1073 O   0  0  0  0  0  0  0  0  0  0  0  0
   -0.0581   -0.7540    0.3023 S   0  0  0  0  0  0  0  0  0  0  0  0
   -0.1572   -0.7615    1.8025 O   0  0  0  0  0  0  0  0  0  0  0  0
   -1.4347   -0.0862   -0.3459 N   0  0  0  0  0  0  0  0  0  0  0  0
   -1.7708    1.2377   -0.0347 C   0  0  0  0  0  0  0  0  0  0  0  0
   -2.9666    1.4764    0.8093 C   0  0  0  0  0  0  0  0  0  0  0  0
   -4.0909    0.5224    0.7009 C   0  0  0  0  0  0  0  0  0  0  0  0
   -3.7328   -0.8237    0.3504 N   0  0  0  0  0  0  0  0  0  0  0  0
   -3.5025   -1.0141   -1.0512 C   0  0  0  0  0  0  0  0  0  0  0  0
   -2.0661   -0.7196   -1.4362 C   0  0  0  0  0  0  0  0  0  0  0  0
    1.4455    0.0073   -0.1213 C   0  0  0  0  0  0  0  0  0  0  0  0
    1.5133    1.1067   -0.9487 C   0  0  0  0  0  0  0  0  0  0  0  0
    2.6860    1.7469   -1.3143 C   0  0  0  0  0  0  0  0  0  0  0  0
    3.8850    1.2747   -0.8330 C   0  0  0  0  0  0  0  0  0  0  0  0
    3.8505    0.1695    0.0023 C   0  0  0  0  0  0  0  0  0  0  0  0
    2.6479   -0.4535    0.3517 C   0  0  0  0  0  0  0  0  0  0  0  0
    2.7062   -1.5619    1.1989 C   0  0  0  0  0  0  0  0  0  0  0  0
    3.9277   -2.0304    1.6797 C   0  0  0  0  0  0  0  0  0  0  0  0
    5.0817   -1.4185    1.3337 N   0  0  0  0  0  0  0  0  0  0  0  0
    5.0112   -0.3429    0.5101 C   0  0  0  0  0  0  0  0  0  0  0  0
   -0.8901    1.6995    0.4972 H   0  0  0  0  0  0  0  0  0  0  0  0
   -1.8108    1.8146   -1.0052 H   0  0  0  0  0  0  0  0  0  0  0  0
   -3.3781    2.4795    0.4877 H   0  0  0  0  0  0  0  0  0  0  0  0
   -2.6713    1.6715    1.8787 H   0  0  0  0  0  0  0  0  0  0  0  0
   -4.8874    0.8422   -0.0242 H   0  0  0  0  0  0  0  0  0  0  0  0
   -4.6016    0.4784    1.6897 H   0  0  0  0  0  0  0  0  0  0  0  0
   -2.9965   -1.2188    0.9659 H   0  0  0  0  0  0  0  0  0  0  0  0
   -3.7171   -2.0693   -1.2929 H   0  0  0  0  0  0  0  0  0  0  0  0
   -4.2195   -0.3879   -1.6111 H   0  0  0  0  0  0  0  0  0  0  0  0
   -2.1004   -0.1079   -2.3804 H   0  0  0  0  0  0  0  0  0  0  0  0
   -1.5105   -1.6472   -1.6754 H   0  0  0  0  0  0  0  0  0  0  0  0
    0.6118    1.5368   -1.3676 H   0  0  0  0  0  0  0  0  0  0  0  0
    2.7030    2.6024   -1.9619 H   0  0  0  0  0  0  0  0  0  0  0  0
    4.8100    1.7450   -1.0950 H   0  0  0  0  0  0  0  0  0  0  0  0
    1.8017   -2.0566    1.4815 H   0  0  0  0  0  0  0  0  0  0  0  0
    3.9370   -2.8940    2.3361 H   0  0  0  0  0  0  0  0  0  0  0  0
    5.9356    0.1539    0.2279 H   0  0  0  0  0  0  0  0  0  0  0  0
  1  2  2  0
  2  3  2  0
  2  4  1  0
  4  5  1  0
  5  6  1  0
  6  7  1  0
  7  8  1  0
  8  9  1  0
  9 10  1  0
  2 11  1  0
 11 12  2  0
 12 13  1  0
 13 14  2  0
 14 15  1  0
 15 16  2  0
 16 17  1  0
 17 18  2  0
 18 19  1  0
 19 20  2  0
 10  4  1  0
 16 11  1  0
 20 15  1  0
  5 21  1  0
  5 22  1  0
  6 23  1  0
  6 24  1  0
  7 25  1  0
  7 26  1  0
  8 27  1  0
  9 28  1  0
  9 29  1  0
 10 30  1  0
 10 31  1  0
 12 32  1  0
 13 33  1  0
 14 34  1  0
 17 35  1  0
 18 36  1  0
 20 37  1  0
M  END
$$$$
