@<TRIPOS>MOLECULE
*****
 57 61 0 0 0
SMALL
GASTEIGER

@<TRIPOS>ATOM
      1 C          -7.7452   -0.0025   -2.3718 C.3     1  UNL1       -0.0361
      2 C          -6.6891   -0.6301   -1.5373 C.ar    1  UNL1       -0.0049
      3 C          -6.9985   -1.7537   -0.8013 C.ar    1  UNL1       -0.0552
      4 C          -6.0293   -2.3631   -0.0103 C.ar    1  UNL1       -0.0606
      5 C          -4.7428   -1.8544    0.0513 C.ar    1  UNL1       -0.0473
      6 C          -4.4155   -0.7335   -0.6765 C.ar    1  UNL1        0.0662
      7 C          -3.2481   -0.0129   -0.8148 C.ar    1  UNL1        0.1922
      8 N          -1.9824   -0.2399   -0.2085 N.ar    1  UNL1       -0.2413
      9 C          -1.1077   -1.2477   -0.4828 C.ar    1  UNL1        0.3362
     10 O          -1.3101   -2.1485   -1.3431 O.2     1  UNL1       -0.2459
     11 N          -0.0087   -1.1402    0.2915 N.ar    1  UNL1       -0.2873
     12 C           1.1551   -2.0230    0.3058 C.3     1  UNL1        0.0533
     13 C           2.1969   -1.5943   -0.6711 C.ar    1  UNL1       -0.0241
     14 C           2.1787   -2.0166   -1.9836 C.ar    1  UNL1       -0.0553
     15 C           3.1404   -1.6265   -2.8924 C.ar    1  UNL1       -0.0395
     16 C           4.1659   -0.7939   -2.5267 C.ar    1  UNL1        0.0826
     17 CL          5.4191   -0.2575   -3.6215 Cl      1  UNL1       -0.0798
     18 C           4.2121   -0.3464   -1.1961 C.ar    1  UNL1        0.1402
     19 O           5.2447    0.4861   -0.8465 O.3     1  UNL1       -0.4765
     20 C           5.4140    1.0038    0.4316 C.3     1  UNL1        0.1931
     21 C           5.2948    2.5345    0.2743 C.3     1  UNL1       -0.0172
     22 C           6.7803    0.7372    0.9731 C.2     1  UNL1        0.3456
     23 O           7.0616    1.1529    2.1195 O.2     1  UNL1       -0.2468
     24 O           7.7270    0.0535    0.2506 O.3     1  UNL1       -0.4781
     25 C           3.2399   -0.7495   -0.3052 C.ar    1  UNL1       -0.0136
     26 C          -0.1693   -0.0611    1.0706 C.ar    1  UNL1        0.0712
     27 C           0.5787    0.5642    2.0508 C.ar    1  UNL1       -0.0244
     28 C           0.1081    1.7068    2.6901 C.ar    1  UNL1        0.0569
     29 C           0.9241    2.3669    3.7412 C.3     1  UNL1        0.4175
     30 F           2.1481    1.7778    3.8811 F       1  UNL1       -0.1659
     31 F           0.1885    2.3248    4.9132 F       1  UNL1       -0.1659
     32 F           1.1419    3.7044    3.3851 F       1  UNL1       -0.1659
     33 C          -1.1179    2.2384    2.3563 C.ar    1  UNL1       -0.0480
     34 C          -1.8847    1.6256    1.3749 C.ar    1  UNL1       -0.0351
     35 C          -1.3787    0.4863    0.7606 C.ar    1  UNL1        0.0766
     36 N          -3.5612    0.9779   -1.6657 N.ar    1  UNL1       -0.0587
     37 O          -4.8081    0.8858   -2.0262 O.2     1  UNL1       -0.3523
     38 C          -5.4051   -0.1327   -1.4680 C.ar    1  UNL1        0.1722
     39 H          -7.3365    0.5501   -3.2351 H       1  UNL1        0.0279
     40 H          -8.2396    0.7614   -1.7114 H       1  UNL1        0.0279
     41 H          -8.4962   -0.7394   -2.7211 H       1  UNL1        0.0279
     42 H          -8.0018   -2.1547   -0.8461 H       1  UNL1        0.0621
     43 H          -6.2486   -3.2521    0.5808 H       1  UNL1        0.0618
     44 H          -3.9762   -2.3167    0.6621 H       1  UNL1        0.0626
     45 H           1.6369   -2.0283    1.3004 H       1  UNL1        0.0543
     46 H           0.8143   -3.0726    0.1014 H       1  UNL1        0.0543
     47 H           1.3799   -2.6719   -2.2903 H       1  UNL1        0.0621
     48 H           3.1336   -1.9539   -3.9262 H       1  UNL1        0.0633
     49 H           4.6907    0.7351    1.1924 H       1  UNL1        0.0849
     50 H           5.2680    3.0190    1.2550 H       1  UNL1        0.0271
     51 H           4.4244    2.7618   -0.3701 H       1  UNL1        0.0271
     52 H           6.2094    2.8154   -0.3162 H       1  UNL1        0.0271
     53 H           8.6333   -0.1901    0.6565 H       1  UNL1        0.2952
     54 H           3.2283   -0.4354    0.7355 H       1  UNL1        0.0658
     55 H           1.5326    0.1344    2.3015 H       1  UNL1        0.0644
     56 H          -1.5196    3.1154    2.8215 H       1  UNL1        0.0624
     57 H          -2.8502    2.0237    1.0953 H       1  UNL1        0.0639
@<TRIPOS>BOND
     1     1     2    1
     2     2     3   ar
     3     3     4   ar
     4     4     5   ar
     5     5     6   ar
     6     6     7   ar
     7     7     8    1
     8     8     9   ar
     9     9    10    2
    10     9    11   ar
    11    11    12    1
    12    12    13    1
    13    13    14   ar
    14    14    15   ar
    15    15    16   ar
    16    16    17    1
    17    16    18   ar
    18    18    19    1
    19    19    20    1
    20    20    21    1
    21    20    22    1
    22    22    23    2
    23    22    24    1
    24    18    25   ar
    25    11    26   ar
    26    26    27   ar
    27    27    28   ar
    28    28    29    1
    29    29    30    1
    30    29    31    1
    31    29    32    1
    32    28    33   ar
    33    33    34   ar
    34    34    35   ar
    35     7    36   ar
    36    36    37   ar
    37    37    38   ar
    38    38     2   ar
    39    38     6   ar
    40    35     8   ar
    41    25    13   ar
    42    35    26   ar
    43     1    39    1
    44     1    40    1
    45     1    41    1
    46     3    42    1
    47     4    43    1
    48     5    44    1
    49    12    45    1
    50    12    46    1
    51    14    47    1
    52    15    48    1
    53    20    49    1
    54    21    50    1
    55    21    51    1
    56    21    52    1
    57    24    53    1
    58    25    54    1
    59    27    55    1
    60    33    56    1
    61    34    57    1
