
     RDKit          3D

 62 65  0  0  0  0  0  0  0  0999 V2000
   -3.3979    5.8460    0.2621 C   0  0  0  0  0  0  0  0  0  0  0  0
   -4.3127    4.9547   -0.3384 O   0  0  0  0  0  0  0  0  0  0  0  0
   -4.0745    3.5997   -0.3499 C   0  0  0  0  0  0  0  0  0  0  0  0
   -4.9334    2.6933   -0.9192 C   0  0  0  0  0  0  0  0  0  0  0  0
   -4.6790    1.3408   -0.9219 C   0  0  0  0  0  0  0  0  0  0  0  0
   -3.5290    0.8474   -0.3402 C   0  0  0  0  0  0  0  0  0  0  0  0
   -3.3282   -0.5741   -0.2695 C   0  0  0  0  0  0  0  0  0  0  0  0
   -4.4050   -1.2299    0.0086 O   0  0  0  0  0  0  0  0  0  0  0  0
   -2.1351   -1.2945   -0.4611 N   0  0  0  0  0  0  0  0  0  0  0  0
   -0.9267   -0.9003   -0.9456 C   0  0  0  0  0  0  0  0  0  0  0  0
   -0.6007    0.4023   -1.5673 C   0  0  0  0  0  0  0  0  0  0  0  0
   -0.0082   -1.9234   -0.8601 C   0  0  0  0  0  0  0  0  0  0  0  0
    1.4019   -1.9053   -1.2680 C   0  0  0  0  0  0  0  0  0  0  0  0
    2.2642   -1.1699   -0.3121 C   0  0  0  0  0  0  0  0  0  0  0  0
    2.7446   -1.8438    0.7877 C   0  0  0  0  0  0  0  0  0  0  0  0
    3.5550   -1.2081    1.7058 C   0  0  0  0  0  0  0  0  0  0  0  0
    3.9152    0.1181    1.5621 C   0  0  0  0  0  0  0  0  0  0  0  0
    3.4370    0.7964    0.4632 C   0  0  0  0  0  0  0  0  0  0  0  0
    3.7352    2.1026    0.2331 O   0  0  0  0  0  0  0  0  0  0  0  0
    4.5112    2.9779    0.9778 C   0  0  0  0  0  0  0  0  0  0  0  0
    3.6290    4.1529    1.3965 C   0  0  0  0  0  0  0  0  0  0  0  0
    5.7120    3.4593    0.2485 C   0  0  0  0  0  0  0  0  0  0  0  0
    6.5295    4.2542    0.7541 O   0  0  0  0  0  0  0  0  0  0  0  0
    5.9294    3.0071   -1.0389 O   0  0  0  0  0  0  0  0  0  0  0  0
    2.6151    0.1369   -0.4601 C   0  0  0  0  0  0  0  0  0  0  0  0
   -0.6927   -2.9773   -0.3047 C   0  0  0  0  0  0  0  0  0  0  0  0
   -0.3225   -4.2799    0.0322 C   0  0  0  0  0  0  0  0  0  0  0  0
   -1.1707   -5.2013    0.5897 C   0  0  0  0  0  0  0  0  0  0  0  0
   -0.7292   -6.5022    0.9048 O   0  0  0  0  0  0  0  0  0  0  0  0
   -0.8766   -7.4656   -0.1330 C   0  0  0  0  0  0  0  0  0  0  0  0
   -0.4033   -8.6551    0.3402 F   0  0  0  0  0  0  0  0  0  0  0  0
   -0.1723   -7.0858   -1.2591 F   0  0  0  0  0  0  0  0  0  0  0  0
   -2.1860   -7.6305   -0.5113 F   0  0  0  0  0  0  0  0  0  0  0  0
   -2.4641   -4.8100    0.8286 C   0  0  0  0  0  0  0  0  0  0  0  0
   -2.8759   -3.5053    0.5032 C   0  0  0  0  0  0  0  0  0  0  0  0
   -1.9980   -2.6033   -0.0566 C   0  0  0  0  0  0  0  0  0  0  0  0
   -2.6522    1.7278    0.2375 C   0  0  0  0  0  0  0  0  0  0  0  0
   -2.9315    3.0895    0.2268 C   0  0  0  0  0  0  0  0  0  0  0  0
   -3.8171    6.8738    0.3080 H   0  0  0  0  0  0  0  0  0  0  0  0
   -2.3946    5.8252   -0.1942 H   0  0  0  0  0  0  0  0  0  0  0  0
   -3.3016    5.5302    1.3386 H   0  0  0  0  0  0  0  0  0  0  0  0
   -5.8361    3.0959   -1.3734 H   0  0  0  0  0  0  0  0  0  0  0  0
   -5.4095    0.6675   -1.3956 H   0  0  0  0  0  0  0  0  0  0  0  0
   -0.1079    1.1256   -0.9154 H   0  0  0  0  0  0  0  0  0  0  0  0
    0.1721    0.2113   -2.3870 H   0  0  0  0  0  0  0  0  0  0  0  0
   -1.4792    0.7912   -2.1198 H   0  0  0  0  0  0  0  0  0  0  0  0
    1.4489   -1.3622   -2.2561 H   0  0  0  0  0  0  0  0  0  0  0  0
    1.8014   -2.9162   -1.4962 H   0  0  0  0  0  0  0  0  0  0  0  0
    2.4693   -2.8979    0.9196 H   0  0  0  0  0  0  0  0  0  0  0  0
    3.9045   -1.7895    2.5536 H   0  0  0  0  0  0  0  0  0  0  0  0
    4.5518    0.5696    2.3077 H   0  0  0  0  0  0  0  0  0  0  0  0
    4.8969    2.5205    1.9208 H   0  0  0  0  0  0  0  0  0  0  0  0
    2.5599    3.9519    1.1790 H   0  0  0  0  0  0  0  0  0  0  0  0
    3.7195    4.3832    2.4625 H   0  0  0  0  0  0  0  0  0  0  0  0
    3.8949    5.0414    0.7548 H   0  0  0  0  0  0  0  0  0  0  0  0
    6.8000    3.0342   -1.5156 H   0  0  0  0  0  0  0  0  0  0  0  0
    2.2589    0.6953   -1.3127 H   0  0  0  0  0  0  0  0  0  0  0  0
    0.7024   -4.5452   -0.1726 H   0  0  0  0  0  0  0  0  0  0  0  0
   -3.1459   -5.5161    1.2649 H   0  0  0  0  0  0  0  0  0  0  0  0
   -3.8876   -3.2622    0.7133 H   0  0  0  0  0  0  0  0  0  0  0  0
   -1.7409    1.4494    0.7458 H   0  0  0  0  0  0  0  0  0  0  0  0
   -2.2340    3.7815    0.6847 H   0  0  0  0  0  0  0  0  0  0  0  0
  1  2  1  0
  2  3  1  0
  3  4  2  0
  4  5  1  0
  5  6  2  0
  6  7  1  0
  7  8  2  0
  7  9  1  0
  9 10  1  0
 10 11  1  0
 10 12  2  0
 12 13  1  0
 13 14  1  0
 14 15  2  0
 15 16  1  0
 16 17  2  0
 17 18  1  0
 18 19  1  0
 19 20  1  0
 20 21  1  0
 20 22  1  0
 22 23  2  0
 22 24  1  0
 18 25  2  0
 12 26  1  0
 26 27  2  0
 27 28  1  0
 28 29  1  0
 29 30  1  0
 30 31  1  0
 30 32  1  0
 30 33  1  0
 28 34  2  0
 34 35  1  0
 35 36  2  0
  6 37  1  0
 37 38  2  0
 38  3  1  0
 36  9  1  0
 25 14  1  0
 36 26  1  0
  1 39  1  0
  1 40  1  0
  1 41  1  0
  4 42  1  0
  5 43  1  0
 11 44  1  0
 11 45  1  0
 11 46  1  0
 13 47  1  0
 13 48  1  0
 15 49  1  0
 16 50  1  0
 17 51  1  0
 20 52  1  0
 21 53  1  0
 21 54  1  0
 21 55  1  0
 24 56  1  0
 25 57  1  0
 27 58  1  0
 34 59  1  0
 35 60  1  0
 37 61  1  0
 38 62  1  0
M  END
$$$$
