@<TRIPOS>MOLECULE
*****
 62 65 0 0 0
SMALL
GASTEIGER

@<TRIPOS>ATOM
      1 C          -3.3979    5.8460    0.2621 C.3     1  UNL1        0.0788
      2 O          -4.3127    4.9547   -0.3384 O.3     1  UNL1       -0.4951
      3 C          -4.0745    3.5997   -0.3499 C.ar    1  UNL1        0.1201
      4 C          -4.9334    2.6933   -0.9192 C.ar    1  UNL1       -0.0192
      5 C          -4.6790    1.3408   -0.9219 C.ar    1  UNL1       -0.0460
      6 C          -3.5290    0.8474   -0.3402 C.ar    1  UNL1        0.0401
      7 C          -3.3282   -0.5741   -0.2695 C.2     1  UNL1        0.2631
      8 O          -4.4050   -1.2299    0.0086 O.2     1  UNL1       -0.2667
      9 N          -2.1351   -1.2945   -0.4611 N.ar    1  UNL1       -0.2801
     10 C          -0.9267   -0.9003   -0.9456 C.ar    1  UNL1        0.0282
     11 C          -0.6007    0.4023   -1.5673 C.3     1  UNL1       -0.0235
     12 C          -0.0082   -1.9234   -0.8601 C.ar    1  UNL1       -0.0143
     13 C           1.4019   -1.9053   -1.2680 C.3     1  UNL1       -0.0000
     14 C           2.2642   -1.1699   -0.3121 C.ar    1  UNL1       -0.0395
     15 C           2.7446   -1.8438    0.7877 C.ar    1  UNL1       -0.0580
     16 C           3.5550   -1.2081    1.7058 C.ar    1  UNL1       -0.0580
     17 C           3.9152    0.1181    1.5621 C.ar    1  UNL1       -0.0199
     18 C           3.4370    0.7964    0.4632 C.ar    1  UNL1        0.1220
     19 O           3.7352    2.1026    0.2331 O.3     1  UNL1       -0.4779
     20 C           4.5112    2.9779    0.9778 C.3     1  UNL1        0.1931
     21 C           3.6290    4.1529    1.3965 C.3     1  UNL1       -0.0172
     22 C           5.7120    3.4593    0.2485 C.2     1  UNL1        0.3456
     23 O           6.5295    4.2542    0.7541 O.2     1  UNL1       -0.2468
     24 O           5.9294    3.0071   -1.0389 O.3     1  UNL1       -0.4781
     25 C           2.6151    0.1369   -0.4601 C.ar    1  UNL1       -0.0164
     26 C          -0.6927   -2.9773   -0.3047 C.ar    1  UNL1        0.0075
     27 C          -0.3225   -4.2799    0.0322 C.ar    1  UNL1       -0.0102
     28 C          -1.1707   -5.2013    0.5897 C.ar    1  UNL1        0.1307
     29 O          -0.7292   -6.5022    0.9048 O.3     1  UNL1       -0.4057
     30 C          -0.8766   -7.4656   -0.1330 C.3     1  UNL1        0.5752
     31 F          -0.4033   -8.6551    0.3402 F       1  UNL1       -0.1328
     32 F          -0.1723   -7.0858   -1.2591 F       1  UNL1       -0.1328
     33 F          -2.1860   -7.6305   -0.5113 F       1  UNL1       -0.1328
     34 C          -2.4641   -4.8100    0.8286 C.ar    1  UNL1       -0.0176
     35 C          -2.8759   -3.5053    0.5032 C.ar    1  UNL1       -0.0337
     36 C          -1.9980   -2.6033   -0.0566 C.ar    1  UNL1        0.0574
     37 C          -2.6522    1.7278    0.2375 C.ar    1  UNL1       -0.0460
     38 C          -2.9315    3.0895    0.2268 C.ar    1  UNL1       -0.0192
     39 H          -3.8171    6.8738    0.3080 H       1  UNL1        0.0660
     40 H          -2.3946    5.8252   -0.1942 H       1  UNL1        0.0660
     41 H          -3.3016    5.5302    1.3386 H       1  UNL1        0.0660
     42 H          -5.8361    3.0959   -1.3734 H       1  UNL1        0.0654
     43 H          -5.4095    0.6675   -1.3956 H       1  UNL1        0.0626
     44 H          -0.1079    1.1256   -0.9154 H       1  UNL1        0.0292
     45 H           0.1721    0.2113   -2.3870 H       1  UNL1        0.0292
     46 H          -1.4792    0.7912   -2.1198 H       1  UNL1        0.0292
     47 H           1.4489   -1.3622   -2.2561 H       1  UNL1        0.0362
     48 H           1.8014   -2.9162   -1.4962 H       1  UNL1        0.0362
     49 H           2.4693   -2.8979    0.9196 H       1  UNL1        0.0620
     50 H           3.9045   -1.7895    2.5536 H       1  UNL1        0.0619
     51 H           4.5518    0.5696    2.3077 H       1  UNL1        0.0654
     52 H           4.8969    2.5205    1.9208 H       1  UNL1        0.0849
     53 H           2.5599    3.9519    1.1790 H       1  UNL1        0.0271
     54 H           3.7195    4.3832    2.4625 H       1  UNL1        0.0271
     55 H           3.8949    5.0414    0.7548 H       1  UNL1        0.0271
     56 H           6.8000    3.0342   -1.5156 H       1  UNL1        0.2952
     57 H           2.2589    0.6953   -1.3127 H       1  UNL1        0.0657
     58 H           0.7024   -4.5452   -0.1726 H       1  UNL1        0.0661
     59 H          -3.1459   -5.5161    1.2649 H       1  UNL1        0.0655
     60 H          -3.8876   -3.2622    0.7133 H       1  UNL1        0.0640
     61 H          -1.7409    1.4494    0.7458 H       1  UNL1        0.0626
     62 H          -2.2340    3.7815    0.6847 H       1  UNL1        0.0654
@<TRIPOS>BOND
     1     1     2    1
     2     2     3    1
     3     3     4   ar
     4     4     5   ar
     5     5     6   ar
     6     6     7    1
     7     7     8    2
     8     7     9   am
     9     9    10   ar
    10    10    11    1
    11    10    12   ar
    12    12    13    1
    13    13    14    1
    14    14    15   ar
    15    15    16   ar
    16    16    17   ar
    17    17    18   ar
    18    18    19    1
    19    19    20    1
    20    20    21    1
    21    20    22    1
    22    22    23    2
    23    22    24    1
    24    18    25   ar
    25    12    26   ar
    26    26    27   ar
    27    27    28   ar
    28    28    29    1
    29    29    30    1
    30    30    31    1
    31    30    32    1
    32    30    33    1
    33    28    34   ar
    34    34    35   ar
    35    35    36   ar
    36     6    37   ar
    37    37    38   ar
    38    38     3   ar
    39    36     9   ar
    40    25    14   ar
    41    36    26   ar
    42     1    39    1
    43     1    40    1
    44     1    41    1
    45     4    42    1
    46     5    43    1
    47    11    44    1
    48    11    45    1
    49    11    46    1
    50    13    47    1
    51    13    48    1
    52    15    49    1
    53    16    50    1
    54    17    51    1
    55    20    52    1
    56    21    53    1
    57    21    54    1
    58    21    55    1
    59    24    56    1
    60    25    57    1
    61    27    58    1
    62    34    59    1
    63    35    60    1
    64    37    61    1
    65    38    62    1
