@<TRIPOS>MOLECULE
*****
 59 63 0 0 0
SMALL
GASTEIGER

@<TRIPOS>ATOM
      1 O           2.5791   -4.1103    0.0915 O.2     1  UNL1       -0.2817
      2 C           2.6130   -2.9212   -0.3112 C.2     1  UNL1        0.2496
      3 C           3.6754   -2.2624   -1.0484 C.2     1  UNL1        0.2916
      4 O           4.7792   -2.7808   -1.4239 O.2     1  UNL1       -0.2661
      5 N           3.2710   -0.9311   -1.2814 N.am    1  UNL1       -0.2582
      6 C           4.0501    0.0860   -1.9947 C.3     1  UNL1        0.0656
      7 C           4.9199    0.8476   -1.0636 C.ar    1  UNL1        0.1004
      8 C           6.2139    0.6143   -0.6558 C.ar    1  UNL1        0.0503
      9 N           6.5744    1.5861    0.2009 N.ar    1  UNL1       -0.2489
     10 C           7.8506    1.7001    0.8492 C.3     1  UNL1        0.0714
     11 C           8.7665    2.5293   -0.0366 C.3     1  UNL1        0.1096
     12 F           8.1778    3.7616   -0.1907 F       1  UNL1       -0.2472
     13 N           5.5284    2.4137    0.3290 N.ar    1  UNL1       -0.0653
     14 N           4.5381    1.9688   -0.4298 N.ar    1  UNL1       -0.1329
     15 C           1.9852   -0.7628   -0.7027 C.ar    1  UNL1        0.0482
     16 C           1.1541    0.3654   -0.6594 C.ar    1  UNL1       -0.0377
     17 C          -0.0608    0.2747   -0.0312 C.ar    1  UNL1       -0.0335
     18 C          -0.5144   -0.8879    0.5697 C.ar    1  UNL1        0.1063
     19 S          -2.0746   -0.9346    1.3615 S.O2    1  UNL1        0.0612
     20 O          -2.3535    0.4211    1.9299 O.2     1  UNL1       -0.1528
     21 O          -2.0096   -1.9145    2.4944 O.2     1  UNL1       -0.1528
     22 N          -3.2690   -1.3174    0.2080 N.3     1  UNL1       -0.1703
     23 C          -2.9671   -2.6387   -0.3305 C.3     1  UNL1        0.0210
     24 C          -3.5903   -3.6199    0.6394 C.3     1  UNL1       -0.0370
     25 C          -4.5275   -2.7805    1.4825 C.3     1  UNL1       -0.0313
     26 C          -4.5790   -1.4941    0.7507 C.3     1  UNL1        0.0659
     27 C          -5.1050   -0.3176    1.5422 C.3     1  UNL1        0.1068
     28 O          -5.2047    0.7785    0.8458 O.3     1  UNL1       -0.4888
     29 C          -5.2404    1.8592    0.1461 C.ar    1  UNL1        0.1386
     30 C          -6.4215    2.5818   -0.0770 C.ar    1  UNL1       -0.0170
     31 C          -6.4150    3.7073   -0.8151 C.ar    1  UNL1       -0.0401
     32 C          -5.2508    4.1794   -1.3703 C.ar    1  UNL1        0.0278
     33 N          -4.1328    3.4809   -1.1496 N.ar    1  UNL1       -0.2596
     34 C          -4.0731    2.3649   -0.4319 C.ar    1  UNL1        0.0692
     35 C           0.3201   -1.9705    0.5099 C.ar    1  UNL1       -0.0226
     36 C           1.5687   -1.9284   -0.1191 C.ar    1  UNL1        0.0502
     37 H           4.6805   -0.4734   -2.7458 H       1  UNL1        0.0534
     38 H           3.3742    0.7225   -2.5808 H       1  UNL1        0.0534
     39 H           6.8151   -0.2283   -0.9924 H       1  UNL1        0.0846
     40 H           7.7479    2.2188    1.8260 H       1  UNL1        0.0535
     41 H           8.3318    0.7315    1.0610 H       1  UNL1        0.0535
     42 H           8.8261    2.0290   -1.0108 H       1  UNL1        0.0633
     43 H           9.7446    2.6275    0.4714 H       1  UNL1        0.0633
     44 H           1.5261    1.2730   -1.1373 H       1  UNL1        0.0637
     45 H          -0.6842    1.1528   -0.0090 H       1  UNL1        0.0638
     46 H          -3.4618   -2.6974   -1.3404 H       1  UNL1        0.0444
     47 H          -1.8968   -2.8219   -0.4251 H       1  UNL1        0.0444
     48 H          -2.8392   -4.1553    1.2460 H       1  UNL1        0.0279
     49 H          -4.1982   -4.3384    0.0757 H       1  UNL1        0.0279
     50 H          -4.1959   -2.7122    2.5397 H       1  UNL1        0.0282
     51 H          -5.5484   -3.2450    1.5091 H       1  UNL1        0.0282
     52 H          -5.2785   -1.6171   -0.1167 H       1  UNL1        0.0513
     53 H          -6.1467   -0.6691    1.8748 H       1  UNL1        0.0713
     54 H          -4.5692   -0.2478    2.5362 H       1  UNL1        0.0713
     55 H          -7.3633    2.2111    0.3649 H       1  UNL1        0.0655
     56 H          -7.3297    4.2826   -0.9981 H       1  UNL1        0.0634
     57 H          -5.2349    5.0945   -1.9725 H       1  UNL1        0.0829
     58 H          -3.1217    1.8282   -0.2835 H       1  UNL1        0.0867
     59 H           0.0458   -2.9138    0.9545 H       1  UNL1        0.0645
@<TRIPOS>BOND
     1     1     2    2
     2     2     3    1
     3     3     4    2
     4     3     5   am
     5     5     6    1
     6     6     7    1
     7     7     8   ar
     8     8     9   ar
     9     9    10    1
    10    10    11    1
    11    11    12    1
    12     9    13   ar
    13    13    14   ar
    14     5    15    1
    15    15    16   ar
    16    16    17   ar
    17    17    18   ar
    18    18    19    1
    19    19    20    2
    20    19    21    2
    21    19    22    1
    22    22    23    1
    23    23    24    1
    24    24    25    1
    25    25    26    1
    26    26    27    1
    27    27    28    1
    28    28    29    1
    29    29    30   ar
    30    30    31   ar
    31    31    32   ar
    32    32    33   ar
    33    33    34   ar
    34    18    35   ar
    35    35    36   ar
    36    36     2    1
    37    14     7   ar
    38    36    15   ar
    39    26    22    1
    40    34    29   ar
    41     6    37    1
    42     6    38    1
    43     8    39    1
    44    10    40    1
    45    10    41    1
    46    11    42    1
    47    11    43    1
    48    16    44    1
    49    17    45    1
    50    23    46    1
    51    23    47    1
    52    24    48    1
    53    24    49    1
    54    25    50    1
    55    25    51    1
    56    26    52    1
    57    27    53    1
    58    27    54    1
    59    30    55    1
    60    31    56    1
    61    32    57    1
    62    34    58    1
    63    35    59    1
