
     RDKit          3D

 59 63  0  0  0  0  0  0  0  0999 V2000
    2.5791   -4.1103    0.0915 O   0  0  0  0  0  0  0  0  0  0  0  0
    2.6130   -2.9212   -0.3112 C   0  0  0  0  0  0  0  0  0  0  0  0
    3.6754   -2.2624   -1.0484 C   0  0  0  0  0  0  0  0  0  0  0  0
    4.7792   -2.7808   -1.4239 O   0  0  0  0  0  0  0  0  0  0  0  0
    3.2710   -0.9311   -1.2814 N   0  0  0  0  0  0  0  0  0  0  0  0
    4.0501    0.0860   -1.9947 C   0  0  0  0  0  0  0  0  0  0  0  0
    4.9199    0.8476   -1.0636 C   0  0  0  0  0  0  0  0  0  0  0  0
    6.2139    0.6143   -0.6558 C   0  0  0  0  0  0  0  0  0  0  0  0
    6.5744    1.5861    0.2009 N   0  0  0  0  0  0  0  0  0  0  0  0
    7.8506    1.7001    0.8492 C   0  0  0  0  0  0  0  0  0  0  0  0
    8.7665    2.5293   -0.0366 C   0  0  0  0  0  0  0  0  0  0  0  0
    8.1778    3.7616   -0.1907 F   0  0  0  0  0  0  0  0  0  0  0  0
    5.5284    2.4137    0.3290 N   0  0  0  0  0  0  0  0  0  0  0  0
    4.5381    1.9688   -0.4298 N   0  0  0  0  0  0  0  0  0  0  0  0
    1.9852   -0.7628   -0.7027 C   0  0  0  0  0  0  0  0  0  0  0  0
    1.1541    0.3654   -0.6594 C   0  0  0  0  0  0  0  0  0  0  0  0
   -0.0608    0.2747   -0.0312 C   0  0  0  0  0  0  0  0  0  0  0  0
   -0.5144   -0.8879    0.5697 C   0  0  0  0  0  0  0  0  0  0  0  0
   -2.0746   -0.9346    1.3615 S   0  0  0  0  0  6  0  0  0  0  0  0
   -2.3535    0.4211    1.9299 O   0  0  0  0  0  0  0  0  0  0  0  0
   -2.0096   -1.9145    2.4944 O   0  0  0  0  0  0  0  0  0  0  0  0
   -3.2690   -1.3174    0.2080 N   0  0  0  0  0  0  0  0  0  0  0  0
   -2.9671   -2.6387   -0.3305 C   0  0  0  0  0  0  0  0  0  0  0  0
   -3.5903   -3.6199    0.6394 C   0  0  0  0  0  0  0  0  0  0  0  0
   -4.5275   -2.7805    1.4825 C   0  0  0  0  0  0  0  0  0  0  0  0
   -4.5790   -1.4941    0.7507 C   0  0  1  0  0  0  0  0  0  0  0  0
   -5.1050   -0.3176    1.5422 C   0  0  0  0  0  0  0  0  0  0  0  0
   -5.2047    0.7785    0.8458 O   0  0  0  0  0  0  0  0  0  0  0  0
   -5.2404    1.8592    0.1461 C   0  0  0  0  0  0  0  0  0  0  0  0
   -6.4215    2.5818   -0.0770 C   0  0  0  0  0  0  0  0  0  0  0  0
   -6.4150    3.7073   -0.8151 C   0  0  0  0  0  0  0  0  0  0  0  0
   -5.2508    4.1794   -1.3703 C   0  0  0  0  0  0  0  0  0  0  0  0
   -4.1328    3.4809   -1.1496 N   0  0  0  0  0  0  0  0  0  0  0  0
   -4.0731    2.3649   -0.4319 C   0  0  0  0  0  0  0  0  0  0  0  0
    0.3201   -1.9705    0.5099 C   0  0  0  0  0  0  0  0  0  0  0  0
    1.5687   -1.9284   -0.1191 C   0  0  0  0  0  0  0  0  0  0  0  0
    4.6805   -0.4734   -2.7458 H   0  0  0  0  0  0  0  0  0  0  0  0
    3.3742    0.7225   -2.5808 H   0  0  0  0  0  0  0  0  0  0  0  0
    6.8151   -0.2283   -0.9924 H   0  0  0  0  0  0  0  0  0  0  0  0
    7.7479    2.2188    1.8260 H   0  0  0  0  0  0  0  0  0  0  0  0
    8.3318    0.7315    1.0610 H   0  0  0  0  0  0  0  0  0  0  0  0
    8.8261    2.0290   -1.0108 H   0  0  0  0  0  0  0  0  0  0  0  0
    9.7446    2.6275    0.4714 H   0  0  0  0  0  0  0  0  0  0  0  0
    1.5261    1.2730   -1.1373 H   0  0  0  0  0  0  0  0  0  0  0  0
   -0.6842    1.1528   -0.0090 H   0  0  0  0  0  0  0  0  0  0  0  0
   -3.4618   -2.6974   -1.3404 H   0  0  0  0  0  0  0  0  0  0  0  0
   -1.8968   -2.8219   -0.4251 H   0  0  0  0  0  0  0  0  0  0  0  0
   -2.8392   -4.1553    1.2460 H   0  0  0  0  0  0  0  0  0  0  0  0
   -4.1982   -4.3384    0.0757 H   0  0  0  0  0  0  0  0  0  0  0  0
   -4.1959   -2.7122    2.5397 H   0  0  0  0  0  0  0  0  0  0  0  0
   -5.5484   -3.2450    1.5091 H   0  0  0  0  0  0  0  0  0  0  0  0
   -5.2785   -1.6171   -0.1167 H   0  0  0  0  0  0  0  0  0  0  0  0
   -6.1467   -0.6691    1.8748 H   0  0  0  0  0  0  0  0  0  0  0  0
   -4.5692   -0.2478    2.5362 H   0  0  0  0  0  0  0  0  0  0  0  0
   -7.3633    2.2111    0.3649 H   0  0  0  0  0  0  0  0  0  0  0  0
   -7.3297    4.2826   -0.9981 H   0  0  0  0  0  0  0  0  0  0  0  0
   -5.2349    5.0945   -1.9725 H   0  0  0  0  0  0  0  0  0  0  0  0
   -3.1217    1.8282   -0.2835 H   0  0  0  0  0  0  0  0  0  0  0  0
    0.0458   -2.9138    0.9545 H   0  0  0  0  0  0  0  0  0  0  0  0
  1  2  2  0
  2  3  1  0
  3  4  2  0
  3  5  1  0
  5  6  1  0
  6  7  1  0
  7  8  2  0
  8  9  1  0
  9 10  1  0
 10 11  1  0
 11 12  1  0
  9 13  1  0
 13 14  2  0
  5 15  1  0
 15 16  2  0
 16 17  1  0
 17 18  2  0
 18 19  1  0
 19 20  2  0
 19 21  2  0
 19 22  1  0
 22 23  1  0
 23 24  1  0
 24 25  1  0
 25 26  1  0
 26 27  1  0
 27 28  1  0
 28 29  1  0
 29 30  2  0
 30 31  1  0
 31 32  2  0
 32 33  1  0
 33 34  2  0
 18 35  1  0
 35 36  2  0
 36  2  1  0
 14  7  1  0
 36 15  1  0
 26 22  1  0
 34 29  1  0
  6 37  1  0
  6 38  1  0
  8 39  1  0
 10 40  1  0
 10 41  1  0
 11 42  1  0
 11 43  1  0
 16 44  1  0
 17 45  1  0
 23 46  1  0
 23 47  1  0
 24 48  1  0
 24 49  1  0
 25 50  1  0
 25 51  1  0
 26 52  1  6
 27 53  1  0
 27 54  1  0
 30 55  1  0
 31 56  1  0
 32 57  1  0
 34 58  1  0
 35 59  1  0
M  END
$$$$
