@<TRIPOS>MOLECULE
*****
 39 40 0 0 0
SMALL
GASTEIGER

@<TRIPOS>ATOM
      1 C          -4.6705   -2.9586    0.3861 C.3     1  UNL1        0.0790
      2 O          -4.5186   -1.5330    0.3642 O.3     1  UNL1       -0.4913
      3 C          -3.2200   -1.0057    0.2730 C.ar    1  UNL1        0.1652
      4 C          -2.1195   -1.8181    0.2061 C.ar    1  UNL1       -0.0155
      5 C          -0.8681   -1.2463    0.1176 C.ar    1  UNL1       -0.0474
      6 C          -0.6459    0.1077    0.0915 C.ar    1  UNL1        0.0207
      7 C           0.6815    0.6856   -0.0021 C.2     1  UNL1       -0.0473
      8 C           1.8144    0.0191   -0.0725 C.2     1  UNL1       -0.0136
      9 C           3.1091    0.6816   -0.1646 C.2     1  UNL1        0.1875
     10 O           3.1255    1.9340   -0.1761 O.2     1  UNL1       -0.2872
     11 C           4.3646   -0.0405   -0.2427 C.ar    1  UNL1        0.0397
     12 C           5.5507    0.6875   -0.3282 C.ar    1  UNL1       -0.0480
     13 C           6.7464    0.0518   -0.4030 C.ar    1  UNL1       -0.0429
     14 C           6.7812   -1.3228   -0.3939 C.ar    1  UNL1        0.0276
     15 N           5.6570   -2.0295   -0.3127 N.ar    1  UNL1       -0.2626
     16 C           4.4482   -1.4215   -0.2368 C.ar    1  UNL1        0.0383
     17 C          -1.7795    0.9170    0.1607 C.ar    1  UNL1        0.1723
     18 O          -1.6895    2.2902    0.1433 O.3     1  UNL1       -0.4907
     19 C          -1.5597    3.0973    1.2918 C.3     1  UNL1        0.0790
     20 C          -3.0311    0.3536    0.2491 C.ar    1  UNL1        0.2041
     21 O          -4.1613    1.1548    0.3181 O.3     1  UNL1       -0.4885
     22 C          -4.8840    1.6028   -0.7977 C.3     1  UNL1        0.0791
     23 H          -4.1701   -3.3329    1.3088 H       1  UNL1        0.0660
     24 H          -4.0868   -3.4126   -0.4679 H       1  UNL1        0.0660
     25 H          -5.7227   -3.2393    0.3198 H       1  UNL1        0.0660
     26 H          -2.2345   -2.9114    0.2229 H       1  UNL1        0.0655
     27 H          -0.0027   -1.9262    0.0653 H       1  UNL1        0.0626
     28 H           0.8034    1.7826   -0.0194 H       1  UNL1        0.0626
     29 H           1.7759   -1.0478   -0.0610 H       1  UNL1        0.0656
     30 H           5.5097    1.7545   -0.3343 H       1  UNL1        0.0626
     31 H           7.7073    0.5844   -0.4717 H       1  UNL1        0.0633
     32 H           7.7313   -1.8320   -0.4533 H       1  UNL1        0.0829
     33 H           3.5349   -1.9987   -0.1709 H       1  UNL1        0.0837
     34 H          -2.4750    3.7553    1.3097 H       1  UNL1        0.0660
     35 H          -0.7040    3.7811    1.1054 H       1  UNL1        0.0660
     36 H          -1.4425    2.5368    2.2223 H       1  UNL1        0.0660
     37 H          -4.2884    1.6343   -1.7141 H       1  UNL1        0.0660
     38 H          -5.2443    2.6463   -0.5646 H       1  UNL1        0.0660
     39 H          -5.8224    1.0185   -0.9626 H       1  UNL1        0.0660
@<TRIPOS>BOND
     1     1     2    1
     2     2     3    1
     3     3     4   ar
     4     4     5   ar
     5     5     6   ar
     6     6     7    1
     7     7     8    2
     8     8     9    1
     9     9    10    2
    10     9    11    1
    11    11    12   ar
    12    12    13   ar
    13    13    14   ar
    14    14    15   ar
    15    15    16   ar
    16     6    17   ar
    17    17    18    1
    18    18    19    1
    19    17    20   ar
    20    20    21    1
    21    21    22    1
    22    20     3   ar
    23    16    11   ar
    24     1    23    1
    25     1    24    1
    26     1    25    1
    27     4    26    1
    28     5    27    1
    29     7    28    1
    30     8    29    1
    31    12    30    1
    32    13    31    1
    33    14    32    1
    34    16    33    1
    35    19    34    1
    36    19    35    1
    37    19    36    1
    38    22    37    1
    39    22    38    1
    40    22    39    1
