
     RDKit          3D

 39 40  0  0  0  0  0  0  0  0999 V2000
   -4.6705   -2.9586    0.3861 C   0  0  0  0  0  0  0  0  0  0  0  0
   -4.5186   -1.5330    0.3642 O   0  0  0  0  0  0  0  0  0  0  0  0
   -3.2200   -1.0057    0.2730 C   0  0  0  0  0  0  0  0  0  0  0  0
   -2.1195   -1.8181    0.2061 C   0  0  0  0  0  0  0  0  0  0  0  0
   -0.8681   -1.2463    0.1176 C   0  0  0  0  0  0  0  0  0  0  0  0
   -0.6459    0.1077    0.0915 C   0  0  0  0  0  0  0  0  0  0  0  0
    0.6815    0.6856   -0.0021 C   0  0  0  0  0  0  0  0  0  0  0  0
    1.8144    0.0191   -0.0725 C   0  0  0  0  0  0  0  0  0  0  0  0
    3.1091    0.6816   -0.1646 C   0  0  0  0  0  0  0  0  0  0  0  0
    3.1255    1.9340   -0.1761 O   0  0  0  0  0  0  0  0  0  0  0  0
    4.3646   -0.0405   -0.2427 C   0  0  0  0  0  0  0  0  0  0  0  0
    5.5507    0.6875   -0.3282 C   0  0  0  0  0  0  0  0  0  0  0  0
    6.7464    0.0518   -0.4030 C   0  0  0  0  0  0  0  0  0  0  0  0
    6.7812   -1.3228   -0.3939 C   0  0  0  0  0  0  0  0  0  0  0  0
    5.6570   -2.0295   -0.3127 N   0  0  0  0  0  0  0  0  0  0  0  0
    4.4482   -1.4215   -0.2368 C   0  0  0  0  0  0  0  0  0  0  0  0
   -1.7795    0.9170    0.1607 C   0  0  0  0  0  0  0  0  0  0  0  0
   -1.6895    2.2902    0.1433 O   0  0  0  0  0  0  0  0  0  0  0  0
   -1.5597    3.0973    1.2918 C   0  0  0  0  0  0  0  0  0  0  0  0
   -3.0311    0.3536    0.2491 C   0  0  0  0  0  0  0  0  0  0  0  0
   -4.1613    1.1548    0.3181 O   0  0  0  0  0  0  0  0  0  0  0  0
   -4.8840    1.6028   -0.7977 C   0  0  0  0  0  0  0  0  0  0  0  0
   -4.1701   -3.3329    1.3088 H   0  0  0  0  0  0  0  0  0  0  0  0
   -4.0868   -3.4126   -0.4679 H   0  0  0  0  0  0  0  0  0  0  0  0
   -5.7227   -3.2393    0.3198 H   0  0  0  0  0  0  0  0  0  0  0  0
   -2.2345   -2.9114    0.2229 H   0  0  0  0  0  0  0  0  0  0  0  0
   -0.0027   -1.9262    0.0653 H   0  0  0  0  0  0  0  0  0  0  0  0
    0.8034    1.7826   -0.0194 H   0  0  0  0  0  0  0  0  0  0  0  0
    1.7759   -1.0478   -0.0610 H   0  0  0  0  0  0  0  0  0  0  0  0
    5.5097    1.7545   -0.3343 H   0  0  0  0  0  0  0  0  0  0  0  0
    7.7073    0.5844   -0.4717 H   0  0  0  0  0  0  0  0  0  0  0  0
    7.7313   -1.8320   -0.4533 H   0  0  0  0  0  0  0  0  0  0  0  0
    3.5349   -1.9987   -0.1709 H   0  0  0  0  0  0  0  0  0  0  0  0
   -2.4750    3.7553    1.3097 H   0  0  0  0  0  0  0  0  0  0  0  0
   -0.7040    3.7811    1.1054 H   0  0  0  0  0  0  0  0  0  0  0  0
   -1.4425    2.5368    2.2223 H   0  0  0  0  0  0  0  0  0  0  0  0
   -4.2884    1.6343   -1.7141 H   0  0  0  0  0  0  0  0  0  0  0  0
   -5.2443    2.6463   -0.5646 H   0  0  0  0  0  0  0  0  0  0  0  0
   -5.8224    1.0185   -0.9626 H   0  0  0  0  0  0  0  0  0  0  0  0
  1  2  1  0
  2  3  1  0
  3  4  2  0
  4  5  1  0
  5  6  2  0
  6  7  1  0
  7  8  2  0
  8  9  1  0
  9 10  2  0
  9 11  1  0
 11 12  2  0
 12 13  1  0
 13 14  2  0
 14 15  1  0
 15 16  2  0
  6 17  1  0
 17 18  1  0
 18 19  1  0
 17 20  2  0
 20 21  1  0
 21 22  1  0
 20  3  1  0
 16 11  1  0
  1 23  1  0
  1 24  1  0
  1 25  1  0
  4 26  1  0
  5 27  1  0
  7 28  1  0
  8 29  1  0
 12 30  1  0
 13 31  1  0
 14 32  1  0
 16 33  1  0
 19 34  1  0
 19 35  1  0
 19 36  1  0
 22 37  1  0
 22 38  1  0
 22 39  1  0
M  END
$$$$
