@<TRIPOS>MOLECULE
*****
 218 228 0 0 0
SMALL
GASTEIGER

@<TRIPOS>ATOM
      1 C          14.2310   -5.3178   -0.5405 C.3     0  UNK0       -0.0151
      2 N          14.3868   -4.8220    0.7900 N.3     1  ALA1       -0.3089
      3 CA         14.2746   -3.4073    0.9577 C.3     1  ALA1        0.0817
      4 CB         15.3672   -2.7229    0.1571 C.3     1  ALA1       -0.0412
      5 C          12.9327   -2.8718    0.5481 C.2     1  ALA1        0.2304
      6 O          12.1276   -3.7228    0.1319 O.2     1  ALA1       -0.2741
      7 N          12.6231   -1.5175    0.6311 N.am    2  UNK2       -0.3022
      8 C          11.2911   -0.9985    0.2218 C.3     2  UNK2        0.1045
      9 C          10.2320   -1.7520    0.8193 C.2     2  UNK2        0.2371
     10 O          10.6489   -2.5852    1.7566 O.2     2  UNK2       -0.2735
     11 N           8.8413   -1.8335    0.6658 N.am    3  UNK3       -0.2863
     12 C           8.0481   -2.7170    1.5546 C.3     3  UNK3        0.0380
     13 C           7.1613   -3.3511    0.5408 C.3     3  UNK3        0.0722
     14 C           6.7135   -2.1653   -0.2615 C.3     3  UNK3       -0.0017
     15 C           7.8980   -1.2041   -0.2293 C.3     3  UNK3        0.1043
     16 C           7.5234    0.1111    0.3344 C.2     3  UNK3        0.2342
     17 O           7.4096    0.0891    1.6555 O.2     3  UNK3       -0.2738
     18 N           7.2502    1.3821   -0.1393 N.am    4  UNK4       -0.3022
     19 C           6.5403    2.4145    0.6718 C.3     4  UNK4        0.1034
     20 C           7.4393    3.1353    1.5830 C.3     4  UNK4       -0.0006
     21 C           8.5643    3.8251    0.8458 C.ar    4  UNK4       -0.0445
     22 C           9.7231    3.1330    0.6077 C.ar    4  UNK4       -0.0579
     23 C          10.7733    3.7272   -0.0461 C.ar    4  UNK4       -0.0538
     24 C          10.7179    5.0297   -0.4920 C.ar    4  UNK4       -0.0179
     25 C          11.7686    5.6519   -1.1525 C.ar    4  UNK4       -0.0540
     26 C          11.7060    6.9608   -1.5874 C.ar    4  UNK4       -0.0612
     27 C          10.5352    7.6426   -1.3388 C.ar    4  UNK4       -0.0612
     28 C           9.4831    7.0356   -0.6844 C.ar    4  UNK4       -0.0540
     29 C           9.5289    5.7318   -0.2415 C.ar    4  UNK4       -0.0176
     30 C           8.4796    5.1294    0.4150 C.ar    4  UNK4       -0.0508
     31 C           5.6389    3.1470   -0.1944 C.2     4  UNK4        0.2343
     32 O           4.5540    2.4643   -0.4884 O.2     4  UNK4       -0.2738
     33 N           5.5970    4.3949   -0.8177 N.am    5  UNK5       -0.3006
     34 C           4.4346    5.2684   -0.6935 C.3     5  UNK5        0.1242
     35 C           4.7351    6.6932   -0.9615 C.2     5  UNK5        0.3256
     36 O           5.8506    7.1463   -1.2764 O.2     5  UNK5       -0.2489
     37 O           3.6938    7.5886   -0.8553 O.3     5  UNK5       -0.4793
     38 C           3.7066    5.1364    0.6277 C.3     5  UNK5        0.0012
     39 C           2.2395    5.4306    0.5571 C.ar    5  UNK5       -0.0449
     40 C           1.6805    6.6021    1.0062 C.ar    5  UNK5       -0.0550
     41 C           0.2801    6.8271    0.9278 C.ar    5  UNK5       -0.0197
     42 C          -0.5708    5.8993    0.4076 C.ar    5  UNK5        0.1205
     43 C          -0.0190    4.7417   -0.0411 C.ar    5  UNK5       -0.0197
     44 C           1.3871    4.4955    0.0280 C.ar    5  UNK5       -0.0550
     45 O          -1.9528    6.1245    0.3366 O.3     5  UNK5       -0.4920
     46 C          -2.9045    5.8143    1.3061 C.3     5  UNK5        0.0896
     47 C          -3.1126    4.3238    1.4866 C.3     5  UNK5       -0.0186
     48 C          -3.7086    3.7144    0.2341 C.3     5  UNK5       -0.0497
     49 C          -4.2752    2.3415    0.5659 C.3     5  UNK5       -0.0486
     50 C          -5.5642    2.2243   -0.2308 C.3     5  UNK5       -0.0230
     51 C          -5.6153    0.8721   -0.9615 C.3     5  UNK5       -0.0215
     52 C          -7.0728    0.7409   -1.2351 C.3     5  UNK5        0.1025
     53 C          -7.5944   -0.6403   -1.1811 C.2     5  UNK5        0.2342
     54 O          -8.7568   -0.7502   -0.6438 O.2     5  UNK5       -0.2738
     55 N          -7.0780   -1.8717   -1.5925 N.am    5  UNK5       -0.3022
     56 C          -6.7442   -3.0057   -0.7421 C.3     5  UNK5        0.1034
     57 C          -7.6081   -4.2258   -1.1005 C.3     5  UNK5       -0.0006
     58 C          -9.0386   -3.9912   -0.9199 C.ar    5  UNK5       -0.0445
     59 C          -9.8115   -3.4427   -1.9027 C.ar    5  UNK5       -0.0579
     60 C         -11.1941   -3.2394   -1.6818 C.ar    5  UNK5       -0.0538
     61 C         -11.7659   -3.5818   -0.5086 C.ar    5  UNK5       -0.0179
     62 C         -13.1334   -3.3870   -0.2429 C.ar    5  UNK5       -0.0540
     63 C         -13.7326   -3.7206    0.9427 C.ar    5  UNK5       -0.0612
     64 C         -12.9579   -4.2712    1.9221 C.ar    5  UNK5       -0.0612
     65 C         -11.6041   -4.4766    1.6815 C.ar    5  UNK5       -0.0540
     66 C         -10.9986   -4.1415    0.4901 C.ar    5  UNK5       -0.0176
     67 C          -9.6308   -4.3433    0.2740 C.ar    5  UNK5       -0.0508
     68 C          -5.2947   -3.3253   -0.7388 C.2     5  UNK5        0.2349
     69 O          -4.7009   -2.9791    0.3657 O.2     5  UNK5       -0.2737
     70 N          -4.4291   -3.9164   -1.6588 N.am    5  UNK5       -0.2967
     71 C          -3.3273   -4.7916   -1.1831 C.3     5  UNK5        0.0971
     72 N          -3.6363   -5.5494   -0.0289 N.3     5  UNK5       -0.1739
     73 S          -3.3257   -7.2387   -0.1678 S.O2    5  UNK5        0.0338
     74 O          -3.5339   -7.8993    1.2005 O.2     5  UNK5       -0.1579
     75 O          -1.8557   -7.4697   -0.4853 O.2     5  UNK5       -0.1579
     76 C          -4.2649   -8.0546   -1.4085 C.3     5  UNK5        0.0929
     77 C          -5.7853   -7.9323   -1.2421 C.3     5  UNK5       -0.0275
     78 C          -5.0320   -7.4064   -2.4560 C.3     5  UNK5       -0.0275
     79 C          -2.1290   -3.8429   -0.9616 C.3     5  UNK5        0.0056
     80 C          -1.0032   -4.4770   -0.2166 C.ar    5  UNK5       -0.0441
     81 C          -1.0292   -4.6536    1.1465 C.ar    5  UNK5       -0.0550
     82 C           0.0834   -5.2474    1.8205 C.ar    5  UNK5       -0.0197
     83 C           1.2065   -5.6650    1.1822 C.ar    5  UNK5        0.1211
     84 C           1.2119   -5.4811   -0.1838 C.ar    5  UNK5       -0.0197
     85 C           0.1223   -4.8960   -0.8774 C.ar    5  UNK5       -0.0550
     86 O           2.2947   -6.2409    1.8314 O.3     5  UNK5       -0.4858
     87 C           3.2449   -5.7153    2.6999 C.3     5  UNK5        0.1346
     88 C           4.4274   -5.2264    1.9449 C.ar    5  UNK5        0.1199
     89 C           5.0547   -4.0180    1.8217 C.ar    5  UNK5        0.0524
     90 N           6.0993   -4.2166    1.0281 N.ar    3  UNK3       -0.2467
     91 N           6.1306   -5.5379    0.6522 N.ar    3  UNK3       -0.0650
     92 N           5.1453   -6.1591    1.1861 N.ar    5  UNK5       -0.1310
     93 N          -7.7854    1.6330   -0.3021 N.am    5  UNK5       -0.2881
     94 C          -9.1470    1.9558   -0.4572 C.2     5  UNK5        0.2370
     95 O          -9.7882    1.4972   -1.4736 O.2     5  UNK5       -0.2735
     96 C          -9.9371    2.8010    0.4694 C.3     5  UNK5        0.1045
     97 N         -11.1136    3.2385   -0.3328 N.am    5  UNK5       -0.3022
     98 C         -12.0871    4.1598    0.0129 C.2     5  UNK5        0.2304
     99 O         -12.1201    4.7582    1.0939 O.2     5  UNK5       -0.2741
    100 C         -13.1739    4.4367   -1.0126 C.3     5  UNK5        0.0817
    101 C         -12.5710    5.3691   -2.0895 C.3     5  UNK5       -0.0412
    102 N         -14.2635    5.0815   -0.3744 N.3     5  UNK5       -0.3089
    103 C         -15.3252    5.4344   -1.2724 C.3     5  UNK5       -0.0151
    104 C         -10.4832    1.9403    1.6332 C.3     5  UNK5       -0.0108
    105 C          -9.3427    1.1781    2.3171 C.3     5  UNK5       -0.0579
    106 C         -10.9315    2.9009    2.7802 C.3     5  UNK5       -0.0579
    107 C         -11.5777    1.0206    1.2495 C.3     5  UNK5       -0.0579
    108 C          -6.7820    2.0687    0.6488 C.3     5  UNK5        0.0184
    109 C          11.4173   -0.6668   -1.1894 C.3     2  UNK2       -0.0108
    110 C          11.7049   -1.7813   -2.1452 C.3     2  UNK2       -0.0579
    111 C          10.4921    0.3276   -1.8101 C.3     2  UNK2       -0.0579
    112 C          12.8086    0.1382   -1.2773 C.3     2  UNK2       -0.0579
    113 H          13.2154   -5.6607   -0.7911 H       0  UNK0        0.0388
    114 H          14.8858   -6.2413   -0.6252 H       0  UNK0        0.0388
    115 H          14.6004   -4.6429   -1.3405 H       0  UNK0        0.0388
    116 H          13.7900   -5.3725    1.4366 H       1  ALA1        0.1223
    117 HA         14.4197   -3.1409    2.0192 H       1  ALA1        0.0553
    118 HB1        15.4922   -1.6726    0.4445 H       1  ALA1        0.0249
    119 HB2        16.2925   -3.3370    0.2753 H       1  ALA1        0.0249
    120 HB3        15.0758   -2.7174   -0.9327 H       1  ALA1        0.0249
    121 H          13.3697   -0.8551    0.9991 H       2  UNK2        0.1495
    122 H          11.2772    0.0139    0.7931 H       2  UNK2        0.0600
    123 H           8.6862   -3.4304    2.0956 H       3  UNK3        0.0486
    124 H           7.5050   -2.1379    2.3201 H       3  UNK3        0.0486
    125 H           7.8732   -3.8795   -0.1548 H       3  UNK3        0.0562
    126 H           5.9043   -1.6552    0.3121 H       3  UNK3        0.0309
    127 H           6.3902   -2.3903   -1.2817 H       3  UNK3        0.0309
    128 H           8.3064   -1.2459   -1.2342 H       3  UNK3        0.0597
    129 H           7.4765    1.8397   -1.0366 H       4  UNK4        0.1495
    130 H           5.8856    1.7718    1.3630 H       4  UNK4        0.0598
    131 H           6.8925    3.9467    2.1231 H       4  UNK4        0.0336
    132 H           7.9539    2.4708    2.3033 H       4  UNK4        0.0336
    133 H           9.8158    2.1222    0.9396 H       4  UNK4        0.0620
    134 H          11.7143    3.1813   -0.2429 H       4  UNK4        0.0624
    135 H          12.6716    5.0595   -1.3267 H       4  UNK4        0.0624
    136 H          12.5414    7.4202   -2.0959 H       4  UNK4        0.0618
    137 H          10.5051    8.6860   -1.7076 H       4  UNK4        0.0618
    138 H           8.5749    7.6159   -0.5156 H       4  UNK4        0.0624
    139 H           7.5779    5.7163    0.5940 H       4  UNK4        0.0626
    140 H           6.3086    4.8495   -1.4311 H       5  UNK5        0.1496
    141 H           3.6550    4.9937   -1.4642 H       5  UNK5        0.0618
    142 H           3.7894    8.5522   -0.5588 H       5  UNK5        0.2951
    143 H           4.3416    5.7704    1.2965 H       5  UNK5        0.0337
    144 H           3.9660    4.1445    1.1387 H       5  UNK5        0.0337
    145 H           2.1541    7.5281    1.4657 H       5  UNK5        0.0621
    146 H           0.0266    7.8590    1.3185 H       5  UNK5        0.0654
    147 H          -0.5383    3.8641   -0.5298 H       5  UNK5        0.0654
    148 H           1.5385    3.4722   -0.4330 H       5  UNK5        0.0621
    149 H          -3.8816    6.2049    0.9268 H       5  UNK5        0.0696
    150 H          -2.7509    6.3463    2.2676 H       5  UNK5        0.0696
    151 H          -2.1788    3.7647    1.6725 H       5  UNK5        0.0298
    152 H          -3.7659    4.1322    2.3690 H       5  UNK5        0.0298
    153 H          -4.4806    4.3937   -0.2096 H       5  UNK5        0.0266
    154 H          -2.9345    3.5799   -0.5445 H       5  UNK5        0.0266
    155 H          -3.5316    1.5807    0.2936 H       5  UNK5        0.0268
    156 H          -4.5359    2.3608    1.6516 H       5  UNK5        0.0268
    157 H          -5.7091    3.0313   -0.9364 H       5  UNK5        0.0317
    158 H          -4.9631    0.9716   -1.8546 H       5  UNK5        0.0291
    159 H          -5.2882    0.1351   -0.2309 H       5  UNK5        0.0291
    160 H          -7.2406    1.2480   -2.2393 H       5  UNK5        0.0597
    161 H          -6.8777   -2.1802   -2.6020 H       5  UNK5        0.1495
    162 H          -7.0273   -2.8240    0.3262 H       5  UNK5        0.0598
    163 H          -7.3323   -4.5427   -2.1444 H       5  UNK5        0.0336
    164 H          -7.2173   -5.0434   -0.4362 H       5  UNK5        0.0336
    165 H          -9.4137   -3.1482   -2.8584 H       5  UNK5        0.0620
    166 H         -11.7775   -2.7965   -2.4700 H       5  UNK5        0.0624
    167 H         -13.7371   -2.9494   -1.0213 H       5  UNK5        0.0624
    168 H         -14.8011   -3.5575    1.0983 H       5  UNK5        0.0618
    169 H         -13.4165   -4.5415    2.8616 H       5  UNK5        0.0618
    170 H         -10.9897   -4.9151    2.4541 H       5  UNK5        0.0624
    171 H          -9.0097   -4.7763    1.0344 H       5  UNK5        0.0626
    172 H          -4.3581   -3.8501   -2.6952 H       5  UNK5        0.1503
    173 H          -2.9897   -5.4647   -1.9816 H       5  UNK5        0.0686
    174 H          -4.6240   -5.3715    0.2652 H       5  UNK5        0.1497
    175 H          -4.0162   -9.1591   -1.5695 H       5  UNK5        0.0551
    176 H          -6.4325   -8.8023   -1.3596 H       5  UNK5        0.0285
    177 H          -6.1371   -7.1980   -0.4929 H       5  UNK5        0.0285
    178 H          -5.1191   -6.3335   -2.6413 H       5  UNK5        0.0285
    179 H          -5.2642   -8.0042   -3.3929 H       5  UNK5        0.0285
    180 H          -2.6095   -2.9357   -0.5091 H       5  UNK5        0.0345
    181 H          -1.8933   -3.3625   -1.9554 H       5  UNK5        0.0345
    182 H          -1.8217   -4.4307    1.9267 H       5  UNK5        0.0621
    183 H          -0.1612   -5.3258    2.9318 H       5  UNK5        0.0654
    184 H           2.0400   -5.7609   -0.8893 H       5  UNK5        0.0654
    185 H           0.4117   -4.9094   -1.9732 H       5  UNK5        0.0621
    186 H           3.5683   -6.6694    3.2989 H       5  UNK5        0.0764
    187 H           2.8375   -5.1293    3.5132 H       5  UNK5        0.0764
    188 H           4.7302   -3.0121    2.3045 H       5  UNK5        0.0846
    189 H          -9.5112    3.6538    0.9346 H       5  UNK5        0.0600
    190 H         -11.2065    2.7835   -1.3216 H       5  UNK5        0.1495
    191 H         -13.3953    3.4864   -1.5224 H       5  UNK5        0.0553
    192 H         -11.5101    5.2370   -2.2399 H       5  UNK5        0.0249
    193 H         -12.7455    6.4470   -1.8097 H       5  UNK5        0.0249
    194 H         -13.0748    5.1268   -3.0601 H       5  UNK5        0.0249
    195 H         -13.9921    5.8087    0.2805 H       5  UNK5        0.1223
    196 H         -15.0045    6.2079   -2.0084 H       5  UNK5        0.0388
    197 H         -15.6376    4.5165   -1.7870 H       5  UNK5        0.0388
    198 H         -16.1892    5.7897   -0.6446 H       5  UNK5        0.0388
    199 H          -8.6250    1.8552    2.8063 H       5  UNK5        0.0236
    200 H          -9.8429    0.5486    3.1223 H       5  UNK5        0.0236
    201 H          -8.8399    0.4946    1.6515 H       5  UNK5        0.0236
    202 H         -10.4765    2.5230    3.7782 H       5  UNK5        0.0236
    203 H         -10.4351    3.8674    2.6518 H       5  UNK5        0.0236
    204 H         -12.0080    2.8536    2.9602 H       5  UNK5        0.0236
    205 H         -11.9730    1.2197    0.2070 H       5  UNK5        0.0236
    206 H         -11.3181   -0.0541    1.2453 H       5  UNK5        0.0236
    207 H         -12.4512    1.0758    1.9868 H       5  UNK5        0.0236
    208 H          -6.9809    3.0739    1.0731 H       5  UNK5        0.0467
    209 H          -6.5913    1.3017    1.4304 H       5  UNK5        0.0467
    210 H          12.7356   -2.1625   -2.0309 H       2  UNK2        0.0236
    211 H          11.6725   -1.3869   -3.2074 H       2  UNK2        0.0236
    212 H          11.0262   -2.6347   -2.0906 H       2  UNK2        0.0236
    213 H           9.8736    0.8383   -1.0462 H       2  UNK2        0.0236
    214 H           9.8206   -0.1637   -2.5590 H       2  UNK2        0.0236
    215 H          11.0332    1.1343   -2.4038 H       2  UNK2        0.0236
    216 H          12.7582    0.9675   -0.5887 H       2  UNK2        0.0236
    217 H          12.8474    0.4965   -2.3226 H       2  UNK2        0.0236
    218 H          13.5658   -0.6226   -1.1371 H       2  UNK2        0.0236
@<TRIPOS>BOND
     1     1     2    1
     2     2     3    1
     3     3     4    1
     4     3     5    1
     5     5     6    2
     6     5     7   am
     7     7     8    1
     8     8     9    1
     9     9    10    2
    10     9    11   am
    11    11    12    1
    12    12    13    1
    13    13    14    1
    14    14    15    1
    15    15    16    1
    16    16    17    2
    17    16    18   am
    18    18    19    1
    19    19    20    1
    20    20    21    1
    21    21    22   ar
    22    22    23   ar
    23    23    24   ar
    24    24    25   ar
    25    25    26   ar
    26    26    27   ar
    27    27    28   ar
    28    28    29   ar
    29    29    30   ar
    30    19    31    1
    31    31    32    2
    32    31    33   am
    33    33    34    1
    34    34    35    1
    35    35    36    2
    36    35    37    1
    37    34    38    1
    38    38    39    1
    39    39    40   ar
    40    40    41   ar
    41    41    42   ar
    42    42    43   ar
    43    43    44   ar
    44    42    45    1
    45    45    46    1
    46    46    47    1
    47    47    48    1
    48    48    49    1
    49    49    50    1
    50    50    51    1
    51    51    52    1
    52    52    53    1
    53    53    54    2
    54    53    55   am
    55    55    56    1
    56    56    57    1
    57    57    58    1
    58    58    59   ar
    59    59    60   ar
    60    60    61   ar
    61    61    62   ar
    62    62    63   ar
    63    63    64   ar
    64    64    65   ar
    65    65    66   ar
    66    66    67   ar
    67    56    68    1
    68    68    69    2
    69    68    70   am
    70    70    71    1
    71    71    72    1
    72    72    73    1
    73    73    74    2
    74    73    75    2
    75    73    76    1
    76    76    77    1
    77    77    78    1
    78    71    79    1
    79    79    80    1
    80    80    81   ar
    81    81    82   ar
    82    82    83   ar
    83    83    84   ar
    84    84    85   ar
    85    83    86    1
    86    86    87    1
    87    87    88    1
    88    88    89   ar
    89    89    90   ar
    90    90    91   ar
    91    91    92   ar
    92    52    93    1
    93    93    94   am
    94    94    95    2
    95    94    96    1
    96    96    97    1
    97    97    98   am
    98    98    99    2
    99    98   100    1
   100   100   101    1
   101   100   102    1
   102   102   103    1
   103    96   104    1
   104   104   105    1
   105   104   106    1
   106   104   107    1
   107    93   108    1
   108     8   109    1
   109   109   110    1
   110   109   111    1
   111   109   112    1
   112    15    11    1
   113    30    21   ar
   114    44    39   ar
   115   108    50    1
   116    90    13    1
   117    29    24   ar
   118    67    58   ar
   119    78    76    1
   120    85    80   ar
   121    92    88   ar
   122    66    61   ar
   123     1   113    1
   124     1   114    1
   125     1   115    1
   126     2   116    1
   127     3   117    1
   128     4   118    1
   129     4   119    1
   130     4   120    1
   131     7   121    1
   132     8   122    1
   133    12   123    1
   134    12   124    1
   135    13   125    1
   136    14   126    1
   137    14   127    1
   138    15   128    1
   139    18   129    1
   140    19   130    1
   141    20   131    1
   142    20   132    1
   143    22   133    1
   144    23   134    1
   145    25   135    1
   146    26   136    1
   147    27   137    1
   148    28   138    1
   149    30   139    1
   150    33   140    1
   151    34   141    1
   152    37   142    1
   153    38   143    1
   154    38   144    1
   155    40   145    1
   156    41   146    1
   157    43   147    1
   158    44   148    1
   159    46   149    1
   160    46   150    1
   161    47   151    1
   162    47   152    1
   163    48   153    1
   164    48   154    1
   165    49   155    1
   166    49   156    1
   167    50   157    1
   168    51   158    1
   169    51   159    1
   170    52   160    1
   171    55   161    1
   172    56   162    1
   173    57   163    1
   174    57   164    1
   175    59   165    1
   176    60   166    1
   177    62   167    1
   178    63   168    1
   179    64   169    1
   180    65   170    1
   181    67   171    1
   182    70   172    1
   183    71   173    1
   184    72   174    1
   185    76   175    1
   186    77   176    1
   187    77   177    1
   188    78   178    1
   189    78   179    1
   190    79   180    1
   191    79   181    1
   192    81   182    1
   193    82   183    1
   194    84   184    1
   195    85   185    1
   196    87   186    1
   197    87   187    1
   198    89   188    1
   199    96   189    1
   200    97   190    1
   201   100   191    1
   202   101   192    1
   203   101   193    1
   204   101   194    1
   205   102   195    1
   206   103   196    1
   207   103   197    1
   208   103   198    1
   209   105   199    1
   210   105   200    1
   211   105   201    1
   212   106   202    1
   213   106   203    1
   214   106   204    1
   215   107   205    1
   216   107   206    1
   217   107   207    1
   218   108   208    1
   219   108   209    1
   220   110   210    1
   221   110   211    1
   222   110   212    1
   223   111   213    1
   224   111   214    1
   225   111   215    1
   226   112   216    1
   227   112   217    1
   228   112   218    1
