@<TRIPOS>MOLECULE
*****
 34 34 0 0 0
SMALL
GASTEIGER

@<TRIPOS>ATOM
      1 C           0.1179   -1.1078    1.1077 C.3     1  UNL1       -0.0424
      2 C          -0.1765    0.0079    0.1498 C.3     1  UNL1        0.0687
      3 N          -1.4485    0.6043    0.2860 N.3     1  UNL1       -0.3022
      4 C          -2.6171   -0.1400    0.0474 C.3     1  UNL1        0.0114
      5 C          -2.6934   -0.7549   -1.3359 C.3     1  UNL1       -0.0473
      6 C          -3.7625    0.9025    0.0269 C.3     1  UNL1       -0.0473
      7 C          -3.0230   -1.1338    1.0994 C.3     1  UNL1       -0.0473
      8 C           0.8661    1.0402    0.3802 C.2     1  UNL1        0.1797
      9 O           0.5184    2.1925    0.7476 O.2     1  UNL1       -0.2904
     10 C           2.2923    0.8191    0.2102 C.ar    1  UNL1        0.0204
     11 C           3.2373    1.7776    0.4840 C.ar    1  UNL1       -0.0511
     12 C           4.5892    1.5706    0.3074 C.ar    1  UNL1       -0.0597
     13 C           5.0310    0.3554   -0.1635 C.ar    1  UNL1       -0.0433
     14 C           4.0914   -0.6233   -0.4452 C.ar    1  UNL1        0.0416
     15 CL          4.6482   -2.1600   -1.0405 Cl      1  UNL1       -0.0835
     16 C           2.7215   -0.3994   -0.2614 C.ar    1  UNL1       -0.0328
     17 H           1.1236   -1.0066    1.6135 H       1  UNL1        0.0249
     18 H          -0.6080   -1.2205    1.9335 H       1  UNL1        0.0249
     19 H           0.1106   -2.0615    0.5523 H       1  UNL1        0.0249
     20 H          -0.0630   -0.3836   -0.9039 H       1  UNL1        0.0540
     21 H          -1.4675    1.4714   -0.2982 H       1  UNL1        0.1231
     22 H          -3.0641   -0.0379   -2.0983 H       1  UNL1        0.0247
     23 H          -3.4810   -1.5560   -1.2717 H       1  UNL1        0.0247
     24 H          -1.7706   -1.2539   -1.6405 H       1  UNL1        0.0247
     25 H          -3.6911    1.4457   -0.9224 H       1  UNL1        0.0247
     26 H          -3.5658    1.5408    0.9188 H       1  UNL1        0.0247
     27 H          -4.7033    0.3456    0.1261 H       1  UNL1        0.0247
     28 H          -4.1344   -1.3633    1.0377 H       1  UNL1        0.0247
     29 H          -2.5672   -2.1423    0.9601 H       1  UNL1        0.0247
     30 H          -2.9175   -0.7320    2.1277 H       1  UNL1        0.0247
     31 H           2.9281    2.7573    0.8601 H       1  UNL1        0.0625
     32 H           5.3064    2.3441    0.5318 H       1  UNL1        0.0618
     33 H           6.0935    0.1316   -0.3241 H       1  UNL1        0.0632
     34 H           2.0794   -1.2299   -0.5213 H       1  UNL1        0.0639
@<TRIPOS>BOND
     1     1     2    1
     2     2     3    1
     3     3     4    1
     4     4     5    1
     5     4     6    1
     6     4     7    1
     7     2     8    1
     8     8     9    2
     9     8    10    1
    10    10    11   ar
    11    11    12   ar
    12    12    13   ar
    13    13    14   ar
    14    14    15    1
    15    14    16   ar
    16    16    10   ar
    17     1    17    1
    18     1    18    1
    19     1    19    1
    20     2    20    1
    21     3    21    1
    22     5    22    1
    23     5    23    1
    24     5    24    1
    25     6    25    1
    26     6    26    1
    27     6    27    1
    28     7    28    1
    29     7    29    1
    30     7    30    1
    31    11    31    1
    32    12    32    1
    33    13    33    1
    34    16    34    1
