@<TRIPOS>MOLECULE
*****
 37 39 0 0 0
SMALL
GASTEIGER

@<TRIPOS>ATOM
      1 C          -0.7925   -1.7588   -1.4782 C.3     1  UNL1        0.1440
      2 C           0.3279   -0.8663   -1.8950 C.3     1  UNL1        0.0823
      3 O           0.3800    0.3665   -1.3137 O.3     1  UNL1       -0.3417
      4 C           0.1420    0.4064    0.0384 C.3     1  UNL1        0.2280
      5 C           1.3489   -0.1951    0.7287 C.3     1  UNL1        0.1345
      6 O           2.5125    0.5046    0.4490 O.3     1  UNL1       -0.2196
      7 S           3.7830   -0.2537    1.2679 S.O2    1  UNL1        0.1486
      8 N           5.2335    0.1028    0.4363 N.3     1  UNL1       -0.1833
      9 O           3.8205    0.1069    2.7118 O.2     1  UNL1       -0.1300
     10 O           3.6073   -1.7643    1.1901 O.2     1  UNL1       -0.1300
     11 O          -0.0573    1.7172    0.4414 O.3     1  UNL1       -0.3130
     12 C          -1.4187    1.9507    0.4414 C.3     1  UNL1        0.1686
     13 C          -1.8826    2.9832    1.4271 C.3     1  UNL1       -0.0107
     14 C          -1.8000    2.4387   -0.9396 C.3     1  UNL1       -0.0107
     15 O          -2.0299    0.7583    0.7955 O.3     1  UNL1       -0.3377
     16 C          -1.1168   -0.2652    0.4783 C.3     1  UNL1        0.1489
     17 C          -1.7997   -1.0029   -0.6745 C.3     1  UNL1        0.1514
     18 O          -2.7109   -1.8897   -0.1654 O.3     1  UNL1       -0.2068
     19 S          -1.9203   -3.3840   -0.2200 S.O2    1  UNL1        0.2108
     20 O          -1.8977   -4.0599    1.0893 O.2     1  UNL1       -0.1179
     21 O          -2.5290   -4.1862   -1.3253 O.2     1  UNL1       -0.1179
     22 O          -0.3976   -2.8638   -0.7217 O.3     1  UNL1       -0.2072
     23 H          -1.3395   -2.2019   -2.3521 H       1  UNL1        0.0672
     24 H           0.1961   -0.6774   -3.0004 H       1  UNL1        0.0588
     25 H           1.2702   -1.4430   -1.8400 H       1  UNL1        0.0588
     26 H           1.1955   -0.1886    1.8303 H       1  UNL1        0.0639
     27 H           1.5125   -1.2459    0.4214 H       1  UNL1        0.0639
     28 H           5.4965    1.0884    0.3880 H       1  UNL1        0.1462
     29 H           5.9728   -0.5995    0.4944 H       1  UNL1        0.1462
     30 H          -2.6718    2.5987    2.1356 H       1  UNL1        0.0281
     31 H          -2.3944    3.8557    0.9308 H       1  UNL1        0.0281
     32 H          -1.0912    3.3787    2.0815 H       1  UNL1        0.0281
     33 H          -1.0716    2.1537   -1.7239 H       1  UNL1        0.0281
     34 H          -2.8037    2.0942   -1.2127 H       1  UNL1        0.0281
     35 H          -1.7775    3.5673   -0.9350 H       1  UNL1        0.0281
     36 H          -0.9713   -0.9239    1.3415 H       1  UNL1        0.0680
     37 H          -2.3252   -0.3021   -1.3212 H       1  UNL1        0.0677
@<TRIPOS>BOND
     1     1     2    1
     2     2     3    1
     3     3     4    1
     4     4     5    1
     5     5     6    1
     6     6     7    1
     7     7     8    1
     8     7     9    2
     9     7    10    2
    10     4    11    1
    11    11    12    1
    12    12    13    1
    13    12    14    1
    14    12    15    1
    15    15    16    1
    16    16    17    1
    17    17    18    1
    18    18    19    1
    19    19    20    2
    20    19    21    2
    21    19    22    1
    22    17     1    1
    23    22     1    1
    24    16     4    1
    25     1    23    1
    26     2    24    1
    27     2    25    1
    28     5    26    1
    29     5    27    1
    30     8    28    1
    31     8    29    1
    32    13    30    1
    33    13    31    1
    34    13    32    1
    35    14    33    1
    36    14    34    1
    37    14    35    1
    38    16    36    1
    39    17    37    1
