@<TRIPOS>MOLECULE
*****
 51 52 0 0 0
SMALL
GASTEIGER

@<TRIPOS>ATOM
      1 C           8.8890    0.0738    2.8247 C.3     1  UNL1       -0.0135
      2 S           8.6649   -0.0889    1.0433 S.3     1  UNL1       -0.1286
      3 C           7.0161   -0.6672    0.7124 C.ar    1  UNL1        0.0077
      4 C           6.7389   -2.0142    0.6344 C.ar    1  UNL1       -0.0477
      5 C           5.4508   -2.4944    0.3754 C.ar    1  UNL1       -0.0499
      6 C           4.3969   -1.6207    0.1862 C.ar    1  UNL1        0.0217
      7 C           4.6972   -0.2792    0.2686 C.ar    1  UNL1       -0.0499
      8 C           5.9623    0.2014    0.5232 C.ar    1  UNL1       -0.0477
      9 C           3.0868   -2.1896   -0.0787 C.2     1  UNL1        0.1861
     10 O           2.9972   -3.4377   -0.1187 O.2     1  UNL1       -0.2873
     11 C           1.9251   -1.3373   -0.2891 C.2     1  UNL1       -0.0138
     12 C           0.7218   -1.8100   -0.5316 C.2     1  UNL1       -0.0509
     13 C          -0.5126   -1.0688   -0.7581 C.ar    1  UNL1       -0.0242
     14 C          -1.6805   -1.7679   -0.9981 C.ar    1  UNL1       -0.0482
     15 C          -2.8495   -1.0703   -1.2116 C.ar    1  UNL1       -0.0079
     16 C          -4.0207   -1.9021   -1.4888 C.3     1  UNL1       -0.0362
     17 C          -2.9543    0.3035   -1.2047 C.ar    1  UNL1        0.1279
     18 O          -4.0513    1.0442   -1.4000 O.3     1  UNL1       -0.4745
     19 C          -5.0498    1.5873   -0.6501 C.3     1  UNL1        0.2003
     20 C          -6.0480    2.3847   -1.5200 C.3     1  UNL1       -0.0145
     21 C          -4.5071    2.5356    0.4172 C.3     1  UNL1       -0.0145
     22 C          -5.9393    0.5990    0.0654 C.2     1  UNL1        0.3485
     23 O          -6.9967    0.3002    0.8873 O.3     1  UNL1       -0.4779
     24 O          -6.2280   -0.6225    0.3272 O.2     1  UNL1       -0.2465
     25 C          -1.7647    1.0132   -0.9620 C.ar    1  UNL1       -0.0079
     26 C          -1.5970    2.4857   -0.9310 C.3     1  UNL1       -0.0362
     27 C          -0.5833    0.2876   -0.7465 C.ar    1  UNL1       -0.0482
     28 H           8.3824    0.9881    3.1553 H       1  UNL1        0.0344
     29 H           9.9924    0.1325    3.0190 H       1  UNL1        0.0344
     30 H           8.4647   -0.8344    3.3067 H       1  UNL1        0.0344
     31 H           7.5478   -2.7443    0.7785 H       1  UNL1        0.0629
     32 H           5.3379   -3.5698    0.3342 H       1  UNL1        0.0625
     33 H           3.8930    0.4184    0.1248 H       1  UNL1        0.0625
     34 H           6.1113    1.2847    0.5716 H       1  UNL1        0.0629
     35 H           2.0175   -0.2648   -0.2516 H       1  UNL1        0.0656
     36 H           0.6984   -2.9128   -0.5561 H       1  UNL1        0.0625
     37 H          -1.6293   -2.8562   -1.0089 H       1  UNL1        0.0627
     38 H          -3.7314   -2.7544   -2.1725 H       1  UNL1        0.0279
     39 H          -4.3141   -2.4136   -0.5426 H       1  UNL1        0.0279
     40 H          -4.8390   -1.4026   -2.0157 H       1  UNL1        0.0279
     41 H          -6.3997    3.2674   -0.9425 H       1  UNL1        0.0273
     42 H          -5.4237    2.7717   -2.3524 H       1  UNL1        0.0273
     43 H          -6.8699    1.7717   -1.8805 H       1  UNL1        0.0273
     44 H          -5.3610    2.7905    1.1168 H       1  UNL1        0.0273
     45 H          -4.1695    3.4771   -0.0506 H       1  UNL1        0.0273
     46 H          -3.7035    2.0649    0.9909 H       1  UNL1        0.0273
     47 H          -7.5735    0.9719    1.3920 H       1  UNL1        0.2952
     48 H          -0.5680    2.7295   -1.3338 H       1  UNL1        0.0279
     49 H          -1.6203    2.8053    0.1262 H       1  UNL1        0.0279
     50 H          -2.3518    3.0278   -1.4864 H       1  UNL1        0.0279
     51 H           0.3452    0.8058   -0.5568 H       1  UNL1        0.0627
@<TRIPOS>BOND
     1     1     2    1
     2     2     3    1
     3     3     4   ar
     4     4     5   ar
     5     5     6   ar
     6     6     7   ar
     7     7     8   ar
     8     6     9    1
     9     9    10    2
    10     9    11    1
    11    11    12    2
    12    12    13    1
    13    13    14   ar
    14    14    15   ar
    15    15    16    1
    16    15    17   ar
    17    17    18    1
    18    18    19    1
    19    19    20    1
    20    19    21    1
    21    19    22    1
    22    22    23    1
    23    22    24    2
    24    17    25   ar
    25    25    26    1
    26    25    27   ar
    27     8     3   ar
    28    27    13   ar
    29     1    28    1
    30     1    29    1
    31     1    30    1
    32     4    31    1
    33     5    32    1
    34     7    33    1
    35     8    34    1
    36    11    35    1
    37    12    36    1
    38    14    37    1
    39    16    38    1
    40    16    39    1
    41    16    40    1
    42    20    41    1
    43    20    42    1
    44    20    43    1
    45    21    44    1
    46    21    45    1
    47    21    46    1
    48    23    47    1
    49    26    48    1
    50    26    49    1
    51    26    50    1
    52    27    51    1
