@<TRIPOS>MOLECULE
*****
 75 80 0 0 0
SMALL
GASTEIGER

@<TRIPOS>ATOM
      1 C          -7.1630   -3.4860   -1.8473 C.3     1  UNL1        0.0032
      2 N          -7.9173   -2.5269   -1.1176 N.am    1  UNL1       -0.3024
      3 C          -9.3988   -2.6996   -1.1792 C.3     1  UNL1        0.0032
      4 C          -7.4257   -1.4669   -0.3796 C.2     1  UNL1        0.2627
      5 O          -8.3489   -0.7737    0.1783 O.2     1  UNL1       -0.2684
      6 C          -6.0383   -1.1193   -0.2107 C.ar    1  UNL1        0.1070
      7 C          -4.9747   -1.9344   -0.6351 C.ar    1  UNL1       -0.0209
      8 C          -3.8076   -1.2645   -0.2924 C.ar    1  UNL1        0.0378
      9 C          -2.4651   -1.5911   -0.4540 C.ar    1  UNL1        0.0419
     10 N          -1.5320   -0.7427   -0.0049 N.ar    1  UNL1       -0.2219
     11 C          -1.8535    0.4142    0.5946 C.ar    1  UNL1        0.2224
     12 N          -0.8303    1.2820    1.0983 N.pl3   1  UNL1       -0.2685
     13 C           0.5008    0.7896    1.1071 C.ar    1  UNL1        0.1250
     14 C           1.5669    1.5207    1.5758 C.ar    1  UNL1       -0.0208
     15 C           2.8722    1.0246    1.6329 C.ar    1  UNL1       -0.0449
     16 C           3.0732   -0.2441    1.1985 C.ar    1  UNL1        0.0551
     17 C           4.3767   -0.8869    1.2499 C.2     1  UNL1        0.2482
     18 O           4.5002   -1.8766    2.0433 O.2     1  UNL1       -0.2699
     19 N           5.4914   -0.4982    0.4981 N.am    1  UNL1       -0.2940
     20 C           6.7403   -1.2460    0.6482 C.3     1  UNL1        0.0337
     21 C           7.8336   -0.1877    0.8196 C.3     1  UNL1        0.0422
     22 C           7.3252    0.7980    1.8187 C.3     1  UNL1       -0.0311
     23 C           6.8268    1.9994    1.0453 C.3     1  UNL1       -0.0311
     24 C           6.6851    1.4485   -0.3542 C.3     1  UNL1        0.0422
     25 C           5.4042    0.6285   -0.4031 C.3     1  UNL1        0.0337
     26 N           7.8229    0.5613   -0.4426 N.am    1  UNL1       -0.2913
     27 C           8.7401    0.4350   -1.5091 C.2     1  UNL1        0.2298
     28 O           8.5927    1.1663   -2.5200 O.2     1  UNL1       -0.2742
     29 C           9.8420   -0.5333   -1.4307 C.3     1  UNL1        0.0710
     30 N          10.6889   -0.5392   -2.5962 N.3     1  UNL1       -0.3225
     31 C           2.0063   -0.9895    0.7222 C.ar    1  UNL1        0.0418
     32 N           0.7711   -0.4838    0.6820 N.ar    1  UNL1       -0.2394
     33 N          -3.1651    0.7050    0.7338 N.ar    1  UNL1       -0.1962
     34 C          -4.1508   -0.1059    0.3065 C.ar    1  UNL1        0.1466
     35 N          -5.5543   -0.0181    0.3565 N.ar    1  UNL1       -0.3180
     36 C          -6.0605    1.1302    0.9579 C.3     1  UNL1        0.0366
     37 C          -5.5237    2.4047    0.2089 C.3     1  UNL1       -0.0320
     38 C          -6.7185    2.6874   -0.6909 C.3     1  UNL1       -0.0511
     39 C          -7.9620    2.3387    0.1136 C.3     1  UNL1       -0.0511
     40 C          -7.3828    1.5363    1.2695 C.3     1  UNL1       -0.0320
     41 H          -6.6417   -4.2533   -1.1963 H       1  UNL1        0.0428
     42 H          -7.8841   -4.2006   -2.4192 H       1  UNL1        0.0428
     43 H          -6.5543   -3.0915   -2.6748 H       1  UNL1        0.0428
     44 H          -9.8985   -1.7314   -1.1824 H       1  UNL1        0.0428
     45 H          -9.7188   -3.3978   -0.3900 H       1  UNL1        0.0428
     46 H          -9.6557   -3.1953   -2.1462 H       1  UNL1        0.0428
     47 H          -4.9395   -2.8710   -1.1195 H       1  UNL1        0.0647
     48 H          -2.2022   -2.5044   -0.9271 H       1  UNL1        0.0838
     49 H          -1.0448    2.2147    1.4375 H       1  UNL1        0.1564
     50 H           1.4036    2.5421    1.9233 H       1  UNL1        0.0652
     51 H           3.6741    1.6325    2.0123 H       1  UNL1        0.0627
     52 H           6.6597   -1.8909    1.5277 H       1  UNL1        0.0483
     53 H           6.9822   -1.8072   -0.2614 H       1  UNL1        0.0483
     54 H           8.8114   -0.6221    1.0393 H       1  UNL1        0.0516
     55 H           6.4368    0.4118    2.3872 H       1  UNL1        0.0284
     56 H           8.0888    1.1293    2.5676 H       1  UNL1        0.0284
     57 H           5.8649    2.3726    1.4364 H       1  UNL1        0.0284
     58 H           7.5945    2.8099    1.1205 H       1  UNL1        0.0284
     59 H           6.6497    2.2128   -1.1417 H       1  UNL1        0.0516
     60 H           5.3117    0.2592   -1.4354 H       1  UNL1        0.0483
     61 H           4.5384    1.2447   -0.1693 H       1  UNL1        0.0483
     62 H           9.4613   -1.5798   -1.3166 H       1  UNL1        0.0518
     63 H          10.4184   -0.3417   -0.4947 H       1  UNL1        0.0518
     64 H          11.6976   -0.4632   -2.3690 H       1  UNL1        0.1186
     65 H          10.5903   -1.3893   -3.1979 H       1  UNL1        0.1186
     66 H           2.1949   -1.9895    0.3825 H       1  UNL1        0.0838
     67 H          -5.4406    1.2449    1.9577 H       1  UNL1        0.0528
     68 H          -4.7022    2.0640   -0.4381 H       1  UNL1        0.0285
     69 H          -5.2966    3.2030    0.9113 H       1  UNL1        0.0285
     70 H          -6.6514    2.0520   -1.5840 H       1  UNL1        0.0266
     71 H          -6.7047    3.7446   -0.9772 H       1  UNL1        0.0266
     72 H          -8.3948    3.3066    0.4343 H       1  UNL1        0.0266
     73 H          -8.7186    1.8340   -0.4691 H       1  UNL1        0.0266
     74 H          -7.2306    2.4334    2.0515 H       1  UNL1        0.0285
     75 H          -8.0866    0.9607    1.8538 H       1  UNL1        0.0285
@<TRIPOS>BOND
     1     1     2    1
     2     2     3    1
     3     2     4   am
     4     4     5    2
     5     4     6    1
     6     6     7   ar
     7     7     8   ar
     8     8     9   ar
     9     9    10   ar
    10    10    11   ar
    11    11    12    1
    12    12    13    1
    13    13    14   ar
    14    14    15   ar
    15    15    16   ar
    16    16    17    1
    17    17    18    2
    18    17    19   am
    19    19    20    1
    20    20    21    1
    21    21    22    1
    22    22    23    1
    23    23    24    1
    24    24    25    1
    25    24    26    1
    26    26    27   am
    27    27    28    2
    28    27    29    1
    29    29    30    1
    30    16    31   ar
    31    31    32   ar
    32    11    33   ar
    33    33    34   ar
    34    34    35   ar
    35    35    36    1
    36    36    37    1
    37    37    38    1
    38    38    39    1
    39    39    40    1
    40    35     6   ar
    41    40    36    1
    42    34     8   ar
    43    32    13   ar
    44    25    19    1
    45    26    21    1
    46     1    41    1
    47     1    42    1
    48     1    43    1
    49     3    44    1
    50     3    45    1
    51     3    46    1
    52     7    47    1
    53     9    48    1
    54    12    49    1
    55    14    50    1
    56    15    51    1
    57    20    52    1
    58    20    53    1
    59    21    54    1
    60    22    55    1
    61    22    56    1
    62    23    57    1
    63    23    58    1
    64    24    59    1
    65    25    60    1
    66    25    61    1
    67    29    62    1
    68    29    63    1
    69    30    64    1
    70    30    65    1
    71    31    66    1
    72    36    67    1
    73    37    68    1
    74    37    69    1
    75    38    70    1
    76    38    71    1
    77    39    72    1
    78    39    73    1
    79    40    74    1
    80    40    75    1
