@<TRIPOS>MOLECULE
*****
 38 39 0 0 0
SMALL
GASTEIGER

@<TRIPOS>ATOM
      1 C          -2.5626    3.8349    0.8941 C.3     1  UNL1        0.0788
      2 O          -2.2496    2.6116    0.6374 O.3     1  UNL1       -0.4947
      3 C          -1.8119    1.4029    0.4663 C.ar    1  UNL1        0.1267
      4 C          -0.6288    0.9036    1.0430 C.ar    1  UNL1       -0.0160
      5 C          -0.1743   -0.3674    0.8602 C.ar    1  UNL1       -0.0360
      6 C           1.0662   -0.8889    1.4714 C.3     1  UNL1        0.0025
      7 C           2.3019   -0.5474    0.7777 C.ar    1  UNL1        0.0146
      8 C           3.0643    0.4818    1.2849 C.ar    1  UNL1        0.0379
      9 N           4.2073    0.8685    0.6981 N.ar    1  UNL1       -0.2227
     10 C           4.6240    0.2239   -0.4308 C.ar    1  UNL1        0.2142
     11 N           5.8368    0.6586   -1.0282 N.pl3   1  UNL1       -0.3274
     12 N           3.8864   -0.7773   -0.9270 N.ar    1  UNL1       -0.1999
     13 C           2.7211   -1.1961   -0.3570 C.ar    1  UNL1        0.1247
     14 N           1.9912   -2.2780   -0.9344 N.pl3   1  UNL1       -0.3428
     15 C          -0.9212   -1.2005    0.0662 C.ar    1  UNL1       -0.0160
     16 C          -2.0899   -0.7875   -0.5343 C.ar    1  UNL1        0.1267
     17 O          -2.8475   -1.6380   -1.3436 O.3     1  UNL1       -0.4947
     18 C          -2.5375   -2.9599   -1.6389 C.3     1  UNL1        0.0788
     19 C          -2.5326    0.4972   -0.3390 C.ar    1  UNL1        0.0328
     20 C          -3.8012    0.9782   -0.9807 C.3     1  UNL1       -0.0328
     21 H          -3.6029    4.0554    1.2828 H       1  UNL1        0.0660
     22 H          -2.3768    4.5377    0.0253 H       1  UNL1        0.0660
     23 H          -1.9142    4.3032    1.7147 H       1  UNL1        0.0660
     24 H          -0.0789    1.5851    1.6536 H       1  UNL1        0.0657
     25 H           0.9668   -2.0127    1.5436 H       1  UNL1        0.0363
     26 H           1.0636   -0.5529    2.5468 H       1  UNL1        0.0363
     27 H           2.7769    1.0362    2.1912 H       1  UNL1        0.0834
     28 H           6.7693    0.3653   -0.6847 H       1  UNL1        0.1452
     29 H           5.7792    1.2972   -1.8432 H       1  UNL1        0.1452
     30 H           1.6923   -2.2330   -1.9256 H       1  UNL1        0.1437
     31 H           1.7423   -3.1267   -0.3882 H       1  UNL1        0.1437
     32 H          -0.6188   -2.2181   -0.1079 H       1  UNL1        0.0657
     33 H          -2.9617   -3.2523   -2.6458 H       1  UNL1        0.0660
     34 H          -1.4458   -3.1523   -1.6951 H       1  UNL1        0.0660
     35 H          -2.9651   -3.6622   -0.9065 H       1  UNL1        0.0660
     36 H          -3.6184    1.9019   -1.5725 H       1  UNL1        0.0280
     37 H          -4.6136    1.1069   -0.2253 H       1  UNL1        0.0280
     38 H          -4.1363    0.2013   -1.6973 H       1  UNL1        0.0280
@<TRIPOS>BOND
     1     1     2    1
     2     2     3    1
     3     3     4   ar
     4     4     5   ar
     5     5     6    1
     6     6     7    1
     7     7     8   ar
     8     8     9   ar
     9     9    10   ar
    10    10    11    1
    11    10    12   ar
    12    12    13   ar
    13    13    14    1
    14     5    15   ar
    15    15    16   ar
    16    16    17    1
    17    17    18    1
    18    16    19   ar
    19    19    20    1
    20    19     3   ar
    21    13     7   ar
    22     1    21    1
    23     1    22    1
    24     1    23    1
    25     4    24    1
    26     6    25    1
    27     6    26    1
    28     8    27    1
    29    11    28    1
    30    11    29    1
    31    14    30    1
    32    14    31    1
    33    15    32    1
    34    18    33    1
    35    18    34    1
    36    18    35    1
    37    20    36    1
    38    20    37    1
    39    20    38    1
