
     RDKit          3D

 38 39  0  0  0  0  0  0  0  0999 V2000
    0.8227    1.1950    1.9277 O   0  0  0  0  0  0  0  0  0  0  0  0
   -0.1039    0.3856    1.2891 C   0  0  1  0  0  0  0  0  0  0  0  0
   -1.4746    1.0678    1.1692 C   0  0  0  0  0  0  0  0  0  0  0  0
   -1.9471    0.5731   -0.1585 C   0  0  1  0  0  0  0  0  0  0  0  0
   -1.0522   -0.4383   -0.5655 O   0  0  0  0  0  0  0  0  0  0  0  0
    0.1610    0.1662   -0.1629 C   0  0  2  0  0  0  0  0  0  0  0  0
    1.3630   -0.6620   -0.4754 C   0  0  0  0  0  0  0  0  0  0  0  0
    2.5739   -0.1351   -0.1113 O   0  0  0  0  0  0  0  0  0  0  0  0
    3.7574   -1.2787   -0.5824 P   0  0  0  0  0  0  0  0  0  0  0  0
    3.8972   -2.5230    0.5303 O   0  0  0  0  0  0  0  0  0  0  0  0
    3.2704   -1.8613   -1.8969 O   0  0  0  0  0  0  0  0  0  0  0  0
    5.2292   -0.5218   -0.9002 O   0  0  0  0  0  0  0  0  0  0  0  0
    5.3743    0.9501   -0.0948 P   0  0  0  0  0  0  0  0  0  0  0  0
    6.4509    1.9172   -0.9704 O   0  0  0  0  0  0  0  0  0  0  0  0
    5.9706    0.7449    1.4738 O   0  0  0  0  0  0  0  0  0  0  0  0
    4.0420    1.6174   -0.0044 O   0  0  0  0  0  0  0  0  0  0  0  0
   -3.3072    0.1370   -0.2022 N   0  0  0  0  0  0  0  0  0  0  0  0
   -4.1670    0.5980   -1.1575 C   0  0  0  0  0  0  0  0  0  0  0  0
   -5.4839    0.1923   -1.2206 C   0  0  0  0  0  0  0  0  0  0  0  0
   -6.0024   -0.7079   -0.3132 C   0  0  0  0  0  0  0  0  0  0  0  0
   -7.1698   -1.1335   -0.2862 O   0  0  0  0  0  0  0  0  0  0  0  0
   -5.1097   -1.1328    0.6108 N   0  0  0  0  0  0  0  0  0  0  0  0
   -3.8045   -0.7415    0.6870 C   0  0  0  0  0  0  0  0  0  0  0  0
   -3.0845   -1.2209    1.6044 O   0  0  0  0  0  0  0  0  0  0  0  0
    1.3035    0.6298    2.5867 H   0  0  0  0  0  0  0  0  0  0  0  0
   -0.2816   -0.5781    1.7929 H   0  0  0  0  0  0  0  0  0  0  0  0
   -2.1282    0.8718    2.0192 H   0  0  0  0  0  0  0  0  0  0  0  0
   -1.2355    2.1690    1.1035 H   0  0  0  0  0  0  0  0  0  0  0  0
   -1.8055    1.3742   -0.9314 H   0  0  0  0  0  0  0  0  0  0  0  0
    0.1748    1.1510   -0.6695 H   0  0  0  0  0  0  0  0  0  0  0  0
    1.2351   -1.6990   -0.1188 H   0  0  0  0  0  0  0  0  0  0  0  0
    1.3868   -0.7505   -1.5961 H   0  0  0  0  0  0  0  0  0  0  0  0
    4.8428   -2.8552    0.6122 H   0  0  0  0  0  0  0  0  0  0  0  0
    5.9494    2.6334   -1.4012 H   0  0  0  0  0  0  0  0  0  0  0  0
    5.8200   -0.1791    1.8083 H   0  0  0  0  0  0  0  0  0  0  0  0
   -3.8554    1.2996   -1.9050 H   0  0  0  0  0  0  0  0  0  0  0  0
   -6.1603    0.5692   -1.9898 H   0  0  0  0  0  0  0  0  0  0  0  0
   -5.4519   -1.8238    1.3316 H   0  0  0  0  0  0  0  0  0  0  0  0
  1  2  1  0
  2  3  1  0
  3  4  1  0
  4  5  1  0
  5  6  1  0
  6  7  1  0
  7  8  1  0
  8  9  1  0
  9 10  1  0
  9 11  2  0
  9 12  1  0
 12 13  1  0
 13 14  1  0
 13 15  1  0
 13 16  2  0
  4 17  1  0
 17 18  1  0
 18 19  2  0
 19 20  1  0
 20 21  2  0
 20 22  1  0
 22 23  1  0
 23 24  2  0
  6  2  1  0
 23 17  1  0
  1 25  1  0
  2 26  1  1
  3 27  1  0
  3 28  1  0
  4 29  1  6
  6 30  1  6
  7 31  1  0
  7 32  1  0
 10 33  1  0
 14 34  1  0
 15 35  1  0
 18 36  1  0
 19 37  1  0
 22 38  1  0
M  END
$$$$
