@<TRIPOS>MOLECULE
*****
 63 66 0 0 0
SMALL
GASTEIGER

@<TRIPOS>ATOM
      1 C           5.7947   -1.6270   -2.0130 C.3     1  UNL1       -0.0649
      2 C           5.3622   -0.1916   -1.8337 C.3     1  UNL1       -0.0504
      3 C           5.6525    0.1858   -0.3871 C.3     1  UNL1       -0.0069
      4 C           4.9048   -0.6934    0.5401 C.ar    1  UNL1        0.0871
      5 N           5.4038   -1.7148    1.2625 N.ar    1  UNL1       -0.1736
      6 N           4.4345   -2.2586    1.9677 N.ar    1  UNL1       -0.2598
      7 C           4.6128   -3.3725    2.8498 C.3     1  UNL1        0.0311
      8 C           3.2909   -1.6027    1.7175 C.ar    1  UNL1        0.1512
      9 C           3.5560   -0.6001    0.8125 C.ar    1  UNL1        0.0947
     10 N           2.5646    0.1933    0.4081 N.ar    1  UNL1       -0.3361
     11 C           1.2869    0.1286    0.7939 C.ar    1  UNL1        0.1462
     12 N           1.0777   -0.8619    1.6743 N.ar    1  UNL1       -0.1893
     13 C           1.9954   -1.7057    2.1397 C.ar    1  UNL1        0.2992
     14 O           1.7074   -2.6017    2.9617 O.2     1  UNL1       -0.2634
     15 C           0.1880    0.9725    0.3775 C.ar    1  UNL1        0.0608
     16 C           0.2072    2.0293   -0.5009 C.ar    1  UNL1        0.1312
     17 O           1.4068    2.3560   -1.0788 O.3     1  UNL1       -0.4915
     18 C           1.6095    3.3956   -1.9772 C.3     1  UNL1        0.0868
     19 C           1.2791    4.7102   -1.3326 C.3     1  UNL1       -0.0307
     20 C          -0.9268    2.7426   -0.8014 C.ar    1  UNL1       -0.0174
     21 C          -2.1500    2.4479   -0.2449 C.ar    1  UNL1       -0.0319
     22 C          -2.2053    1.3930    0.6416 C.ar    1  UNL1        0.1064
     23 C          -1.0523    0.6992    0.9204 C.ar    1  UNL1       -0.0212
     24 S          -3.7161    0.9739    1.3784 S.O2    1  UNL1        0.0610
     25 O          -3.5424    0.4873    2.7943 O.2     1  UNL1       -0.1528
     26 O          -4.5356    2.2517    1.4798 O.2     1  UNL1       -0.1528
     27 N          -4.6474   -0.1585    0.5200 N.3     1  UNL1       -0.1741
     28 C          -3.9689   -1.4033    0.3849 C.3     1  UNL1        0.0333
     29 C          -4.7142   -2.4087   -0.4564 C.3     1  UNL1        0.0131
     30 N          -6.0131   -1.9270   -0.8684 N.3     1  UNL1       -0.3028
     31 C          -6.9308   -1.7992    0.2416 C.3     1  UNL1       -0.0127
     32 C          -5.8200   -0.6749   -1.5713 C.3     1  UNL1        0.0131
     33 C          -5.2347    0.3730   -0.6788 C.3     1  UNL1        0.0333
     34 H           5.0059   -2.1429   -2.6017 H       1  UNL1        0.0230
     35 H           5.8720   -2.1464   -1.0416 H       1  UNL1        0.0230
     36 H           6.7382   -1.7292   -2.5592 H       1  UNL1        0.0230
     37 H           4.2929   -0.0459   -2.0751 H       1  UNL1        0.0266
     38 H           5.9383    0.4577   -2.5174 H       1  UNL1        0.0266
     39 H           6.7322    0.0710   -0.1661 H       1  UNL1        0.0329
     40 H           5.3856    1.2376   -0.2372 H       1  UNL1        0.0329
     41 H           5.1736   -4.1649    2.2918 H       1  UNL1        0.0473
     42 H           5.2866   -3.0672    3.6823 H       1  UNL1        0.0473
     43 H           3.6841   -3.8479    3.1829 H       1  UNL1        0.0473
     44 H           2.8464    0.9115   -0.2643 H       1  UNL1        0.1674
     45 H           0.8893    3.2364   -2.8190 H       1  UNL1        0.0694
     46 H           2.6618    3.4309   -2.3619 H       1  UNL1        0.0694
     47 H           0.8326    4.5893   -0.3190 H       1  UNL1        0.0262
     48 H           0.5897    5.3114   -1.9426 H       1  UNL1        0.0262
     49 H           2.2260    5.3102   -1.2269 H       1  UNL1        0.0262
     50 H          -0.9563    3.5711   -1.4898 H       1  UNL1        0.0655
     51 H          -3.0560    2.9889   -0.4604 H       1  UNL1        0.0638
     52 H          -1.1828   -0.1279    1.6371 H       1  UNL1        0.0645
     53 H          -2.9142   -1.2662    0.0108 H       1  UNL1        0.0456
     54 H          -3.8612   -1.8470    1.4000 H       1  UNL1        0.0456
     55 H          -4.1165   -2.5797   -1.3759 H       1  UNL1        0.0439
     56 H          -4.8411   -3.3916    0.0399 H       1  UNL1        0.0439
     57 H          -7.9351   -2.1606   -0.0625 H       1  UNL1        0.0391
     58 H          -6.5681   -2.3999    1.0989 H       1  UNL1        0.0391
     59 H          -7.0220   -0.7221    0.5115 H       1  UNL1        0.0391
     60 H          -6.8010   -0.3640   -1.9876 H       1  UNL1        0.0439
     61 H          -5.1302   -0.8787   -2.4144 H       1  UNL1        0.0439
     62 H          -4.5581    1.0050   -1.2834 H       1  UNL1        0.0456
     63 H          -6.0901    1.0227   -0.3282 H       1  UNL1        0.0456
@<TRIPOS>BOND
     1     1     2    1
     2     2     3    1
     3     3     4    1
     4     4     5   ar
     5     5     6   ar
     6     6     7    1
     7     6     8   ar
     8     8     9   ar
     9     9    10   ar
    10    10    11   ar
    11    11    12   ar
    12    12    13   ar
    13    13    14    2
    14    11    15    1
    15    15    16   ar
    16    16    17    1
    17    17    18    1
    18    18    19    1
    19    16    20   ar
    20    20    21   ar
    21    21    22   ar
    22    22    23   ar
    23    22    24    1
    24    24    25    2
    25    24    26    2
    26    24    27    1
    27    27    28    1
    28    28    29    1
    29    29    30    1
    30    30    31    1
    31    30    32    1
    32    32    33    1
    33     9     4   ar
    34    23    15   ar
    35    33    27    1
    36    13     8   ar
    37     1    34    1
    38     1    35    1
    39     1    36    1
    40     2    37    1
    41     2    38    1
    42     3    39    1
    43     3    40    1
    44     7    41    1
    45     7    42    1
    46     7    43    1
    47    10    44    1
    48    18    45    1
    49    18    46    1
    50    19    47    1
    51    19    48    1
    52    19    49    1
    53    20    50    1
    54    21    51    1
    55    23    52    1
    56    28    53    1
    57    28    54    1
    58    29    55    1
    59    29    56    1
    60    31    57    1
    61    31    58    1
    62    31    59    1
    63    32    60    1
    64    32    61    1
    65    33    62    1
    66    33    63    1
