
     RDKit          3D

 48 50  0  0  0  0  0  0  0  0999 V2000
    5.3770   -0.7066   -2.4008 O   0  0  0  0  0  0  0  0  0  0  0  0
    4.9375    0.1045   -1.5547 C   0  0  0  0  0  0  0  0  0  0  0  0
    5.5749    1.4287   -1.4279 C   0  0  0  0  0  0  0  0  0  0  0  0
    6.6461    1.5404   -2.3195 O   0  0  0  0  0  0  0  0  0  0  0  0
    3.8506   -0.2612   -0.7461 N   0  0  0  0  0  0  0  0  0  0  0  0
    3.1802   -1.5726   -0.8395 C   0  0  0  0  0  0  0  0  0  0  0  0
    2.6075   -1.8833    0.5409 C   0  0  0  0  0  0  0  0  0  0  0  0
    1.5525   -0.8635    0.7698 N   0  0  0  0  0  0  0  0  0  0  0  0
    0.3682   -1.3173    1.3399 C   0  0  0  0  0  0  0  0  0  0  0  0
    0.3562   -2.5948    1.6035 O   0  0  0  0  0  0  0  0  0  0  0  0
   -0.7851   -0.6100    1.6627 N   0  0  0  0  0  0  0  0  0  0  0  0
   -0.9633    0.7925    1.4362 C   0  0  0  0  0  0  0  0  0  0  0  0
   -2.4672    1.1036    1.5484 C   0  0  0  0  0  0  0  0  0  0  0  0
   -3.1205    0.0643    0.7930 N   0  0  0  0  0  0  0  0  0  0  0  0
   -3.7931    0.3678   -0.4034 C   0  0  0  0  0  0  0  0  0  0  0  0
   -4.5878   -0.6308   -0.9515 C   0  0  0  0  0  0  0  0  0  0  0  0
   -5.2531   -0.3829   -2.1189 C   0  0  0  0  0  0  0  0  0  0  0  0
   -5.1284    0.8589   -2.7424 C   0  0  0  0  0  0  0  0  0  0  0  0
   -5.9969    1.1157   -4.2223 Cl  0  0  0  0  0  0  0  0  0  0  0  0
   -4.3401    1.8482   -2.1980 C   0  0  0  0  0  0  0  0  0  0  0  0
   -3.6684    1.5835   -1.0101 C   0  0  0  0  0  0  0  0  0  0  0  0
   -3.0537   -1.3217    1.3010 C   0  0  0  0  0  0  0  0  0  0  0  0
   -1.9180   -1.3520    2.2978 C   0  0  0  0  0  0  0  0  0  0  0  0
    1.8270    0.4876    0.4000 C   0  0  0  0  0  0  0  0  0  0  0  0
    3.3472    0.6763    0.2382 C   0  0  0  0  0  0  0  0  0  0  0  0
    5.9978    1.5055   -0.4049 H   0  0  0  0  0  0  0  0  0  0  0  0
    4.8520    2.2609   -1.5638 H   0  0  0  0  0  0  0  0  0  0  0  0
    7.4083    1.0493   -1.8932 H   0  0  0  0  0  0  0  0  0  0  0  0
    2.3285   -1.5384   -1.5324 H   0  0  0  0  0  0  0  0  0  0  0  0
    3.8957   -2.3273   -1.1779 H   0  0  0  0  0  0  0  0  0  0  0  0
    2.1653   -2.8778    0.5092 H   0  0  0  0  0  0  0  0  0  0  0  0
    3.4157   -1.8053    1.2762 H   0  0  0  0  0  0  0  0  0  0  0  0
   -0.4640    1.4041    2.2198 H   0  0  0  0  0  0  0  0  0  0  0  0
   -0.6763    1.0357    0.4113 H   0  0  0  0  0  0  0  0  0  0  0  0
   -2.6183    2.1169    1.2313 H   0  0  0  0  0  0  0  0  0  0  0  0
   -2.6896    0.9632    2.6320 H   0  0  0  0  0  0  0  0  0  0  0  0
   -4.6647   -1.6001   -0.4338 H   0  0  0  0  0  0  0  0  0  0  0  0
   -5.8727   -1.1602   -2.5471 H   0  0  0  0  0  0  0  0  0  0  0  0
   -4.2524    2.7989   -2.6870 H   0  0  0  0  0  0  0  0  0  0  0  0
   -3.0656    2.3931   -0.6393 H   0  0  0  0  0  0  0  0  0  0  0  0
   -2.7488   -1.9355    0.4423 H   0  0  0  0  0  0  0  0  0  0  0  0
   -3.9905   -1.6242    1.7769 H   0  0  0  0  0  0  0  0  0  0  0  0
   -1.6310   -2.4178    2.4410 H   0  0  0  0  0  0  0  0  0  0  0  0
   -2.1781   -0.8979    3.2719 H   0  0  0  0  0  0  0  0  0  0  0  0
    1.5419    1.2617    1.1217 H   0  0  0  0  0  0  0  0  0  0  0  0
    1.3572    0.7350   -0.5812 H   0  0  0  0  0  0  0  0  0  0  0  0
    3.5066    1.6942   -0.1634 H   0  0  0  0  0  0  0  0  0  0  0  0
    3.8333    0.4908    1.1921 H   0  0  0  0  0  0  0  0  0  0  0  0
  1  2  2  0
  2  3  1  0
  3  4  1  0
  2  5  1  0
  5  6  1  0
  6  7  1  0
  7  8  1  0
  8  9  1  0
  9 10  2  0
  9 11  1  0
 11 12  1  0
 12 13  1  0
 13 14  1  0
 14 15  1  0
 15 16  2  0
 16 17  1  0
 17 18  2  0
 18 19  1  0
 18 20  1  0
 20 21  2  0
 14 22  1  0
 22 23  1  0
  8 24  1  0
 24 25  1  0
 25  5  1  0
 23 11  1  0
 21 15  1  0
  3 26  1  0
  3 27  1  0
  4 28  1  0
  6 29  1  0
  6 30  1  0
  7 31  1  0
  7 32  1  0
 12 33  1  0
 12 34  1  0
 13 35  1  0
 13 36  1  0
 16 37  1  0
 17 38  1  0
 20 39  1  0
 21 40  1  0
 22 41  1  0
 22 42  1  0
 23 43  1  0
 23 44  1  0
 24 45  1  0
 24 46  1  0
 25 47  1  0
 25 48  1  0
M  END
$$$$
