@<TRIPOS>MOLECULE
*****
 48 50 0 0 0
SMALL
GASTEIGER

@<TRIPOS>ATOM
      1 O           5.3770   -0.7066   -2.4008 O.2     1  UNL1       -0.2731
      2 C           4.9375    0.1045   -1.5547 C.2     1  UNL1        0.2412
      3 C           5.5749    1.4287   -1.4279 C.3     1  UNL1        0.1204
      4 O           6.6461    1.5404   -2.3195 O.3     1  UNL1       -0.3858
      5 N           3.8506   -0.2612   -0.7461 N.am    1  UNL1       -0.2966
      6 C           3.1802   -1.5726   -0.8395 C.3     1  UNL1        0.0306
      7 C           2.6075   -1.8833    0.5409 C.3     1  UNL1        0.0320
      8 N           1.5525   -0.8635    0.7698 N.am    1  UNL1       -0.2825
      9 C           0.3682   -1.3173    1.3399 C.2     1  UNL1        0.3050
     10 O           0.3562   -2.5948    1.6035 O.2     1  UNL1       -0.2524
     11 N          -0.7851   -0.6100    1.6627 N.am    1  UNL1       -0.2825
     12 C          -0.9633    0.7925    1.4362 C.3     1  UNL1        0.0319
     13 C          -2.4672    1.1036    1.5484 C.3     1  UNL1        0.0281
     14 N          -3.1205    0.0643    0.7930 N.pl3   1  UNL1       -0.3269
     15 C          -3.7931    0.3678   -0.4034 C.ar    1  UNL1        0.0299
     16 C          -4.5878   -0.6308   -0.9515 C.ar    1  UNL1       -0.0393
     17 C          -5.2531   -0.3829   -2.1189 C.ar    1  UNL1       -0.0416
     18 C          -5.1284    0.8589   -2.7424 C.ar    1  UNL1        0.0411
     19 CL         -5.9969    1.1157   -4.2223 Cl      1  UNL1       -0.0835
     20 C          -4.3401    1.8482   -2.1980 C.ar    1  UNL1       -0.0416
     21 C          -3.6684    1.5835   -1.0101 C.ar    1  UNL1       -0.0393
     22 C          -3.0537   -1.3217    1.3010 C.3     1  UNL1        0.0281
     23 C          -1.9180   -1.3520    2.2978 C.3     1  UNL1        0.0319
     24 C           1.8270    0.4876    0.4000 C.3     1  UNL1        0.0320
     25 C           3.3472    0.6763    0.2382 C.3     1  UNL1        0.0306
     26 H           5.9978    1.5055   -0.4049 H       1  UNL1        0.0654
     27 H           4.8520    2.2609   -1.5638 H       1  UNL1        0.0654
     28 H           7.4083    1.0493   -1.8932 H       1  UNL1        0.2100
     29 H           2.3285   -1.5384   -1.5324 H       1  UNL1        0.0480
     30 H           3.8957   -2.3273   -1.1779 H       1  UNL1        0.0480
     31 H           2.1653   -2.8778    0.5092 H       1  UNL1        0.0480
     32 H           3.4157   -1.8053    1.2762 H       1  UNL1        0.0480
     33 H          -0.4640    1.4041    2.2198 H       1  UNL1        0.0480
     34 H          -0.6763    1.0357    0.4113 H       1  UNL1        0.0480
     35 H          -2.6183    2.1169    1.2313 H       1  UNL1        0.0479
     36 H          -2.6896    0.9632    2.6320 H       1  UNL1        0.0479
     37 H          -4.6647   -1.6001   -0.4338 H       1  UNL1        0.0636
     38 H          -5.8727   -1.1602   -2.5471 H       1  UNL1        0.0633
     39 H          -4.2524    2.7989   -2.6870 H       1  UNL1        0.0633
     40 H          -3.0656    2.3931   -0.6393 H       1  UNL1        0.0636
     41 H          -2.7488   -1.9355    0.4423 H       1  UNL1        0.0479
     42 H          -3.9905   -1.6242    1.7769 H       1  UNL1        0.0479
     43 H          -1.6310   -2.4178    2.4410 H       1  UNL1        0.0480
     44 H          -2.1781   -0.8979    3.2719 H       1  UNL1        0.0480
     45 H           1.5419    1.2617    1.1217 H       1  UNL1        0.0480
     46 H           1.3572    0.7350   -0.5812 H       1  UNL1        0.0480
     47 H           3.5066    1.6942   -0.1634 H       1  UNL1        0.0480
     48 H           3.8333    0.4908    1.1921 H       1  UNL1        0.0480
@<TRIPOS>BOND
     1     1     2    2
     2     2     3    1
     3     3     4    1
     4     2     5   am
     5     5     6    1
     6     6     7    1
     7     7     8    1
     8     8     9   am
     9     9    10    2
    10     9    11   am
    11    11    12    1
    12    12    13    1
    13    13    14    1
    14    14    15    1
    15    15    16   ar
    16    16    17   ar
    17    17    18   ar
    18    18    19    1
    19    18    20   ar
    20    20    21   ar
    21    14    22    1
    22    22    23    1
    23     8    24    1
    24    24    25    1
    25    25     5    1
    26    23    11    1
    27    21    15   ar
    28     3    26    1
    29     3    27    1
    30     4    28    1
    31     6    29    1
    32     6    30    1
    33     7    31    1
    34     7    32    1
    35    12    33    1
    36    12    34    1
    37    13    35    1
    38    13    36    1
    39    16    37    1
    40    17    38    1
    41    20    39    1
    42    21    40    1
    43    22    41    1
    44    22    42    1
    45    23    43    1
    46    23    44    1
    47    24    45    1
    48    24    46    1
    49    25    47    1
    50    25    48    1
