@<TRIPOS>MOLECULE
*****
 30 31 0 0 0
SMALL
GASTEIGER

@<TRIPOS>ATOM
      1 C           3.5635   -1.4592   -1.5872 C.3     1  UNL1       -0.0383
      2 C           2.9414   -0.4940   -0.6480 C.ar    1  UNL1       -0.0302
      3 C           1.6232   -0.6064   -0.1899 C.ar    1  UNL1        0.0664
      4 CL          0.7717   -2.0152   -0.8428 Cl      1  UNL1       -0.0813
      5 C           1.0739    0.3273    0.6973 C.ar    1  UNL1        0.0687
      6 N          -0.2365   -0.0055    1.0124 N.pl3   1  UNL1       -0.3116
      7 C          -1.5154   -0.1991    0.5045 C.ar    1  UNL1        0.0455
      8 C          -1.9276   -1.5080    0.8152 C.ar    1  UNL1       -0.0397
      9 C          -3.1764   -2.0075    0.4327 C.ar    1  UNL1       -0.0600
     10 C          -3.9959   -1.1537   -0.2696 C.ar    1  UNL1       -0.0609
     11 C          -3.6521    0.1319   -0.6032 C.ar    1  UNL1       -0.0460
     12 C          -2.4135    0.5611   -0.1992 C.ar    1  UNL1        0.0799
     13 C          -1.9384    1.8931   -0.5329 C.2     1  UNL1        0.3386
     14 O          -2.7732    2.7479   -1.2233 O.3     1  UNL1       -0.4771
     15 O          -0.8419    2.4391   -0.2931 O.2     1  UNL1       -0.2451
     16 C           1.8678    1.3641    1.1115 C.ar    1  UNL1        0.0635
     17 CL          1.1662    2.4824    2.2516 Cl      1  UNL1       -0.0816
     18 C           3.1650    1.4688    0.6556 C.ar    1  UNL1       -0.0412
     19 C           3.7091    0.5516   -0.2187 C.ar    1  UNL1       -0.0560
     20 H           4.6287   -1.6895   -1.2990 H       1  UNL1        0.0278
     21 H           3.0176   -2.4336   -1.4996 H       1  UNL1        0.0278
     22 H           3.4934   -1.1559   -2.6372 H       1  UNL1        0.0278
     23 H          -0.1014   -0.1405    2.0625 H       1  UNL1        0.1523
     24 H          -1.3761   -2.2684    1.3589 H       1  UNL1        0.0636
     25 H          -3.5401   -3.0006    0.6451 H       1  UNL1        0.0618
     26 H          -4.9722   -1.4720   -0.5964 H       1  UNL1        0.0618
     27 H          -4.2561    0.8414   -1.1514 H       1  UNL1        0.0626
     28 H          -2.7344    3.7360   -1.0135 H       1  UNL1        0.2954
     29 H           3.6921    2.3305    1.0525 H       1  UNL1        0.0633
     30 H           4.7377    0.7343   -0.5094 H       1  UNL1        0.0621
@<TRIPOS>BOND
     1     1     2    1
     2     2     3   ar
     3     3     4    1
     4     3     5   ar
     5     5     6    1
     6     6     7    1
     7     7     8   ar
     8     8     9   ar
     9     9    10   ar
    10    10    11   ar
    11    11    12   ar
    12    12    13    1
    13    13    14    1
    14    13    15    2
    15     5    16   ar
    16    16    17    1
    17    16    18   ar
    18    18    19   ar
    19    19     2   ar
    20    12     7   ar
    21     1    20    1
    22     1    21    1
    23     1    22    1
    24     6    23    1
    25     8    24    1
    26     9    25    1
    27    10    26    1
    28    11    27    1
    29    14    28    1
    30    18    29    1
    31    19    30    1
