
     RDKit          3D

 74 78  0  0  0  0  0  0  0  0999 V2000
   -0.6990    1.5974    3.5815 C   0  0  0  0  0  0  0  0  0  0  0  0
    0.5833    1.5366    3.0005 O   0  0  0  0  0  0  0  0  0  0  0  0
    0.7086    1.7528    1.6379 C   0  0  0  0  0  0  0  0  0  0  0  0
   -0.3895    2.0189    0.8654 C   0  0  0  0  0  0  0  0  0  0  0  0
   -0.2465    2.2254   -0.4685 C   0  0  0  0  0  0  0  0  0  0  0  0
   -1.3631    2.5136   -1.2213 C   0  0  0  0  0  0  0  0  0  0  0  0
   -2.6647    2.5813   -0.6241 N   0  0  0  0  0  0  0  0  0  0  0  0
   -3.6865    1.6734   -0.8881 C   0  0  0  0  0  0  0  0  0  0  0  0
   -3.8386    0.3541   -0.9436 N   0  0  0  0  0  0  0  0  0  0  0  0
   -4.9413   -0.2212   -1.2418 C   0  0  0  0  0  0  0  0  0  0  0  0
   -6.0578    0.4887   -1.5302 C   0  0  0  0  0  0  0  0  0  0  0  0
   -7.4056    0.1247   -1.9185 C   0  0  0  0  0  0  0  0  0  0  0  0
   -8.2445   -0.3727   -0.7972 C   0  0  0  0  0  0  0  0  0  0  0  0
   -7.7510   -0.4604    0.3694 O   0  0  0  0  0  0  0  0  0  0  0  0
   -9.5830   -0.7561   -0.9814 N   0  0  0  0  0  0  0  0  0  0  0  0
  -10.3719   -1.2451    0.1310 C   0  0  0  0  0  0  0  0  0  0  0  0
  -10.4194   -2.5950    0.3932 C   0  0  0  0  0  0  0  0  0  0  0  0
  -11.1703   -3.0470    1.4488 C   0  0  0  0  0  0  0  0  0  0  0  0
  -11.8988   -2.2154    2.2834 C   0  0  0  0  0  0  0  0  0  0  0  0
  -11.8226   -0.8599    1.9824 C   0  0  0  0  0  0  0  0  0  0  0  0
  -12.5288   -0.0197    2.7830 F   0  0  0  0  0  0  0  0  0  0  0  0
  -11.0752   -0.3833    0.9291 C   0  0  0  0  0  0  0  0  0  0  0  0
   -5.4212    2.1670   -1.3414 S   0  0  0  0  0  0  0  0  0  0  0  0
   -1.1567    2.7295   -2.5315 N   0  0  0  0  0  0  0  0  0  0  0  0
    0.0595    2.6715   -3.0940 C   0  0  0  0  0  0  0  0  0  0  0  0
    1.1483    2.3890   -2.3558 N   0  0  0  0  0  0  0  0  0  0  0  0
    1.0168    2.1620   -1.0285 C   0  0  0  0  0  0  0  0  0  0  0  0
    2.1454    1.8996   -0.3035 C   0  0  0  0  0  0  0  0  0  0  0  0
    2.0156    1.6870    1.0693 C   0  0  0  0  0  0  0  0  0  0  0  0
    3.0144    1.4325    1.8720 O   0  0  0  0  0  0  0  0  0  0  0  0
    4.1705    1.1941    2.3941 C   0  0  0  0  0  0  0  0  0  0  0  0
    5.0361    0.0342    1.9187 C   0  0  0  0  0  0  0  0  0  0  0  0
    5.4535    0.1581    0.4997 C   0  0  0  0  0  0  0  0  0  0  0  0
    6.3248   -0.9278    0.0247 N   0  0  0  0  0  0  0  0  0  0  0  0
    7.5660   -0.7814    0.7738 C   0  0  0  0  0  0  0  0  0  0  0  0
    8.5129   -1.8860    0.2991 C   0  0  0  0  0  0  0  0  0  0  0  0
    8.9239   -1.5505   -1.1221 C   0  0  0  0  0  0  0  0  0  0  0  0
    9.8447   -2.6012   -1.6772 C   0  0  0  0  0  0  0  0  0  0  0  0
   11.0077   -2.7295   -0.9227 O   0  0  0  0  0  0  0  0  0  0  0  0
    7.6353   -1.5758   -1.9461 C   0  0  0  0  0  0  0  0  0  0  0  0
    6.6668   -0.6082   -1.3847 C   0  0  0  0  0  0  0  0  0  0  0  0
   -1.1265    2.6390    3.5671 H   0  0  0  0  0  0  0  0  0  0  0  0
   -1.4185    0.9335    3.0597 H   0  0  0  0  0  0  0  0  0  0  0  0
   -0.6935    1.2783    4.6550 H   0  0  0  0  0  0  0  0  0  0  0  0
   -1.3761    2.0710    1.2901 H   0  0  0  0  0  0  0  0  0  0  0  0
   -2.7742    3.4032    0.0488 H   0  0  0  0  0  0  0  0  0  0  0  0
   -5.0184   -1.3483   -1.2702 H   0  0  0  0  0  0  0  0  0  0  0  0
   -7.9639    0.9999   -2.3661 H   0  0  0  0  0  0  0  0  0  0  0  0
   -7.3700   -0.6265   -2.7340 H   0  0  0  0  0  0  0  0  0  0  0  0
  -10.0550   -0.7075   -1.9048 H   0  0  0  0  0  0  0  0  0  0  0  0
   -9.8568   -3.2732   -0.2546 H   0  0  0  0  0  0  0  0  0  0  0  0
  -11.2194   -4.1223    1.6765 H   0  0  0  0  0  0  0  0  0  0  0  0
  -12.4757   -2.6060    3.0960 H   0  0  0  0  0  0  0  0  0  0  0  0
  -11.0505    0.7006    0.7396 H   0  0  0  0  0  0  0  0  0  0  0  0
    0.2012    2.8554   -4.1714 H   0  0  0  0  0  0  0  0  0  0  0  0
    3.1384    1.8467   -0.7179 H   0  0  0  0  0  0  0  0  0  0  0  0
    4.1583    1.0242    3.5506 H   0  0  0  0  0  0  0  0  0  0  0  0
    4.8182    2.1429    2.3737 H   0  0  0  0  0  0  0  0  0  0  0  0
    4.4295   -0.8979    2.1020 H   0  0  0  0  0  0  0  0  0  0  0  0
    5.8968    0.0010    2.6227 H   0  0  0  0  0  0  0  0  0  0  0  0
    4.5336    0.0451   -0.1312 H   0  0  0  0  0  0  0  0  0  0  0  0
    5.8811    1.1586    0.2768 H   0  0  0  0  0  0  0  0  0  0  0  0
    7.4263   -0.9253    1.8605 H   0  0  0  0  0  0  0  0  0  0  0  0
    7.9737    0.2274    0.5569 H   0  0  0  0  0  0  0  0  0  0  0  0
    9.3684   -1.9752    0.9741 H   0  0  0  0  0  0  0  0  0  0  0  0
    7.9264   -2.8306    0.2992 H   0  0  0  0  0  0  0  0  0  0  0  0
    9.3364   -0.5428   -1.1258 H   0  0  0  0  0  0  0  0  0  0  0  0
   10.1161   -2.3421   -2.7400 H   0  0  0  0  0  0  0  0  0  0  0  0
    9.2683   -3.5548   -1.7452 H   0  0  0  0  0  0  0  0  0  0  0  0
   11.0152   -2.0565   -0.1802 H   0  0  0  0  0  0  0  0  0  0  0  0
    7.2166   -2.5858   -1.9374 H   0  0  0  0  0  0  0  0  0  0  0  0
    7.8428   -1.2632   -3.0010 H   0  0  0  0  0  0  0  0  0  0  0  0
    5.7030   -0.6622   -1.9381 H   0  0  0  0  0  0  0  0  0  0  0  0
    7.0495    0.4385   -1.3873 H   0  0  0  0  0  0  0  0  0  0  0  0
  1  2  1  0
  2  3  1  0
  3  4  2  0
  4  5  1  0
  5  6  2  0
  6  7  1  0
  7  8  1  0
  8  9  2  0
  9 10  1  0
 10 11  2  0
 11 12  1  0
 12 13  1  0
 13 14  2  0
 13 15  1  0
 15 16  1  0
 16 17  2  0
 17 18  1  0
 18 19  2  0
 19 20  1  0
 20 21  1  0
 20 22  2  0
 11 23  1  0
  6 24  1  0
 24 25  2  0
 25 26  1  0
 26 27  2  0
 27 28  1  0
 28 29  2  0
 29 30  1  0
 30 31  1  0
 31 32  1  0
 32 33  1  0
 33 34  1  0
 34 35  1  0
 35 36  1  0
 36 37  1  0
 37 38  1  0
 38 39  1  0
 37 40  1  0
 40 41  1  0
 29  3  1  0
 41 34  1  0
 27  5  1  0
 23  8  1  0
 22 16  1  0
  1 42  1  0
  1 43  1  0
  1 44  1  0
  4 45  1  0
  7 46  1  0
 10 47  1  0
 12 48  1  0
 12 49  1  0
 15 50  1  0
 17 51  1  0
 18 52  1  0
 19 53  1  0
 22 54  1  0
 25 55  1  0
 28 56  1  0
 31 57  1  0
 31 58  1  0
 32 59  1  0
 32 60  1  0
 33 61  1  0
 33 62  1  0
 35 63  1  0
 35 64  1  0
 36 65  1  0
 36 66  1  0
 37 67  1  0
 38 68  1  0
 38 69  1  0
 39 70  1  0
 40 71  1  0
 40 72  1  0
 41 73  1  0
 41 74  1  0
M  END
$$$$
