@<TRIPOS>MOLECULE
*****
 74 78 0 0 0
SMALL
GASTEIGER

@<TRIPOS>ATOM
      1 C          -0.6990    1.5974    3.5815 C.3     1  UNL1        0.0790
      2 O           0.5833    1.5366    3.0005 O.3     1  UNL1       -0.4914
      3 C           0.7086    1.7528    1.6379 C.ar    1  UNL1        0.1623
      4 C          -0.3895    2.0189    0.8654 C.ar    1  UNL1       -0.0038
      5 C          -0.2465    2.2254   -0.4685 C.ar    1  UNL1        0.0442
      6 C          -1.3631    2.5136   -1.2213 C.ar    1  UNL1        0.1354
      7 N          -2.6647    2.5813   -0.6241 N.pl3   1  UNL1       -0.2781
      8 C          -3.6865    1.6734   -0.8881 C.ar    1  UNL1        0.1636
      9 N          -3.8386    0.3541   -0.9436 N.ar    1  UNL1       -0.2327
     10 C          -4.9413   -0.2212   -1.2418 C.ar    1  UNL1        0.0405
     11 C          -6.0578    0.4887   -1.5302 C.ar    1  UNL1        0.0198
     12 C          -7.4056    0.1247   -1.9185 C.3     1  UNL1        0.0572
     13 C          -8.2445   -0.3727   -0.7972 C.2     1  UNL1        0.2221
     14 O          -7.7510   -0.4604    0.3694 O.2     1  UNL1       -0.2751
     15 N          -9.5830   -0.7561   -0.9814 N.am    1  UNL1       -0.2851
     16 C         -10.3719   -1.2451    0.1310 C.ar    1  UNL1        0.0361
     17 C         -10.4194   -2.5950    0.3932 C.ar    1  UNL1       -0.0403
     18 C         -11.1703   -3.0470    1.4488 C.ar    1  UNL1       -0.0573
     19 C         -11.8988   -2.2154    2.2834 C.ar    1  UNL1       -0.0263
     20 C         -11.8226   -0.8599    1.9824 C.ar    1  UNL1        0.1252
     21 F         -12.5288   -0.0197    2.7830 F       1  UNL1       -0.2054
     22 C         -11.0752   -0.3833    0.9291 C.ar    1  UNL1       -0.0052
     23 S          -5.4212    2.1670   -1.3414 S.2     1  UNL1       -0.0566
     24 N          -1.1567    2.7295   -2.5315 N.ar    1  UNL1       -0.2199
     25 C           0.0595    2.6715   -3.0940 C.ar    1  UNL1        0.1187
     26 N           1.1483    2.3890   -2.3558 N.ar    1  UNL1       -0.2352
     27 C           1.0168    2.1620   -1.0285 C.ar    1  UNL1        0.0797
     28 C           2.1454    1.8996   -0.3035 C.ar    1  UNL1        0.0098
     29 C           2.0156    1.6870    1.0693 C.ar    1  UNL1        0.1639
     30 O           3.0144    1.4325    1.8720 O.3     1  UNL1       -0.4882
     31 C           4.1705    1.1941    2.3941 C.3     1  UNL1        0.0909
     32 C           5.0361    0.0342    1.9187 C.3     1  UNL1       -0.0058
     33 C           5.4535    0.1581    0.4997 C.3     1  UNL1        0.0020
     34 N           6.3248   -0.9278    0.0247 N.3     1  UNL1       -0.3022
     35 C           7.5660   -0.7814    0.7738 C.3     1  UNL1       -0.0008
     36 C           8.5129   -1.8860    0.2991 C.3     1  UNL1       -0.0352
     37 C           8.9239   -1.5505   -1.1221 C.3     1  UNL1       -0.0155
     38 C           9.8447   -2.6012   -1.6772 C.3     1  UNL1        0.0471
     39 O          11.0077   -2.7295   -0.9227 O.3     1  UNL1       -0.3947
     40 C           7.6353   -1.5758   -1.9461 C.3     1  UNL1       -0.0352
     41 C           6.6668   -0.6082   -1.3847 C.3     1  UNL1       -0.0008
     42 H          -1.1265    2.6390    3.5671 H       1  UNL1        0.0660
     43 H          -1.4185    0.9335    3.0597 H       1  UNL1        0.0660
     44 H          -0.6935    1.2783    4.6550 H       1  UNL1        0.0660
     45 H          -1.3761    2.0710    1.2901 H       1  UNL1        0.0663
     46 H          -2.7742    3.4032    0.0488 H       1  UNL1        0.1555
     47 H          -5.0184   -1.3483   -1.2702 H       1  UNL1        0.0838
     48 H          -7.9639    0.9999   -2.3661 H       1  UNL1        0.0413
     49 H          -7.3700   -0.6265   -2.7340 H       1  UNL1        0.0413
     50 H         -10.0550   -0.7075   -1.9048 H       1  UNL1        0.1548
     51 H          -9.8568   -3.2732   -0.2546 H       1  UNL1        0.0636
     52 H         -11.2194   -4.1223    1.6765 H       1  UNL1        0.0619
     53 H         -12.4757   -2.6060    3.0960 H       1  UNL1        0.0646
     54 H         -11.0505    0.7006    0.7396 H       1  UNL1        0.0665
     55 H           0.2012    2.8554   -4.1714 H       1  UNL1        0.1048
     56 H           3.1384    1.8467   -0.7179 H       1  UNL1        0.0677
     57 H           4.1583    1.0242    3.5506 H       1  UNL1        0.0697
     58 H           4.8182    2.1429    2.3737 H       1  UNL1        0.0697
     59 H           4.4295   -0.8979    2.1020 H       1  UNL1        0.0310
     60 H           5.8968    0.0010    2.6227 H       1  UNL1        0.0310
     61 H           4.5336    0.0451   -0.1312 H       1  UNL1        0.0428
     62 H           5.8811    1.1586    0.2768 H       1  UNL1        0.0428
     63 H           7.4263   -0.9253    1.8605 H       1  UNL1        0.0427
     64 H           7.9737    0.2274    0.5569 H       1  UNL1        0.0427
     65 H           9.3684   -1.9752    0.9741 H       1  UNL1        0.0281
     66 H           7.9264   -2.8306    0.2992 H       1  UNL1        0.0281
     67 H           9.3364   -0.5428   -1.1258 H       1  UNL1        0.0324
     68 H          10.1161   -2.3421   -2.7400 H       1  UNL1        0.0560
     69 H           9.2683   -3.5548   -1.7452 H       1  UNL1        0.0560
     70 H          11.0152   -2.0565   -0.1802 H       1  UNL1        0.2094
     71 H           7.2166   -2.5858   -1.9374 H       1  UNL1        0.0281
     72 H           7.8428   -1.2632   -3.0010 H       1  UNL1        0.0281
     73 H           5.7030   -0.6622   -1.9381 H       1  UNL1        0.0427
     74 H           7.0495    0.4385   -1.3873 H       1  UNL1        0.0427
@<TRIPOS>BOND
     1     1     2    1
     2     2     3    1
     3     3     4   ar
     4     4     5   ar
     5     5     6   ar
     6     6     7    1
     7     7     8    1
     8     8     9   ar
     9     9    10   ar
    10    10    11   ar
    11    11    12    1
    12    12    13    1
    13    13    14    2
    14    13    15   am
    15    15    16    1
    16    16    17   ar
    17    17    18   ar
    18    18    19   ar
    19    19    20   ar
    20    20    21    1
    21    20    22   ar
    22    11    23   ar
    23     6    24   ar
    24    24    25   ar
    25    25    26   ar
    26    26    27   ar
    27    27    28   ar
    28    28    29   ar
    29    29    30    1
    30    30    31    1
    31    31    32    1
    32    32    33    1
    33    33    34    1
    34    34    35    1
    35    35    36    1
    36    36    37    1
    37    37    38    1
    38    38    39    1
    39    37    40    1
    40    40    41    1
    41    29     3   ar
    42    41    34    1
    43    27     5   ar
    44    23     8   ar
    45    22    16   ar
    46     1    42    1
    47     1    43    1
    48     1    44    1
    49     4    45    1
    50     7    46    1
    51    10    47    1
    52    12    48    1
    53    12    49    1
    54    15    50    1
    55    17    51    1
    56    18    52    1
    57    19    53    1
    58    22    54    1
    59    25    55    1
    60    28    56    1
    61    31    57    1
    62    31    58    1
    63    32    59    1
    64    32    60    1
    65    33    61    1
    66    33    62    1
    67    35    63    1
    68    35    64    1
    69    36    65    1
    70    36    66    1
    71    37    67    1
    72    38    68    1
    73    38    69    1
    74    39    70    1
    75    40    71    1
    76    40    72    1
    77    41    73    1
    78    41    74    1
