
     RDKit          3D

 46 49  0  0  0  0  0  0  0  0999 V2000
    5.1234    3.1161   -0.6200 C   0  0  0  0  0  0  0  0  0  0  0  0
    4.1672    2.0867   -0.1350 C   0  0  0  0  0  0  0  0  0  0  0  0
    3.0069    2.2452    0.5090 N   0  0  0  0  0  0  0  0  0  0  0  0
    2.4974    1.0548    0.7421 N   0  0  0  0  0  0  0  0  0  0  0  0
    3.3016    0.0882    0.2620 C   0  0  0  0  0  0  0  0  0  0  0  0
    3.0173   -1.3811    0.3594 C   0  0  0  0  0  0  0  0  0  0  0  0
    3.7693   -2.3783   -0.0933 C   0  0  0  0  0  0  0  0  0  0  0  0
    5.1055   -2.1360   -0.8154 C   0  0  0  0  0  0  0  0  0  0  0  0
    3.3813   -3.6801    0.0671 C   0  0  0  0  0  0  0  0  0  0  0  0
    1.7734   -3.5583    0.9543 S   0  0  0  0  0  0  0  0  0  0  0  0
    1.8095   -1.7440    1.0076 C   0  0  0  0  0  0  0  0  0  0  0  0
    0.8143   -0.9562    1.5855 N   0  0  0  0  0  0  0  0  0  0  0  0
   -0.2954   -0.4981    0.8234 C   0  0  0  0  0  0  0  0  0  0  0  0
   -0.3375   -0.8324   -0.3824 O   0  0  0  0  0  0  0  0  0  0  0  0
   -1.3095    0.3256    1.4824 C   0  0  0  0  0  0  0  0  0  0  0  0
   -2.3822    0.7291    0.6140 N   0  0  0  0  0  0  0  0  0  0  0  0
   -2.3140    1.9625   -0.1309 C   0  0  0  0  0  0  0  0  0  0  0  0
   -1.1793    2.4877   -0.2321 O   0  0  0  0  0  0  0  0  0  0  0  0
   -3.4595    2.6152   -0.7560 C   0  0  0  0  0  0  0  0  0  0  0  0
   -4.5309    1.6529   -1.1892 C   0  0  0  0  0  0  0  0  0  0  0  0
   -4.5480    0.4066   -0.4216 C   0  0  0  0  0  0  0  0  0  0  0  0
   -5.6660   -0.3868   -0.5704 C   0  0  0  0  0  0  0  0  0  0  0  0
   -5.8436   -1.5846    0.0757 C   0  0  0  0  0  0  0  0  0  0  0  0
   -4.8439   -1.9952    0.9086 C   0  0  0  0  0  0  0  0  0  0  0  0
   -3.6929   -1.2466    1.1042 C   0  0  0  0  0  0  0  0  0  0  0  0
   -3.5588   -0.0448    0.4308 C   0  0  0  0  0  0  0  0  0  0  0  0
    4.3179    0.7218   -0.2717 N   0  0  0  0  0  0  0  0  0  0  0  0
    5.1092    3.9765    0.0769 H   0  0  0  0  0  0  0  0  0  0  0  0
    6.1668    2.6925   -0.5738 H   0  0  0  0  0  0  0  0  0  0  0  0
    4.9509    3.3977   -1.6668 H   0  0  0  0  0  0  0  0  0  0  0  0
    5.5566   -3.1470   -1.0731 H   0  0  0  0  0  0  0  0  0  0  0  0
    5.8286   -1.7172   -0.1058 H   0  0  0  0  0  0  0  0  0  0  0  0
    4.9656   -1.6608   -1.7739 H   0  0  0  0  0  0  0  0  0  0  0  0
    3.8242   -4.6349   -0.2145 H   0  0  0  0  0  0  0  0  0  0  0  0
    0.8827   -0.6974    2.5930 H   0  0  0  0  0  0  0  0  0  0  0  0
   -0.7652    1.2164    1.8967 H   0  0  0  0  0  0  0  0  0  0  0  0
   -1.6944   -0.1986    2.3688 H   0  0  0  0  0  0  0  0  0  0  0  0
   -3.1076    3.2345   -1.6167 H   0  0  0  0  0  0  0  0  0  0  0  0
   -3.8987    3.3345   -0.0306 H   0  0  0  0  0  0  0  0  0  0  0  0
   -5.5342    2.1352   -1.0704 H   0  0  0  0  0  0  0  0  0  0  0  0
   -4.4254    1.4641   -2.2800 H   0  0  0  0  0  0  0  0  0  0  0  0
   -6.4914   -0.0864   -1.2340 H   0  0  0  0  0  0  0  0  0  0  0  0
   -6.7598   -2.1738   -0.0842 H   0  0  0  0  0  0  0  0  0  0  0  0
   -4.9611   -2.9352    1.4284 H   0  0  0  0  0  0  0  0  0  0  0  0
   -2.9160   -1.6112    1.7736 H   0  0  0  0  0  0  0  0  0  0  0  0
    5.1455    0.3417   -0.7419 H   0  0  0  0  0  0  0  0  0  0  0  0
  1  2  1  0
  2  3  2  0
  3  4  1  0
  4  5  2  0
  5  6  1  0
  6  7  1  0
  7  8  1  0
  7  9  2  0
  9 10  1  0
 10 11  1  0
 11 12  1  0
 12 13  1  0
 13 14  2  0
 13 15  1  0
 15 16  1  0
 16 17  1  0
 17 18  2  0
 17 19  1  0
 19 20  1  0
 20 21  1  0
 21 22  2  0
 22 23  1  0
 23 24  2  0
 24 25  1  0
 25 26  2  0
  5 27  1  0
 27  2  1  0
 11  6  2  0
 26 16  1  0
 26 21  1  0
  1 28  1  0
  1 29  1  0
  1 30  1  0
  8 31  1  0
  8 32  1  0
  8 33  1  0
  9 34  1  0
 12 35  1  0
 15 36  1  0
 15 37  1  0
 19 38  1  0
 19 39  1  0
 20 40  1  0
 20 41  1  0
 22 42  1  0
 23 43  1  0
 24 44  1  0
 25 45  1  0
 27 46  1  0
M  END
$$$$
