@<TRIPOS>MOLECULE
*****
 46 49 0 0 0
SMALL
GASTEIGER

@<TRIPOS>ATOM
      1 C           5.1234    3.1161   -0.6200 C.3     1  UNL1       -0.0046
      2 C           4.1672    2.0867   -0.1350 C.ar    1  UNL1        0.1280
      3 N           3.0069    2.2452    0.5090 N.ar    1  UNL1       -0.1345
      4 N           2.4974    1.0548    0.7421 N.ar    1  UNL1       -0.1293
      5 C           3.3016    0.0882    0.2620 C.ar    1  UNL1        0.1642
      6 C           3.0173   -1.3811    0.3594 C.ar    1  UNL1        0.0504
      7 C           3.7693   -2.3783   -0.0933 C.ar    1  UNL1       -0.0309
      8 C           5.1055   -2.1360   -0.8154 C.3     1  UNL1       -0.0385
      9 C           3.3813   -3.6801    0.0671 C.ar    1  UNL1       -0.0189
     10 S           1.7734   -3.5583    0.9543 S.2     1  UNL1       -0.0809
     11 C           1.8095   -1.7440    1.0076 C.ar    1  UNL1        0.0827
     12 N           0.8143   -0.9562    1.5855 N.am    1  UNL1       -0.2781
     13 C          -0.2954   -0.4981    0.8234 C.2     1  UNL1        0.2354
     14 O          -0.3375   -0.8324   -0.3824 O.2     1  UNL1       -0.2737
     15 C          -1.3095    0.3256    1.4824 C.3     1  UNL1        0.0964
     16 N          -2.3822    0.7291    0.6140 N.am    1  UNL1       -0.2623
     17 C          -2.3140    1.9625   -0.1309 C.2     1  UNL1        0.2205
     18 O          -1.1793    2.4877   -0.2321 O.2     1  UNL1       -0.2752
     19 C          -3.4595    2.6152   -0.7560 C.3     1  UNL1        0.0285
     20 C          -4.5309    1.6529   -1.1892 C.3     1  UNL1       -0.0177
     21 C          -4.5480    0.4066   -0.4216 C.ar    1  UNL1       -0.0255
     22 C          -5.6660   -0.3868   -0.5704 C.ar    1  UNL1       -0.0568
     23 C          -5.8436   -1.5846    0.0757 C.ar    1  UNL1       -0.0614
     24 C          -4.8439   -1.9952    0.9086 C.ar    1  UNL1       -0.0600
     25 C          -3.6929   -1.2466    1.1042 C.ar    1  UNL1       -0.0400
     26 C          -3.5588   -0.0448    0.4308 C.ar    1  UNL1        0.0400
     27 N           4.3179    0.7218   -0.2717 N.ar    1  UNL1       -0.3253
     28 H           5.1092    3.9765    0.0769 H       1  UNL1        0.0308
     29 H           6.1668    2.6925   -0.5738 H       1  UNL1        0.0308
     30 H           4.9509    3.3977   -1.6668 H       1  UNL1        0.0308
     31 H           5.5566   -3.1470   -1.0731 H       1  UNL1        0.0278
     32 H           5.8286   -1.7172   -0.1058 H       1  UNL1        0.0278
     33 H           4.9656   -1.6608   -1.7739 H       1  UNL1        0.0278
     34 H           3.8242   -4.6349   -0.2145 H       1  UNL1        0.0697
     35 H           0.8827   -0.6974    2.5930 H       1  UNL1        0.1554
     36 H          -0.7652    1.2164    1.8967 H       1  UNL1        0.0564
     37 H          -1.6944   -0.1986    2.3688 H       1  UNL1        0.0564
     38 H          -3.1076    3.2345   -1.6167 H       1  UNL1        0.0362
     39 H          -3.8987    3.3345   -0.0306 H       1  UNL1        0.0362
     40 H          -5.5342    2.1352   -1.0704 H       1  UNL1        0.0318
     41 H          -4.4254    1.4641   -2.2800 H       1  UNL1        0.0318
     42 H          -6.4914   -0.0864   -1.2340 H       1  UNL1        0.0621
     43 H          -6.7598   -2.1738   -0.0842 H       1  UNL1        0.0618
     44 H          -4.9611   -2.9352    1.4284 H       1  UNL1        0.0618
     45 H          -2.9160   -1.6112    1.7736 H       1  UNL1        0.0636
     46 H           5.1455    0.3417   -0.7419 H       1  UNL1        0.1685
@<TRIPOS>BOND
     1     1     2    1
     2     2     3   ar
     3     3     4   ar
     4     4     5   ar
     5     5     6    1
     6     6     7   ar
     7     7     8    1
     8     7     9   ar
     9     9    10   ar
    10    10    11   ar
    11    11    12    1
    12    12    13   am
    13    13    14    2
    14    13    15    1
    15    15    16    1
    16    16    17   am
    17    17    18    2
    18    17    19    1
    19    19    20    1
    20    20    21    1
    21    21    22   ar
    22    22    23   ar
    23    23    24   ar
    24    24    25   ar
    25    25    26   ar
    26     5    27   ar
    27    27     2   ar
    28    11     6   ar
    29    26    16    1
    30    26    21   ar
    31     1    28    1
    32     1    29    1
    33     1    30    1
    34     8    31    1
    35     8    32    1
    36     8    33    1
    37     9    34    1
    38    12    35    1
    39    15    36    1
    40    15    37    1
    41    19    38    1
    42    19    39    1
    43    20    40    1
    44    20    41    1
    45    22    42    1
    46    23    43    1
    47    24    44    1
    48    25    45    1
    49    27    46    1
