@<TRIPOS>MOLECULE
*****
 51 54 0 0 0
SMALL
GASTEIGER

@<TRIPOS>ATOM
      1 C          -6.8893    1.7050    0.2261 C.3     1  UNL1        0.0029
      2 N          -5.6718    1.0303    0.6150 N.am    1  UNL1       -0.3064
      3 C          -5.5654    0.4718    1.9426 C.3     1  UNL1        0.0029
      4 C          -4.6149    0.9159   -0.2991 C.2     1  UNL1        0.2319
      5 O          -4.7848    1.4162   -1.4687 O.2     1  UNL1       -0.2741
      6 C          -3.3254    0.2631   -0.0163 C.3     1  UNL1        0.1054
      7 C          -2.4156    0.8287    1.0007 C.3     1  UNL1       -0.0220
      8 C          -2.0537    0.8983   -0.4362 C.3     1  UNL1        0.0135
      9 C          -1.0722   -0.0442   -1.0496 C.3     1  UNL1        0.0950
     10 C          -1.7051   -0.5368   -2.3597 C.3     1  UNL1       -0.0351
     11 C           0.1925    0.6373   -1.4402 C.ar    1  UNL1        0.0349
     12 C           1.3963    0.1365   -0.9267 C.ar    1  UNL1       -0.0433
     13 C           2.5771    0.7512   -1.2468 C.ar    1  UNL1       -0.0036
     14 C           3.8876    0.2855   -0.7397 C.2     1  UNL1       -0.0157
     15 C           4.0896   -0.1595    0.4681 C.2     1  UNL1        0.1492
     16 F           2.9883   -0.1795    1.2880 F       1  UNL1       -0.2032
     17 C           5.3578   -0.6257    1.0003 C.ar    1  UNL1        0.0990
     18 C           6.5234   -0.6644    0.2748 C.ar    1  UNL1       -0.0321
     19 C           7.7277   -1.1183    0.8289 C.ar    1  UNL1       -0.0398
     20 C           7.7645   -1.5422    2.1375 C.ar    1  UNL1        0.0591
     21 CL          9.2507   -2.1256    2.8941 Cl      1  UNL1       -0.0820
     22 C           6.5814   -1.4933    2.8431 C.ar    1  UNL1        0.0466
     23 N           5.4329   -1.0505    2.2832 N.ar    1  UNL1       -0.2512
     24 C           2.5160    1.8627   -2.0818 C.ar    1  UNL1        0.0379
     25 N           1.3614    2.3356   -2.5689 N.ar    1  UNL1       -0.2267
     26 C           0.1756    1.7320   -2.2583 C.ar    1  UNL1        0.2187
     27 F          -0.9882    2.1853   -2.7616 F       1  UNL1       -0.1835
     28 N          -0.7143   -1.1730   -0.2217 N.2     1  UNL1       -0.2520
     29 C          -1.5957   -1.9949    0.2116 C.2     1  UNL1        0.1485
     30 N          -1.3436   -3.1220    1.0184 N.pl3   1  UNL1       -0.3380
     31 S          -3.2901   -1.5492   -0.2849 S.3     1  UNL1       -0.0746
     32 H          -6.6536    2.6131   -0.3874 H       1  UNL1        0.0428
     33 H          -7.4014    2.0455    1.1541 H       1  UNL1        0.0428
     34 H          -7.5242    1.0076   -0.3681 H       1  UNL1        0.0428
     35 H          -5.4131   -0.6321    1.8841 H       1  UNL1        0.0428
     36 H          -6.5058    0.6976    2.5257 H       1  UNL1        0.0428
     37 H          -4.7697    0.9925    2.5092 H       1  UNL1        0.0428
     38 H          -1.8022    0.1270    1.6150 H       1  UNL1        0.0287
     39 H          -2.7361    1.7285    1.5423 H       1  UNL1        0.0287
     40 H          -2.2049    1.8450   -1.0040 H       1  UNL1        0.0346
     41 H          -2.7318   -0.1585   -2.4973 H       1  UNL1        0.0256
     42 H          -1.7855   -1.6537   -2.3569 H       1  UNL1        0.0256
     43 H          -1.1257   -0.2202   -3.2490 H       1  UNL1        0.0256
     44 H           1.4103   -0.7410   -0.2723 H       1  UNL1        0.0629
     45 H           4.7140    0.3250   -1.4299 H       1  UNL1        0.0653
     46 H           6.4897   -0.3305   -0.7502 H       1  UNL1        0.0640
     47 H           8.6187   -1.1348    0.2316 H       1  UNL1        0.0633
     48 H           6.6269   -1.8331    3.8831 H       1  UNL1        0.0844
     49 H           3.4817    2.3323   -2.3184 H       1  UNL1        0.0836
     50 H          -1.0492   -2.9709    2.0066 H       1  UNL1        0.1442
     51 H          -1.4309   -4.1156    0.6953 H       1  UNL1        0.1442
@<TRIPOS>BOND
     1     1     2    1
     2     2     3    1
     3     2     4   am
     4     4     5    2
     5     6     4    1
     6     6     7    1
     7     7     8    1
     8     8     9    1
     9     9    10    1
    10     9    11    1
    11    11    12   ar
    12    12    13   ar
    13    13    14    1
    14    14    15    2
    15    15    16    1
    16    15    17    1
    17    17    18   ar
    18    18    19   ar
    19    19    20   ar
    20    20    21    1
    21    20    22   ar
    22    22    23   ar
    23    13    24   ar
    24    24    25   ar
    25    25    26   ar
    26    26    27    1
    27     9    28    1
    28    28    29    2
    29    29    30    1
    30    29    31    1
    31     8     6    1
    32    26    11   ar
    33    31     6    1
    34    23    17   ar
    35     1    32    1
    36     1    33    1
    37     1    34    1
    38     3    35    1
    39     3    36    1
    40     3    37    1
    41     7    38    1
    42     7    39    1
    43     8    40    1
    44    10    41    1
    45    10    42    1
    46    10    43    1
    47    12    44    1
    48    14    45    1
    49    18    46    1
    50    19    47    1
    51    22    48    1
    52    24    49    1
    53    30    50    1
    54    30    51    1
