
     RDKit          3D

 22 23  0  0  0  0  0  0  0  0999 V2000
    3.7685   -1.4221    0.5246 O   0  0  0  0  0  0  0  0  0  0  0  0
    2.7688   -0.6523    0.5068 C   0  0  0  0  0  0  0  0  0  0  0  0
    2.3108   -0.0814    1.6705 O   0  0  0  0  0  0  0  0  0  0  0  0
    2.1352   -0.4088   -0.8136 C   0  0  0  0  0  0  0  0  0  0  0  0
    0.8636    0.3444   -0.6454 C   0  0  0  0  0  0  0  0  0  0  0  0
    0.7049    1.7121   -0.8594 C   0  0  0  0  0  0  0  0  0  0  0  0
   -0.5727    2.0155   -0.5973 N   0  0  0  0  0  0  0  0  0  0  0  0
   -1.2816    0.9423   -0.2219 C   0  0  0  0  0  0  0  0  0  0  0  0
   -2.5970    0.7740    0.1393 C   0  0  0  0  0  0  0  0  0  0  0  0
   -3.0101   -0.4919    0.4789 C   0  0  0  0  0  0  0  0  0  0  0  0
   -2.1440   -1.5708    0.4613 C   0  0  0  0  0  0  0  0  0  0  0  0
   -0.8331   -1.3655    0.0952 C   0  0  0  0  0  0  0  0  0  0  0  0
   -0.3742   -0.1118   -0.2523 C   0  0  0  0  0  0  0  0  0  0  0  0
    3.0399    0.1459    2.3659 H   0  0  0  0  0  0  0  0  0  0  0  0
    1.8448   -1.4008   -1.2483 H   0  0  0  0  0  0  0  0  0  0  0  0
    2.8426    0.0920   -1.4997 H   0  0  0  0  0  0  0  0  0  0  0  0
    1.5199    2.3534   -1.1820 H   0  0  0  0  0  0  0  0  0  0  0  0
   -1.0053    2.9851   -0.6680 H   0  0  0  0  0  0  0  0  0  0  0  0
   -3.3227    1.5659    0.1721 H   0  0  0  0  0  0  0  0  0  0  0  0
   -4.0442   -0.6433    0.7668 H   0  0  0  0  0  0  0  0  0  0  0  0
   -2.4490   -2.5673    0.7240 H   0  0  0  0  0  0  0  0  0  0  0  0
   -0.1651   -2.2146    0.0825 H   0  0  0  0  0  0  0  0  0  0  0  0
  1  2  2  0
  2  3  1  0
  2  4  1  0
  4  5  1  0
  5  6  2  0
  6  7  1  0
  7  8  1  0
  8  9  2  0
  9 10  1  0
 10 11  2  0
 11 12  1  0
 12 13  2  0
 13  5  1  0
 13  8  1  0
  3 14  1  0
  4 15  1  0
  4 16  1  0
  6 17  1  0
  7 18  1  0
  9 19  1  0
 10 20  1  0
 11 21  1  0
 12 22  1  0
M  END
$$$$
