@<TRIPOS>MOLECULE
*****
 22 23 0 0 0
SMALL
GASTEIGER

@<TRIPOS>ATOM
      1 O           3.7685   -1.4221    0.5246 O.2     1  UNL1       -0.2507
      2 C           2.7688   -0.6523    0.5068 C.2     1  UNL1        0.3091
      3 O           2.3108   -0.0814    1.6705 O.3     1  UNL1       -0.4804
      4 C           2.1352   -0.4088   -0.8136 C.3     1  UNL1        0.0718
      5 C           0.8636    0.3444   -0.6454 C.ar    1  UNL1       -0.0118
      6 C           0.7049    1.7121   -0.8594 C.ar    1  UNL1        0.0064
      7 N          -0.5727    2.0155   -0.5973 N.ar    1  UNL1       -0.3604
      8 C          -1.2816    0.9423   -0.2219 C.ar    1  UNL1        0.0467
      9 C          -2.5970    0.7740    0.1393 C.ar    1  UNL1       -0.0378
     10 C          -3.0101   -0.4919    0.4789 C.ar    1  UNL1       -0.0598
     11 C          -2.1440   -1.5708    0.4613 C.ar    1  UNL1       -0.0611
     12 C          -0.8331   -1.3655    0.0952 C.ar    1  UNL1       -0.0523
     13 C          -0.3742   -0.1118   -0.2523 C.ar    1  UNL1        0.0033
     14 H           3.0399    0.1459    2.3659 H       1  UNL1        0.2951
     15 H           1.8448   -1.4008   -1.2483 H       1  UNL1        0.0427
     16 H           2.8426    0.0920   -1.4997 H       1  UNL1        0.0427
     17 H           1.5199    2.3534   -1.1820 H       1  UNL1        0.0810
     18 H          -1.0053    2.9851   -0.6680 H       1  UNL1        0.1653
     19 H          -3.3227    1.5659    0.1721 H       1  UNL1        0.0638
     20 H          -4.0442   -0.6433    0.7668 H       1  UNL1        0.0618
     21 H          -2.4490   -2.5673    0.7240 H       1  UNL1        0.0618
     22 H          -0.1651   -2.2146    0.0825 H       1  UNL1        0.0624
@<TRIPOS>BOND
     1     1     2    2
     2     2     3    1
     3     2     4    1
     4     4     5    1
     5     5     6   ar
     6     6     7   ar
     7     7     8   ar
     8     8     9   ar
     9     9    10   ar
    10    10    11   ar
    11    11    12   ar
    12    12    13   ar
    13    13     5   ar
    14    13     8   ar
    15     3    14    1
    16     4    15    1
    17     4    16    1
    18     6    17    1
    19     7    18    1
    20     9    19    1
    21    10    20    1
    22    11    21    1
    23    12    22    1
