
     RDKit          3D

 26 25  0  0  0  0  0  0  0  0999 V2000
    3.6125    1.0453    0.0049 C   0  0  0  0  0  0  0  0  0  0  0  0
    2.7483    0.0125    0.6895 C   0  0  0  0  0  0  0  0  0  0  0  0
    1.5333   -0.2689   -0.1981 C   0  0  0  0  0  0  0  0  0  0  0  0
    0.6951   -1.3020    0.5157 C   0  0  0  0  0  0  0  0  0  0  0  0
   -0.7581   -1.7486   -0.3722 S   0  0  0  0  0  0  0  0  0  0  0  0
   -1.4909   -2.7789    0.4255 O   0  0  0  0  0  0  0  0  0  0  0  0
   -0.3647   -2.3110   -1.7253 O   0  0  0  0  0  0  0  0  0  0  0  0
   -1.8351   -0.3831   -0.6646 C   0  0  0  0  0  0  0  0  0  0  0  0
   -2.3199    0.2716    0.5850 C   0  0  0  0  0  0  0  0  0  0  0  0
   -3.2174    1.4043    0.1623 C   0  0  0  0  0  0  0  0  0  0  0  0
   -3.4848    1.7065   -1.1721 O   0  0  0  0  0  0  0  0  0  0  0  0
   -3.7905    2.1590    0.9747 O   0  0  0  0  0  0  0  0  0  0  0  0
    3.0243    1.9942    0.0128 H   0  0  0  0  0  0  0  0  0  0  0  0
    3.7431    0.7191   -1.0418 H   0  0  0  0  0  0  0  0  0  0  0  0
    4.5659    1.1093    0.5590 H   0  0  0  0  0  0  0  0  0  0  0  0
    3.3456   -0.9249    0.8339 H   0  0  0  0  0  0  0  0  0  0  0  0
    2.4489    0.4265    1.6614 H   0  0  0  0  0  0  0  0  0  0  0  0
    0.9651    0.6855   -0.2601 H   0  0  0  0  0  0  0  0  0  0  0  0
    1.8997   -0.6294   -1.1747 H   0  0  0  0  0  0  0  0  0  0  0  0
    1.2939   -2.2132    0.6640 H   0  0  0  0  0  0  0  0  0  0  0  0
    0.4081   -0.9084    1.5014 H   0  0  0  0  0  0  0  0  0  0  0  0
   -1.4463    0.3504   -1.3742 H   0  0  0  0  0  0  0  0  0  0  0  0
   -2.7506   -0.8178   -1.1585 H   0  0  0  0  0  0  0  0  0  0  0  0
   -1.4915    0.7315    1.1574 H   0  0  0  0  0  0  0  0  0  0  0  0
   -2.9177   -0.3768    1.2246 H   0  0  0  0  0  0  0  0  0  0  0  0
   -4.4162    2.0475   -1.4236 H   0  0  0  0  0  0  0  0  0  0  0  0
  1  2  1  0
  2  3  1  0
  3  4  1  0
  4  5  1  0
  5  6  2  0
  5  7  2  0
  5  8  1  0
  8  9  1  0
  9 10  1  0
 10 11  1  0
 10 12  2  0
  1 13  1  0
  1 14  1  0
  1 15  1  0
  2 16  1  0
  2 17  1  0
  3 18  1  0
  3 19  1  0
  4 20  1  0
  4 21  1  0
  8 22  1  0
  8 23  1  0
  9 24  1  0
  9 25  1  0
 11 26  1  0
M  END
$$$$
