@<TRIPOS>MOLECULE
*****
 41 44 0 0 0
SMALL
GASTEIGER

@<TRIPOS>ATOM
      1 C           6.2295    1.7408   -1.1213 C.3     1  UNL1       -0.0570
      2 C           5.3929    0.7655   -0.3570 C.3     1  UNL1        0.0217
      3 C           3.9506    0.8804   -0.6540 C.2     1  UNL1        0.2195
      4 O           3.5727    1.7441   -1.4812 O.2     1  UNL1       -0.2753
      5 N           3.0103    0.0316   -0.0173 N.am    1  UNL1       -0.2708
      6 C           3.2613   -1.0247    0.9666 C.3     1  UNL1        0.0238
      7 C           2.2473   -2.0459    0.5234 C.3     1  UNL1       -0.0097
      8 C           1.1116   -1.1952    0.1008 C.ar    1  UNL1       -0.0239
      9 C          -0.2603   -1.3985   -0.0259 C.ar    1  UNL1       -0.0490
     10 C          -1.1464   -0.4362   -0.4550 C.ar    1  UNL1       -0.0155
     11 C          -2.5553   -0.7968   -0.5589 C.ar    1  UNL1        0.0079
     12 C          -2.9615   -1.9012   -1.3180 C.ar    1  UNL1        0.0359
     13 N          -4.2229   -2.2621   -1.4723 N.ar    1  UNL1       -0.2620
     14 C          -5.1916   -1.5583   -0.8865 C.ar    1  UNL1        0.0353
     15 C          -4.8867   -0.4586   -0.1217 C.ar    1  UNL1        0.0008
     16 C          -5.9178    0.2350    0.4721 C.ar    1  UNL1       -0.0526
     17 C          -5.6573    1.3342    1.2515 C.ar    1  UNL1       -0.0611
     18 C          -4.3425    1.6964    1.4040 C.ar    1  UNL1       -0.0611
     19 C          -3.2924    1.0071    0.8116 C.ar    1  UNL1       -0.0534
     20 C          -3.5687   -0.0824    0.0394 C.ar    1  UNL1       -0.0073
     21 C          -0.6428    0.8048   -0.7794 C.ar    1  UNL1       -0.0522
     22 C           0.7113    1.0333   -0.6627 C.ar    1  UNL1       -0.0394
     23 C           1.5815    0.0552   -0.2304 C.ar    1  UNL1        0.0395
     24 H           5.7274    2.0152   -2.0716 H       1  UNL1        0.0234
     25 H           7.2250    1.3112   -1.3110 H       1  UNL1        0.0234
     26 H           6.3969    2.6624   -0.5100 H       1  UNL1        0.0234
     27 H           5.7856   -0.2525   -0.5553 H       1  UNL1        0.0356
     28 H           5.5833    0.9588    0.7347 H       1  UNL1        0.0356
     29 H           4.2679   -1.4557    0.8570 H       1  UNL1        0.0472
     30 H           3.0062   -0.7021    1.9813 H       1  UNL1        0.0472
     31 H           1.9793   -2.7610    1.3196 H       1  UNL1        0.0329
     32 H           2.6649   -2.5524   -0.3788 H       1  UNL1        0.0329
     33 H          -0.5944   -2.4098    0.2486 H       1  UNL1        0.0627
     34 H          -2.1700   -2.4707   -1.7924 H       1  UNL1        0.0836
     35 H          -6.2408   -1.8355   -0.9990 H       1  UNL1        0.0836
     36 H          -6.9592   -0.0486    0.3539 H       1  UNL1        0.0624
     37 H          -6.4702    1.8827    1.7206 H       1  UNL1        0.0618
     38 H          -4.1278    2.5645    2.0194 H       1  UNL1        0.0618
     39 H          -2.2898    1.3187    0.9664 H       1  UNL1        0.0624
     40 H          -1.3130    1.5972   -1.1369 H       1  UNL1        0.0624
     41 H           1.1060    2.0090   -0.9177 H       1  UNL1        0.0636
@<TRIPOS>BOND
     1     1     2    1
     2     2     3    1
     3     3     4    2
     4     3     5   am
     5     5     6    1
     6     6     7    1
     7     7     8    1
     8     8     9   ar
     9     9    10   ar
    10    10    11    1
    11    11    12   ar
    12    12    13   ar
    13    13    14   ar
    14    14    15   ar
    15    15    16   ar
    16    16    17   ar
    17    17    18   ar
    18    18    19   ar
    19    19    20   ar
    20    10    21   ar
    21    21    22   ar
    22    22    23   ar
    23    23     5    1
    24    23     8   ar
    25    20    11   ar
    26    20    15   ar
    27     1    24    1
    28     1    25    1
    29     1    26    1
    30     2    27    1
    31     2    28    1
    32     6    29    1
    33     6    30    1
    34     7    31    1
    35     7    32    1
    36     9    33    1
    37    12    34    1
    38    14    35    1
    39    16    36    1
    40    17    37    1
    41    18    38    1
    42    19    39    1
    43    21    40    1
    44    22    41    1
