
     RDKit          3D

 41 44  0  0  0  0  0  0  0  0999 V2000
    6.2295    1.7408   -1.1213 C   0  0  0  0  0  0  0  0  0  0  0  0
    5.3929    0.7655   -0.3570 C   0  0  0  0  0  0  0  0  0  0  0  0
    3.9506    0.8804   -0.6540 C   0  0  0  0  0  0  0  0  0  0  0  0
    3.5727    1.7441   -1.4812 O   0  0  0  0  0  0  0  0  0  0  0  0
    3.0103    0.0316   -0.0173 N   0  0  0  0  0  0  0  0  0  0  0  0
    3.2613   -1.0247    0.9666 C   0  0  0  0  0  0  0  0  0  0  0  0
    2.2473   -2.0459    0.5234 C   0  0  0  0  0  0  0  0  0  0  0  0
    1.1116   -1.1952    0.1008 C   0  0  0  0  0  0  0  0  0  0  0  0
   -0.2603   -1.3985   -0.0259 C   0  0  0  0  0  0  0  0  0  0  0  0
   -1.1464   -0.4362   -0.4550 C   0  0  0  0  0  0  0  0  0  0  0  0
   -2.5553   -0.7968   -0.5589 C   0  0  0  0  0  0  0  0  0  0  0  0
   -2.9615   -1.9012   -1.3180 C   0  0  0  0  0  0  0  0  0  0  0  0
   -4.2229   -2.2621   -1.4723 N   0  0  0  0  0  0  0  0  0  0  0  0
   -5.1916   -1.5583   -0.8865 C   0  0  0  0  0  0  0  0  0  0  0  0
   -4.8867   -0.4586   -0.1217 C   0  0  0  0  0  0  0  0  0  0  0  0
   -5.9178    0.2350    0.4721 C   0  0  0  0  0  0  0  0  0  0  0  0
   -5.6573    1.3342    1.2515 C   0  0  0  0  0  0  0  0  0  0  0  0
   -4.3425    1.6964    1.4040 C   0  0  0  0  0  0  0  0  0  0  0  0
   -3.2924    1.0071    0.8116 C   0  0  0  0  0  0  0  0  0  0  0  0
   -3.5687   -0.0824    0.0394 C   0  0  0  0  0  0  0  0  0  0  0  0
   -0.6428    0.8048   -0.7794 C   0  0  0  0  0  0  0  0  0  0  0  0
    0.7113    1.0333   -0.6627 C   0  0  0  0  0  0  0  0  0  0  0  0
    1.5815    0.0552   -0.2304 C   0  0  0  0  0  0  0  0  0  0  0  0
    5.7274    2.0152   -2.0716 H   0  0  0  0  0  0  0  0  0  0  0  0
    7.2250    1.3112   -1.3110 H   0  0  0  0  0  0  0  0  0  0  0  0
    6.3969    2.6624   -0.5100 H   0  0  0  0  0  0  0  0  0  0  0  0
    5.7856   -0.2525   -0.5553 H   0  0  0  0  0  0  0  0  0  0  0  0
    5.5833    0.9588    0.7347 H   0  0  0  0  0  0  0  0  0  0  0  0
    4.2679   -1.4557    0.8570 H   0  0  0  0  0  0  0  0  0  0  0  0
    3.0062   -0.7021    1.9813 H   0  0  0  0  0  0  0  0  0  0  0  0
    1.9793   -2.7610    1.3196 H   0  0  0  0  0  0  0  0  0  0  0  0
    2.6649   -2.5524   -0.3788 H   0  0  0  0  0  0  0  0  0  0  0  0
   -0.5944   -2.4098    0.2486 H   0  0  0  0  0  0  0  0  0  0  0  0
   -2.1700   -2.4707   -1.7924 H   0  0  0  0  0  0  0  0  0  0  0  0
   -6.2408   -1.8355   -0.9990 H   0  0  0  0  0  0  0  0  0  0  0  0
   -6.9592   -0.0486    0.3539 H   0  0  0  0  0  0  0  0  0  0  0  0
   -6.4702    1.8827    1.7206 H   0  0  0  0  0  0  0  0  0  0  0  0
   -4.1278    2.5645    2.0194 H   0  0  0  0  0  0  0  0  0  0  0  0
   -2.2898    1.3187    0.9664 H   0  0  0  0  0  0  0  0  0  0  0  0
   -1.3130    1.5972   -1.1369 H   0  0  0  0  0  0  0  0  0  0  0  0
    1.1060    2.0090   -0.9177 H   0  0  0  0  0  0  0  0  0  0  0  0
  1  2  1  0
  2  3  1  0
  3  4  2  0
  3  5  1  0
  5  6  1  0
  6  7  1  0
  7  8  1  0
  8  9  2  0
  9 10  1  0
 10 11  1  0
 11 12  2  0
 12 13  1  0
 13 14  2  0
 14 15  1  0
 15 16  2  0
 16 17  1  0
 17 18  2  0
 18 19  1  0
 19 20  2  0
 10 21  2  0
 21 22  1  0
 22 23  2  0
 23  5  1  0
 23  8  1  0
 20 11  1  0
 20 15  1  0
  1 24  1  0
  1 25  1  0
  1 26  1  0
  2 27  1  0
  2 28  1  0
  6 29  1  0
  6 30  1  0
  7 31  1  0
  7 32  1  0
  9 33  1  0
 12 34  1  0
 14 35  1  0
 16 36  1  0
 17 37  1  0
 18 38  1  0
 19 39  1  0
 21 40  1  0
 22 41  1  0
M  END
$$$$
