@<TRIPOS>MOLECULE
*****
 54 58 0 0 0
SMALL
GASTEIGER

@<TRIPOS>ATOM
      1 C           9.5162    1.7287   -1.3527 C.3     1  UNL1        0.0788
      2 O           8.1548    1.8956   -1.6438 O.3     1  UNL1       -0.4951
      3 C           7.2298    1.0280   -1.0559 C.ar    1  UNL1        0.1208
      4 C           7.6284    0.0207   -0.2031 C.ar    1  UNL1       -0.0196
      5 C           6.7128   -0.8328    0.3746 C.ar    1  UNL1       -0.0529
      6 C           5.3423   -0.7171    0.1235 C.ar    1  UNL1       -0.0173
      7 C           4.9621    0.2927   -0.7292 C.ar    1  UNL1        0.0454
      8 C           5.8809    1.1523   -1.3114 C.ar    1  UNL1       -0.0075
      9 C           3.5058    0.2376   -0.8515 C.2     1  UNL1        0.2530
     10 O           2.7938    1.0065   -1.5492 O.2     1  UNL1       -0.2696
     11 N           3.0544   -0.8358   -0.0426 N.am    1  UNL1       -0.2420
     12 C           1.6445   -1.1658    0.0653 C.ar    1  UNL1        0.1682
     13 N           0.6939   -0.9801    0.6285 N.ar    1  UNL1       -0.2198
     14 C          -0.5389   -1.4400    0.5182 C.ar    1  UNL1        0.1349
     15 C          -1.6987   -1.0565    1.3936 C.2     1  UNL1        0.2672
     16 O          -1.5549   -0.2343    2.3258 O.2     1  UNL1       -0.2682
     17 N          -2.9749   -1.6229    1.1742 N.am    1  UNL1       -0.2775
     18 C          -4.1085   -1.3000    1.9678 C.ar    1  UNL1        0.0733
     19 C          -4.4803   -1.9721    3.1124 C.ar    1  UNL1        0.0506
     20 N          -5.5678   -1.6192    3.8292 N.ar    1  UNL1       -0.2613
     21 C          -6.3674   -0.5839    3.4761 C.ar    1  UNL1        0.0294
     22 C          -6.0245    0.1090    2.3376 C.ar    1  UNL1       -0.0207
     23 C          -4.9127   -0.2455    1.5976 C.ar    1  UNL1        0.0542
     24 N          -4.5741    0.4791    0.4244 N.pl3   1  UNL1       -0.3260
     25 C          -4.5443   -0.2233   -0.8432 C.3     1  UNL1        0.0248
     26 C          -5.4442    0.5643   -1.7932 C.3     1  UNL1        0.0117
     27 N          -4.7985    1.8481   -1.9891 N.3     1  UNL1       -0.3130
     28 C          -4.7849    2.6283   -0.7690 C.3     1  UNL1        0.0117
     29 C          -4.2515    1.8866    0.4058 C.3     1  UNL1        0.0248
     30 C          -0.6480   -2.3411   -0.5240 C.ar    1  UNL1        0.0094
     31 S           1.0137   -2.4368   -1.2338 S.2     1  UNL1       -0.0595
     32 C           4.1699   -1.4858    0.6023 C.3     1  UNL1        0.0477
     33 H           9.7991    2.0721   -0.3380 H       1  UNL1        0.0660
     34 H           9.8818    0.7008   -1.4877 H       1  UNL1        0.0660
     35 H          10.0858    2.3856   -2.0611 H       1  UNL1        0.0660
     36 H           8.6976   -0.0659   -0.0100 H       1  UNL1        0.0654
     37 H           7.0359   -1.6312    1.0515 H       1  UNL1        0.0622
     38 H           5.5569    1.9290   -1.9710 H       1  UNL1        0.0662
     39 H          -3.0460   -2.3180    0.3694 H       1  UNL1        0.1553
     40 H          -3.9008   -2.7960    3.4517 H       1  UNL1        0.0849
     41 H          -7.2479   -0.3196    4.0809 H       1  UNL1        0.0830
     42 H          -6.6490    0.9353    2.0417 H       1  UNL1        0.0652
     43 H          -3.5134   -0.1350   -1.2430 H       1  UNL1        0.0476
     44 H          -4.8874   -1.2721   -0.7476 H       1  UNL1        0.0476
     45 H          -5.5250    0.0659   -2.7759 H       1  UNL1        0.0439
     46 H          -6.4381    0.7647   -1.3508 H       1  UNL1        0.0439
     47 H          -3.8888    1.7876   -2.4579 H       1  UNL1        0.1220
     48 H          -4.1235    3.5028   -0.9615 H       1  UNL1        0.0439
     49 H          -5.8035    3.0560   -0.5949 H       1  UNL1        0.0439
     50 H          -4.6652    2.3753    1.3355 H       1  UNL1        0.0476
     51 H          -3.1369    2.0365    0.5001 H       1  UNL1        0.0476
     52 H          -1.5546   -2.9344   -0.9111 H       1  UNL1        0.0717
     53 H           4.0531   -1.3566    1.7149 H       1  UNL1        0.0519
     54 H           4.2408   -2.5676    0.3414 H       1  UNL1        0.0519
@<TRIPOS>BOND
     1     1     2    1
     2     2     3    1
     3     3     4   ar
     4     4     5   ar
     5     5     6   ar
     6     6     7   ar
     7     7     8   ar
     8     7     9    1
     9     9    10    2
    10     9    11   am
    11    11    12    1
    12    12    13   ar
    13    13    14   ar
    14    14    15    1
    15    15    16    2
    16    15    17   am
    17    17    18    1
    18    18    19   ar
    19    19    20   ar
    20    20    21   ar
    21    21    22   ar
    22    22    23   ar
    23    23    24    1
    24    24    25    1
    25    25    26    1
    26    26    27    1
    27    27    28    1
    28    28    29    1
    29    14    30   ar
    30    30    31   ar
    31    11    32    1
    32     8     3   ar
    33    31    12   ar
    34    32     6    1
    35    23    18   ar
    36    29    24    1
    37     1    33    1
    38     1    34    1
    39     1    35    1
    40     4    36    1
    41     5    37    1
    42     8    38    1
    43    17    39    1
    44    19    40    1
    45    21    41    1
    46    22    42    1
    47    25    43    1
    48    25    44    1
    49    26    45    1
    50    26    46    1
    51    27    47    1
    52    28    48    1
    53    28    49    1
    54    29    50    1
    55    29    51    1
    56    30    52    1
    57    32    53    1
    58    32    54    1
