
     RDKit          3D

 54 58  0  0  0  0  0  0  0  0999 V2000
    9.5162    1.7287   -1.3527 C   0  0  0  0  0  0  0  0  0  0  0  0
    8.1548    1.8956   -1.6438 O   0  0  0  0  0  0  0  0  0  0  0  0
    7.2298    1.0280   -1.0559 C   0  0  0  0  0  0  0  0  0  0  0  0
    7.6284    0.0207   -0.2031 C   0  0  0  0  0  0  0  0  0  0  0  0
    6.7128   -0.8328    0.3746 C   0  0  0  0  0  0  0  0  0  0  0  0
    5.3423   -0.7171    0.1235 C   0  0  0  0  0  0  0  0  0  0  0  0
    4.9621    0.2927   -0.7292 C   0  0  0  0  0  0  0  0  0  0  0  0
    5.8809    1.1523   -1.3114 C   0  0  0  0  0  0  0  0  0  0  0  0
    3.5058    0.2376   -0.8515 C   0  0  0  0  0  0  0  0  0  0  0  0
    2.7938    1.0065   -1.5492 O   0  0  0  0  0  0  0  0  0  0  0  0
    3.0544   -0.8358   -0.0426 N   0  0  0  0  0  0  0  0  0  0  0  0
    1.6445   -1.1658    0.0653 C   0  0  0  0  0  0  0  0  0  0  0  0
    0.6939   -0.9801    0.6285 N   0  0  0  0  0  0  0  0  0  0  0  0
   -0.5389   -1.4400    0.5182 C   0  0  0  0  0  0  0  0  0  0  0  0
   -1.6987   -1.0565    1.3936 C   0  0  0  0  0  0  0  0  0  0  0  0
   -1.5549   -0.2343    2.3258 O   0  0  0  0  0  0  0  0  0  0  0  0
   -2.9749   -1.6229    1.1742 N   0  0  0  0  0  0  0  0  0  0  0  0
   -4.1085   -1.3000    1.9678 C   0  0  0  0  0  0  0  0  0  0  0  0
   -4.4803   -1.9721    3.1124 C   0  0  0  0  0  0  0  0  0  0  0  0
   -5.5678   -1.6192    3.8292 N   0  0  0  0  0  0  0  0  0  0  0  0
   -6.3674   -0.5839    3.4761 C   0  0  0  0  0  0  0  0  0  0  0  0
   -6.0245    0.1090    2.3376 C   0  0  0  0  0  0  0  0  0  0  0  0
   -4.9127   -0.2455    1.5976 C   0  0  0  0  0  0  0  0  0  0  0  0
   -4.5741    0.4791    0.4244 N   0  0  0  0  0  0  0  0  0  0  0  0
   -4.5443   -0.2233   -0.8432 C   0  0  0  0  0  0  0  0  0  0  0  0
   -5.4442    0.5643   -1.7932 C   0  0  0  0  0  0  0  0  0  0  0  0
   -4.7985    1.8481   -1.9891 N   0  0  0  0  0  0  0  0  0  0  0  0
   -4.7849    2.6283   -0.7690 C   0  0  0  0  0  0  0  0  0  0  0  0
   -4.2515    1.8866    0.4058 C   0  0  0  0  0  0  0  0  0  0  0  0
   -0.6480   -2.3411   -0.5240 C   0  0  0  0  0  0  0  0  0  0  0  0
    1.0137   -2.4368   -1.2338 S   0  0  0  0  0  0  0  0  0  0  0  0
    4.1699   -1.4858    0.6023 C   0  0  0  0  0  0  0  0  0  0  0  0
    9.7991    2.0721   -0.3380 H   0  0  0  0  0  0  0  0  0  0  0  0
    9.8818    0.7008   -1.4877 H   0  0  0  0  0  0  0  0  0  0  0  0
   10.0858    2.3856   -2.0611 H   0  0  0  0  0  0  0  0  0  0  0  0
    8.6976   -0.0659   -0.0100 H   0  0  0  0  0  0  0  0  0  0  0  0
    7.0359   -1.6312    1.0515 H   0  0  0  0  0  0  0  0  0  0  0  0
    5.5569    1.9290   -1.9710 H   0  0  0  0  0  0  0  0  0  0  0  0
   -3.0460   -2.3180    0.3694 H   0  0  0  0  0  0  0  0  0  0  0  0
   -3.9008   -2.7960    3.4517 H   0  0  0  0  0  0  0  0  0  0  0  0
   -7.2479   -0.3196    4.0809 H   0  0  0  0  0  0  0  0  0  0  0  0
   -6.6490    0.9353    2.0417 H   0  0  0  0  0  0  0  0  0  0  0  0
   -3.5134   -0.1350   -1.2430 H   0  0  0  0  0  0  0  0  0  0  0  0
   -4.8874   -1.2721   -0.7476 H   0  0  0  0  0  0  0  0  0  0  0  0
   -5.5250    0.0659   -2.7759 H   0  0  0  0  0  0  0  0  0  0  0  0
   -6.4381    0.7647   -1.3508 H   0  0  0  0  0  0  0  0  0  0  0  0
   -3.8888    1.7876   -2.4579 H   0  0  0  0  0  0  0  0  0  0  0  0
   -4.1235    3.5028   -0.9615 H   0  0  0  0  0  0  0  0  0  0  0  0
   -5.8035    3.0560   -0.5949 H   0  0  0  0  0  0  0  0  0  0  0  0
   -4.6652    2.3753    1.3355 H   0  0  0  0  0  0  0  0  0  0  0  0
   -3.1369    2.0365    0.5001 H   0  0  0  0  0  0  0  0  0  0  0  0
   -1.5546   -2.9344   -0.9111 H   0  0  0  0  0  0  0  0  0  0  0  0
    4.0531   -1.3566    1.7149 H   0  0  0  0  0  0  0  0  0  0  0  0
    4.2408   -2.5676    0.3414 H   0  0  0  0  0  0  0  0  0  0  0  0
  1  2  1  0
  2  3  1  0
  3  4  2  0
  4  5  1  0
  5  6  2  0
  6  7  1  0
  7  8  2  0
  7  9  1  0
  9 10  2  0
  9 11  1  0
 11 12  1  0
 12 13  2  0
 13 14  1  0
 14 15  1  0
 15 16  2  0
 15 17  1  0
 17 18  1  0
 18 19  2  0
 19 20  1  0
 20 21  2  0
 21 22  1  0
 22 23  2  0
 23 24  1  0
 24 25  1  0
 25 26  1  0
 26 27  1  0
 27 28  1  0
 28 29  1  0
 14 30  2  0
 30 31  1  0
 11 32  1  0
  8  3  1  0
 31 12  1  0
 32  6  1  0
 23 18  1  0
 29 24  1  0
  1 33  1  0
  1 34  1  0
  1 35  1  0
  4 36  1  0
  5 37  1  0
  8 38  1  0
 17 39  1  0
 19 40  1  0
 21 41  1  0
 22 42  1  0
 25 43  1  0
 25 44  1  0
 26 45  1  0
 26 46  1  0
 27 47  1  0
 28 48  1  0
 28 49  1  0
 29 50  1  0
 29 51  1  0
 30 52  1  0
 32 53  1  0
 32 54  1  0
M  END
$$$$
