
     RDKit          3D

 64 65  0  0  0  0  0  0  0  0999 V2000
   -3.0861   -0.9098    1.5944 C   0  0  0  0  0  0  0  0  0  0  0  0
   -2.4909   -0.1198    0.4112 C   0  0  2  0  0  0  0  0  0  0  0  0
   -3.4822    0.0482   -0.6214 N   0  0  0  0  0  0  0  0  0  0  0  0
   -4.7620    0.6333   -0.4470 C   0  0  0  0  0  0  0  0  0  0  0  0
   -5.0781    1.0464    0.6736 O   0  0  0  0  0  0  0  0  0  0  0  0
   -5.7314    0.7622   -1.5889 C   0  0  0  0  0  0  0  0  0  0  0  0
   -5.1969    1.5168   -2.5994 F   0  0  0  0  0  0  0  0  0  0  0  0
   -6.9124    1.3184   -1.1276 F   0  0  0  0  0  0  0  0  0  0  0  0
   -6.0055   -0.4900   -2.0732 F   0  0  0  0  0  0  0  0  0  0  0  0
   -1.3797   -0.9310   -0.1241 C   0  0  0  0  0  0  0  0  0  0  0  0
   -0.2316   -0.5769    0.3199 O   0  0  0  0  0  0  0  0  0  0  0  0
   -1.4667   -1.9763   -0.9988 N   0  0  0  0  0  0  0  0  0  0  0  0
   -2.5685   -2.6711   -1.5817 C   0  0  0  0  0  0  0  0  0  0  0  0
   -2.1788   -2.5307   -3.0703 C   0  0  0  0  0  0  0  0  0  0  0  0
   -0.6741   -2.7307   -3.0465 C   0  0  0  0  0  0  0  0  0  0  0  0
   -0.3136   -2.6810   -1.5790 C   0  0  1  0  0  0  0  0  0  0  0  0
    0.9525   -1.9491   -1.3572 C   0  0  0  0  0  0  0  0  0  0  0  0
    1.0747   -0.8275   -1.9114 O   0  0  0  0  0  0  0  0  0  0  0  0
    2.0137   -2.4470   -0.5615 N   0  0  0  0  0  0  0  0  0  0  0  0
    3.2562   -1.7525   -0.3484 C   0  0  2  0  0  0  0  0  0  0  0  0
    4.4658   -2.5624   -0.4356 C   0  0  0  0  0  0  0  0  0  0  0  0
    4.3650   -3.7818   -0.6765 O   0  0  0  0  0  0  0  0  0  0  0  0
    3.2300   -0.8634    0.8791 C   0  0  0  0  0  0  0  0  0  0  0  0
    4.5808   -0.2086    1.0188 C   0  0  0  0  0  0  0  0  0  0  0  0
    4.6477    0.7669    2.1812 C   0  0  0  0  0  0  0  0  0  0  0  0
    3.7073    1.8622    2.0171 N   0  0  0  0  0  0  0  0  0  0  0  0
    3.8762    2.8322    1.0053 C   0  0  0  0  0  0  0  0  0  0  0  0
    4.7918    2.6381    0.0974 N   0  0  0  0  0  0  0  0  0  0  0  0
    3.0906    3.9989    0.9640 N   0  0  0  0  0  0  0  0  0  0  0  0
   -2.0631    1.2201    0.8699 C   0  0  0  0  0  0  0  0  0  0  0  0
   -1.2276    2.0354    0.0997 C   0  0  0  0  0  0  0  0  0  0  0  0
   -0.8617    3.2694    0.5845 C   0  0  0  0  0  0  0  0  0  0  0  0
   -1.3030    3.7090    1.8125 C   0  0  0  0  0  0  0  0  0  0  0  0
   -2.1316    2.9153    2.5963 C   0  0  0  0  0  0  0  0  0  0  0  0
   -2.4874    1.6850    2.0933 C   0  0  0  0  0  0  0  0  0  0  0  0
   -3.1551   -1.9810    1.3401 H   0  0  0  0  0  0  0  0  0  0  0  0
   -2.3506   -0.8199    2.4119 H   0  0  0  0  0  0  0  0  0  0  0  0
   -4.0464   -0.5427    1.9218 H   0  0  0  0  0  0  0  0  0  0  0  0
   -3.2451   -0.2311   -1.5919 H   0  0  0  0  0  0  0  0  0  0  0  0
   -3.5669   -2.3335   -1.4599 H   0  0  0  0  0  0  0  0  0  0  0  0
   -2.4779   -3.7890   -1.3264 H   0  0  0  0  0  0  0  0  0  0  0  0
   -2.7081   -3.2511   -3.6895 H   0  0  0  0  0  0  0  0  0  0  0  0
   -2.4227   -1.5090   -3.4213 H   0  0  0  0  0  0  0  0  0  0  0  0
   -0.1961   -1.9374   -3.6486 H   0  0  0  0  0  0  0  0  0  0  0  0
   -0.4404   -3.7303   -3.4597 H   0  0  0  0  0  0  0  0  0  0  0  0
   -0.2226   -3.7151   -1.2205 H   0  0  0  0  0  0  0  0  0  0  0  0
    1.8270   -3.4049   -0.1197 H   0  0  0  0  0  0  0  0  0  0  0  0
    3.2974   -0.9926   -1.2024 H   0  0  0  0  0  0  0  0  0  0  0  0
    5.4761   -2.2329   -0.3170 H   0  0  0  0  0  0  0  0  0  0  0  0
    2.9733   -1.3853    1.7979 H   0  0  0  0  0  0  0  0  0  0  0  0
    2.5040   -0.0174    0.7319 H   0  0  0  0  0  0  0  0  0  0  0  0
    5.3625   -0.9924    1.2401 H   0  0  0  0  0  0  0  0  0  0  0  0
    4.9378    0.3085    0.1186 H   0  0  0  0  0  0  0  0  0  0  0  0
    5.6585    1.2193    2.1290 H   0  0  0  0  0  0  0  0  0  0  0  0
    4.5550    0.2581    3.1437 H   0  0  0  0  0  0  0  0  0  0  0  0
    2.9033    1.9329    2.6531 H   0  0  0  0  0  0  0  0  0  0  0  0
    4.9691    3.3129   -0.6783 H   0  0  0  0  0  0  0  0  0  0  0  0
    2.0585    4.0456    0.9816 H   0  0  0  0  0  0  0  0  0  0  0  0
    3.6013    4.9296    0.9092 H   0  0  0  0  0  0  0  0  0  0  0  0
   -0.9173    1.6454   -0.8472 H   0  0  0  0  0  0  0  0  0  0  0  0
   -0.2207    3.9109    0.0075 H   0  0  0  0  0  0  0  0  0  0  0  0
   -0.9961    4.6838    2.1571 H   0  0  0  0  0  0  0  0  0  0  0  0
   -2.4534    3.2964    3.5420 H   0  0  0  0  0  0  0  0  0  0  0  0
   -3.1239    1.0741    2.7104 H   0  0  0  0  0  0  0  0  0  0  0  0
  1  2  1  0
  2  3  1  6
  3  4  1  0
  4  5  2  0
  4  6  1  0
  6  7  1  0
  6  8  1  0
  6  9  1  0
  2 10  1  0
 10 11  2  0
 10 12  1  0
 12 13  1  0
 13 14  1  0
 14 15  1  0
 15 16  1  0
 16 17  1  0
 17 18  2  0
 17 19  1  0
 19 20  1  0
 20 21  1  0
 21 22  2  0
 20 23  1  0
 23 24  1  0
 24 25  1  0
 25 26  1  0
 26 27  1  0
 27 28  2  3
 27 29  1  0
  2 30  1  0
 30 31  2  0
 31 32  1  0
 32 33  2  0
 33 34  1  0
 34 35  2  0
 16 12  1  0
 35 30  1  0
  1 36  1  0
  1 37  1  0
  1 38  1  0
  3 39  1  0
 13 40  1  0
 13 41  1  0
 14 42  1  0
 14 43  1  0
 15 44  1  0
 15 45  1  0
 16 46  1  1
 19 47  1  0
 20 48  1  6
 21 49  1  0
 23 50  1  0
 23 51  1  0
 24 52  1  0
 24 53  1  0
 25 54  1  0
 25 55  1  0
 26 56  1  0
 28 57  1  0
 29 58  1  0
 29 59  1  0
 31 60  1  0
 32 61  1  0
 33 62  1  0
 34 63  1  0
 35 64  1  0
M  END
$$$$
