@<TRIPOS>MOLECULE
*****
 64 65 0 0 0
SMALL
GASTEIGER

@<TRIPOS>ATOM
      1 C          -3.0861   -0.9098    1.5944 C.3     0  UNK0       -0.0308
      2 C          -2.4909   -0.1198    0.4112 C.3     0  UNK0        0.1337
      3 N          -3.4822    0.0482   -0.6214 N.am    0  UNK0       -0.2907
      4 C          -4.7620    0.6333   -0.4470 C.2     0  UNK0        0.3183
      5 O          -5.0781    1.0464    0.6736 O.2     0  UNK0       -0.2660
      6 C          -5.7314    0.7622   -1.5889 C.3     0  UNK0        0.4694
      7 F          -5.1969    1.5168   -2.5994 F       0  UNK0       -0.1620
      8 F          -6.9124    1.3184   -1.1276 F       0  UNK0       -0.1620
      9 F          -6.0055   -0.4900   -2.0732 F       0  UNK0       -0.1620
     10 C          -1.3797   -0.9310   -0.1241 C.2     0  UNK0        0.2440
     11 O          -0.2316   -0.5769    0.3199 O.2     0  UNK0       -0.2729
     12 N          -1.4667   -1.9763   -0.9988 N.am    0  UNK0       -0.2879
     13 C          -2.5685   -2.6711   -1.5817 C.3     0  UNK0        0.0156
     14 C          -2.1788   -2.5307   -3.0703 C.3     0  UNK0       -0.0350
     15 C          -0.6741   -2.7307   -3.0465 C.3     0  UNK0       -0.0243
     16 C          -0.3136   -2.6810   -1.5790 C.3     0  UNK0        0.1023
     17 C           0.9525   -1.9491   -1.3572 C.2     0  UNK0        0.2341
     18 O           1.0747   -0.8275   -1.9114 O.2     0  UNK0       -0.2738
     19 N           2.0137   -2.4470   -0.5615 N.am    1  ARG1       -0.3044
     20 CA          3.2562   -1.7525   -0.3484 C.3     1  ARG1        0.0786
     21 C           4.4658   -2.5624   -0.4356 C.2     1  ARG1        0.1404
     22 O           4.3650   -3.7818   -0.6765 O.2     1  ARG1       -0.2991
     23 CB          3.2300   -0.8634    0.8791 C.3     1  ARG1       -0.0250
     24 CG          4.5808   -0.2086    1.0188 C.3     1  ARG1       -0.0202
     25 CD          4.6477    0.7669    2.1812 C.3     1  ARG1        0.0647
     26 NE          3.7073    1.8622    2.0171 N.pl3   1  ARG1       -0.2761
     27 CZ          3.8762    2.8322    1.0053 C.cat   1  ARG1        0.3762
     28 NH1         4.7918    2.6381    0.0974 N.pl3   1  ARG1       -0.1298
     29 NH2         3.0906    3.9989    0.9640 N.pl3   1  ARG1       -0.2893
     30 C          -2.0631    1.2201    0.8699 C.ar    0  UNK0       -0.0156
     31 C          -1.2276    2.0354    0.0997 C.ar    0  UNK0       -0.0561
     32 C          -0.8617    3.2694    0.5845 C.ar    0  UNK0       -0.0614
     33 C          -1.3030    3.7090    1.8125 C.ar    0  UNK0       -0.0617
     34 C          -2.1316    2.9153    2.5963 C.ar    0  UNK0       -0.0614
     35 C          -2.4874    1.6850    2.0933 C.ar    0  UNK0       -0.0561
     36 H          -3.1551   -1.9810    1.3401 H       0  UNK0        0.0258
     37 H          -2.3506   -0.8199    2.4119 H       0  UNK0        0.0258
     38 H          -4.0464   -0.5427    1.9218 H       0  UNK0        0.0258
     39 H          -3.2451   -0.2311   -1.5919 H       0  UNK0        0.1503
     40 H          -3.5669   -2.3335   -1.4599 H       0  UNK0        0.0465
     41 H          -2.4779   -3.7890   -1.3264 H       0  UNK0        0.0465
     42 H          -2.7081   -3.2511   -3.6895 H       0  UNK0        0.0281
     43 H          -2.4227   -1.5090   -3.4213 H       0  UNK0        0.0281
     44 H          -0.1961   -1.9374   -3.6486 H       0  UNK0        0.0288
     45 H          -0.4404   -3.7303   -3.4597 H       0  UNK0        0.0288
     46 H          -0.2226   -3.7151   -1.2205 H       0  UNK0        0.0597
     47 H           1.8270   -3.4049   -0.1197 H       1  ARG1        0.1494
     48 HA          3.2974   -0.9926   -1.2024 H       1  ARG1        0.0574
     49 H           5.4761   -2.2329   -0.3170 H       1  ARG1        0.1046
     50 HB1         2.9733   -1.3853    1.7979 H       1  ARG1        0.0288
     51 HB2         2.5040   -0.0174    0.7319 H       1  ARG1        0.0288
     52 HG1         5.3625   -0.9924    1.2401 H       1  ARG1        0.0296
     53 HG2         4.9378    0.3085    0.1186 H       1  ARG1        0.0296
     54 HD1         5.6585    1.2193    2.1290 H       1  ARG1        0.0655
     55 HD2         4.5550    0.2581    3.1437 H       1  ARG1        0.0655
     56 HE          2.9033    1.9329    2.6531 H       1  ARG1        0.2579
     57 HH1         4.9691    3.3129   -0.6783 H       1  ARG1        0.3062
     58 HH21        2.0585    4.0456    0.9816 H       1  ARG1        0.2546
     59 HH22        3.6013    4.9296    0.9092 H       1  ARG1        0.2546
     60 H          -0.9173    1.6454   -0.8472 H       0  UNK0        0.0621
     61 H          -0.2207    3.9109    0.0075 H       0  UNK0        0.0618
     62 H          -0.9961    4.6838    2.1571 H       0  UNK0        0.0618
     63 H          -2.4534    3.2964    3.5420 H       0  UNK0        0.0618
     64 H          -3.1239    1.0741    2.7104 H       0  UNK0        0.0621
@<TRIPOS>BOND
     1     1     2    1
     2     2     3    1
     3     3     4   am
     4     4     5    2
     5     4     6    1
     6     6     7    1
     7     6     8    1
     8     6     9    1
     9     2    10    1
    10    10    11    2
    11    10    12   am
    12    12    13    1
    13    13    14    1
    14    14    15    1
    15    15    16    1
    16    16    17    1
    17    17    18    2
    18    17    19   am
    19    19    20    1
    20    20    21    1
    21    21    22    2
    22    20    23    1
    23    23    24    1
    24    24    25    1
    25    25    26    1
    26    26    27    1
    27    27    28    2
    28    27    29    1
    29     2    30    1
    30    30    31   ar
    31    31    32   ar
    32    32    33   ar
    33    33    34   ar
    34    34    35   ar
    35    16    12    1
    36    35    30   ar
    37     1    36    1
    38     1    37    1
    39     1    38    1
    40     3    39    1
    41    13    40    1
    42    13    41    1
    43    14    42    1
    44    14    43    1
    45    15    44    1
    46    15    45    1
    47    16    46    1
    48    19    47    1
    49    20    48    1
    50    21    49    1
    51    23    50    1
    52    23    51    1
    53    24    52    1
    54    24    53    1
    55    25    54    1
    56    25    55    1
    57    26    56    1
    58    28    57    1
    59    29    58    1
    60    29    59    1
    61    31    60    1
    62    32    61    1
    63    33    62    1
    64    34    63    1
    65    35    64    1
