@<TRIPOS>MOLECULE
*****
 54 56 0 0 0
SMALL
GASTEIGER

@<TRIPOS>ATOM
      1 C          -2.9979   -1.3383   -0.6010 C.3     0  UNK0        0.0010
      2 N          -2.5224   -0.2972    0.2867 N.pl3   0  UNK0       -0.3285
      3 C          -3.4860    0.4238    1.0791 C.3     0  UNK0        0.0406
      4 C          -4.5290    1.0773    0.2709 C.ar    0  UNK0        0.0202
      5 C          -4.4380    2.3621   -0.3050 C.ar    0  UNK0        0.0999
      6 O          -5.5036    2.5821   -0.9981 O.2     0  UNK0       -0.4445
      7 C          -6.3299    1.5692   -0.9571 C.ar    0  UNK0        0.2336
      8 N          -7.5413    1.3582   -1.5148 N.ar    0  UNK0       -0.1787
      9 C          -8.2044    0.2082   -1.3080 C.ar    0  UNK0        0.2174
     10 N          -9.4831    0.0124   -1.9109 N.pl3   0  UNK0       -0.3273
     11 N          -7.6478   -0.7460   -0.5311 N.ar    0  UNK0       -0.1993
     12 C          -6.4462   -0.5858    0.0450 C.ar    0  UNK0        0.1325
     13 N          -5.9158   -1.6022    0.8758 N.pl3   0  UNK0       -0.3424
     14 C          -5.7438    0.5838   -0.1536 C.ar    0  UNK0        0.0840
     15 C          -1.1011   -0.0217    0.3791 C.ar    0  UNK0        0.0298
     16 C          -0.6103    1.0011    1.1510 C.ar    0  UNK0       -0.0399
     17 C           0.7743    1.2350    1.2380 C.ar    0  UNK0       -0.0479
     18 C           1.6907    0.4643    0.5653 C.ar    0  UNK0        0.0368
     19 C           3.1258    0.7579    0.6938 C.2     0  UNK0        0.2447
     20 O           3.4869    1.7157    1.4305 O.2     0  UNK0       -0.2702
     21 N           4.1018    0.0003    0.0181 N.am    1  GLU1       -0.2983
     22 CA          5.5394    0.3368    0.1811 C.3     1  GLU1        0.1209
     23 CB          6.1968   -0.7641    0.9283 C.3     1  GLU1       -0.0140
     24 CG          7.6275   -0.7110    1.2264 C.3     1  GLU1        0.0470
     25 CD          8.5857   -0.7343    0.1324 C.2     1  GLU1        0.3048
     26 OE1         9.6252   -0.0332    0.1947 O.2     1  GLU1       -0.2510
     27 OE2         8.4096   -1.5132   -1.0064 O.3     1  GLU1       -0.4806
     28 C           6.0846    0.7447   -1.0956 C.2     1  GLU1        0.3253
     29 O           5.3656    0.6250   -2.1446 O.2     1  GLU1       -0.2489
     30 OXT         7.3369    1.2700   -1.2998 O.3     1  GLU1       -0.4793
     31 C           1.2070   -0.5578   -0.2065 C.ar    0  UNK0       -0.0479
     32 C          -0.1730   -0.7862   -0.2889 C.ar    0  UNK0       -0.0399
     33 H          -2.3309   -1.4785   -1.5037 H       0  UNK0        0.0428
     34 H          -3.9542   -0.9890   -1.0767 H       0  UNK0        0.0428
     35 H          -3.0795   -2.3088   -0.1160 H       0  UNK0        0.0428
     36 H          -3.0620    1.0981    1.8396 H       0  UNK0        0.0514
     37 H          -4.0393   -0.4040    1.6476 H       0  UNK0        0.0514
     38 H          -3.5786    3.0094   -0.1484 H       0  UNK0        0.1034
     39 H         -10.3421    0.0957   -1.3466 H       0  UNK0        0.1452
     40 H          -9.5657   -0.2161   -2.9255 H       0  UNK0        0.1452
     41 H          -6.0826   -1.5222    1.9062 H       0  UNK0        0.1437
     42 H          -5.3875   -2.4107    0.5075 H       0  UNK0        0.1437
     43 H          -1.2680    1.6465    1.6993 H       0  UNK0        0.0636
     44 H           1.1409    2.0553    1.8594 H       0  UNK0        0.0626
     45 H           3.8446   -0.8133   -0.6128 H       1  GLU1        0.1498
     46 HA          5.5361    1.2221    0.8941 H       1  GLU1        0.0614
     47 HB1         5.9962   -1.7552    0.3967 H       1  GLU1        0.0294
     48 HB2         5.6591   -0.9362    1.9146 H       1  GLU1        0.0294
     49 HG1         7.8090    0.1378    1.9385 H       1  GLU1        0.0378
     50 HG2         7.8649   -1.6208    1.8673 H       1  GLU1        0.0378
     51 HE2         9.2489   -1.8370   -1.4715 H       1  GLU1        0.2951
     52 HXT         7.7645    1.1941   -2.2099 H       1  GLU1        0.2951
     53 H           1.8765   -1.2004   -0.7608 H       0  UNK0        0.0626
     54 H          -0.5342   -1.6038   -0.8942 H       0  UNK0        0.0636
@<TRIPOS>BOND
     1     1     2    1
     2     2     3    1
     3     3     4    1
     4     4     5   ar
     5     5     6   ar
     6     6     7   ar
     7     7     8   ar
     8     8     9   ar
     9     9    10    1
    10     9    11   ar
    11    11    12   ar
    12    12    13    1
    13    12    14   ar
    14     2    15    1
    15    15    16   ar
    16    16    17   ar
    17    17    18   ar
    18    18    19    1
    19    19    20    2
    20    19    21   am
    21    21    22    1
    22    22    23    1
    23    23    24    1
    24    24    25    1
    25    25    26    2
    26    25    27    1
    27    22    28    1
    28    28    29    2
    29    28    30    1
    30    18    31   ar
    31    31    32   ar
    32    14     4   ar
    33    32    15   ar
    34    14     7   ar
    35     1    33    1
    36     1    34    1
    37     1    35    1
    38     3    36    1
    39     3    37    1
    40     5    38    1
    41    10    39    1
    42    10    40    1
    43    13    41    1
    44    13    42    1
    45    16    43    1
    46    17    44    1
    47    21    45    1
    48    22    46    1
    49    23    47    1
    50    23    48    1
    51    24    49    1
    52    24    50    1
    53    27    51    1
    54    30    52    1
    55    31    53    1
    56    32    54    1
