
     RDKit          3D

 54 56  0  0  0  0  0  0  0  0999 V2000
   -2.9979   -1.3383   -0.6010 C   0  0  0  0  0  0  0  0  0  0  0  0
   -2.5224   -0.2972    0.2867 N   0  0  0  0  0  0  0  0  0  0  0  0
   -3.4860    0.4238    1.0791 C   0  0  0  0  0  0  0  0  0  0  0  0
   -4.5290    1.0773    0.2709 C   0  0  0  0  0  0  0  0  0  0  0  0
   -4.4380    2.3621   -0.3050 C   0  0  0  0  0  0  0  0  0  0  0  0
   -5.5036    2.5821   -0.9981 O   0  0  0  0  0  0  0  0  0  0  0  0
   -6.3299    1.5692   -0.9571 C   0  0  0  0  0  0  0  0  0  0  0  0
   -7.5413    1.3582   -1.5148 N   0  0  0  0  0  0  0  0  0  0  0  0
   -8.2044    0.2082   -1.3080 C   0  0  0  0  0  0  0  0  0  0  0  0
   -9.4831    0.0124   -1.9109 N   0  0  0  0  0  0  0  0  0  0  0  0
   -7.6478   -0.7460   -0.5311 N   0  0  0  0  0  0  0  0  0  0  0  0
   -6.4462   -0.5858    0.0450 C   0  0  0  0  0  0  0  0  0  0  0  0
   -5.9158   -1.6022    0.8758 N   0  0  0  0  0  0  0  0  0  0  0  0
   -5.7438    0.5838   -0.1536 C   0  0  0  0  0  0  0  0  0  0  0  0
   -1.1011   -0.0217    0.3791 C   0  0  0  0  0  0  0  0  0  0  0  0
   -0.6103    1.0011    1.1510 C   0  0  0  0  0  0  0  0  0  0  0  0
    0.7743    1.2350    1.2380 C   0  0  0  0  0  0  0  0  0  0  0  0
    1.6907    0.4643    0.5653 C   0  0  0  0  0  0  0  0  0  0  0  0
    3.1258    0.7579    0.6938 C   0  0  0  0  0  0  0  0  0  0  0  0
    3.4869    1.7157    1.4305 O   0  0  0  0  0  0  0  0  0  0  0  0
    4.1018    0.0003    0.0181 N   0  0  0  0  0  0  0  0  0  0  0  0
    5.5394    0.3368    0.1811 C   0  0  0  0  0  0  0  0  0  0  0  0
    6.1968   -0.7641    0.9283 C   0  0  0  0  0  0  0  0  0  0  0  0
    7.6275   -0.7110    1.2264 C   0  0  0  0  0  0  0  0  0  0  0  0
    8.5857   -0.7343    0.1324 C   0  0  0  0  0  0  0  0  0  0  0  0
    9.6252   -0.0332    0.1947 O   0  0  0  0  0  0  0  0  0  0  0  0
    8.4096   -1.5132   -1.0064 O   0  0  0  0  0  0  0  0  0  0  0  0
    6.0846    0.7447   -1.0956 C   0  0  0  0  0  0  0  0  0  0  0  0
    5.3656    0.6250   -2.1446 O   0  0  0  0  0  0  0  0  0  0  0  0
    7.3369    1.2700   -1.2998 O   0  0  0  0  0  0  0  0  0  0  0  0
    1.2070   -0.5578   -0.2065 C   0  0  0  0  0  0  0  0  0  0  0  0
   -0.1730   -0.7862   -0.2889 C   0  0  0  0  0  0  0  0  0  0  0  0
   -2.3309   -1.4785   -1.5037 H   0  0  0  0  0  0  0  0  0  0  0  0
   -3.9542   -0.9890   -1.0767 H   0  0  0  0  0  0  0  0  0  0  0  0
   -3.0795   -2.3088   -0.1160 H   0  0  0  0  0  0  0  0  0  0  0  0
   -3.0620    1.0981    1.8396 H   0  0  0  0  0  0  0  0  0  0  0  0
   -4.0393   -0.4040    1.6476 H   0  0  0  0  0  0  0  0  0  0  0  0
   -3.5786    3.0094   -0.1484 H   0  0  0  0  0  0  0  0  0  0  0  0
  -10.3421    0.0957   -1.3466 H   0  0  0  0  0  0  0  0  0  0  0  0
   -9.5657   -0.2161   -2.9255 H   0  0  0  0  0  0  0  0  0  0  0  0
   -6.0826   -1.5222    1.9062 H   0  0  0  0  0  0  0  0  0  0  0  0
   -5.3875   -2.4107    0.5075 H   0  0  0  0  0  0  0  0  0  0  0  0
   -1.2680    1.6465    1.6993 H   0  0  0  0  0  0  0  0  0  0  0  0
    1.1409    2.0553    1.8594 H   0  0  0  0  0  0  0  0  0  0  0  0
    3.8446   -0.8133   -0.6128 H   0  0  0  0  0  0  0  0  0  0  0  0
    5.5361    1.2221    0.8941 H   0  0  0  0  0  0  0  0  0  0  0  0
    5.9962   -1.7552    0.3967 H   0  0  0  0  0  0  0  0  0  0  0  0
    5.6591   -0.9362    1.9146 H   0  0  0  0  0  0  0  0  0  0  0  0
    7.8090    0.1378    1.9385 H   0  0  0  0  0  0  0  0  0  0  0  0
    7.8649   -1.6208    1.8673 H   0  0  0  0  0  0  0  0  0  0  0  0
    9.2489   -1.8370   -1.4715 H   0  0  0  0  0  0  0  0  0  0  0  0
    7.7645    1.1941   -2.2099 H   0  0  0  0  0  0  0  0  0  0  0  0
    1.8765   -1.2004   -0.7608 H   0  0  0  0  0  0  0  0  0  0  0  0
   -0.5342   -1.6038   -0.8942 H   0  0  0  0  0  0  0  0  0  0  0  0
  1  2  1  0
  2  3  1  0
  3  4  1  0
  4  5  2  0
  5  6  1  0
  6  7  1  0
  7  8  2  0
  8  9  1  0
  9 10  1  0
  9 11  2  0
 11 12  1  0
 12 13  1  0
 12 14  2  0
  2 15  1  0
 15 16  2  0
 16 17  1  0
 17 18  2  0
 18 19  1  0
 19 20  2  0
 19 21  1  0
 21 22  1  0
 22 23  1  0
 23 24  1  0
 24 25  1  0
 25 26  2  0
 25 27  1  0
 22 28  1  0
 28 29  2  0
 28 30  1  0
 18 31  1  0
 31 32  2  0
 14  4  1  0
 32 15  1  0
 14  7  1  0
  1 33  1  0
  1 34  1  0
  1 35  1  0
  3 36  1  0
  3 37  1  0
  5 38  1  0
 10 39  1  0
 10 40  1  0
 13 41  1  0
 13 42  1  0
 16 43  1  0
 17 44  1  0
 21 45  1  0
 22 46  1  0
 23 47  1  0
 23 48  1  0
 24 49  1  0
 24 50  1  0
 27 51  1  0
 30 52  1  0
 31 53  1  0
 32 54  1  0
M  END
$$$$
