@<TRIPOS>MOLECULE
*****
 40 41 0 0 0
SMALL
GASTEIGER

@<TRIPOS>ATOM
      1 C           4.3895    4.0855    2.1596 C.1     1  UNL1       -0.1179
      2 C           4.0052    3.4076    1.0915 C.1     1  UNL1       -0.0902
      3 C           3.5709    2.6811   -0.0567 C.3     1  UNL1        0.0586
      4 N           2.1368    2.9678   -0.2485 N.3     1  UNL1       -0.2989
      5 C           1.3398    2.4873    0.8979 C.3     1  UNL1        0.0343
      6 C          -0.1018    2.5951    0.4420 C.3     1  UNL1       -0.0293
      7 C          -0.3172    1.2987   -0.3347 C.3     1  UNL1       -0.0222
      8 C           0.5721    0.3124    0.3452 C.ar    1  UNL1       -0.0002
      9 C           0.5587   -1.0390    0.3246 C.ar    1  UNL1        0.1367
     10 O          -0.3726   -1.7154   -0.4360 O.3     1  UNL1       -0.4111
     11 C          -1.6839   -1.9308   -0.1227 C.2     1  UNL1        0.4079
     12 O          -2.1701   -1.4932    0.9350 O.2     1  UNL1       -0.2258
     13 N          -2.4749   -2.6884   -1.0611 N.am    1  UNL1       -0.2704
     14 C          -1.8541   -3.1620   -2.2654 C.3     1  UNL1        0.0063
     15 C          -3.8603   -2.9754   -0.7201 C.3     1  UNL1        0.0147
     16 C          -4.6564   -1.7878   -1.2218 C.3     1  UNL1       -0.0492
     17 C           1.4975   -1.7572    1.0811 C.ar    1  UNL1       -0.0189
     18 C           2.3918   -1.0991    1.8114 C.ar    1  UNL1       -0.0580
     19 C           2.4260    0.3230    1.8629 C.ar    1  UNL1       -0.0566
     20 C           1.5168    1.0403    1.1254 C.ar    1  UNL1       -0.0238
     21 H           4.7181    4.6725    3.0543 H       1  UNL1        0.1228
     22 H           4.0725    2.9920   -0.9563 H       1  UNL1        0.0561
     23 H           3.6438    1.5727    0.1198 H       1  UNL1        0.0561
     24 H           1.8415    2.4185   -1.1051 H       1  UNL1        0.1234
     25 H           1.4806    3.1199    1.7625 H       1  UNL1        0.0510
     26 H          -0.2587    3.4061   -0.3054 H       1  UNL1        0.0287
     27 H          -0.8254    2.6994    1.2499 H       1  UNL1        0.0287
     28 H          -1.4069    1.0296   -0.2146 H       1  UNL1        0.0315
     29 H           0.0027    1.3813   -1.3799 H       1  UNL1        0.0315
     30 H          -1.1954   -2.4024   -2.7221 H       1  UNL1        0.0429
     31 H          -2.7119   -3.2947   -3.0022 H       1  UNL1        0.0429
     32 H          -1.3114   -4.1314   -2.1510 H       1  UNL1        0.0429
     33 H          -4.2183   -3.9469   -1.1334 H       1  UNL1        0.0463
     34 H          -4.0076   -3.0495    0.4025 H       1  UNL1        0.0463
     35 H          -5.3407   -1.4539   -0.3889 H       1  UNL1        0.0245
     36 H          -3.9849   -0.9105   -1.3729 H       1  UNL1        0.0245
     37 H          -5.2254   -1.9601   -2.1376 H       1  UNL1        0.0245
     38 H           1.4726   -2.8574    1.0029 H       1  UNL1        0.0654
     39 H           3.1473   -1.6096    2.4408 H       1  UNL1        0.0619
     40 H           3.1937    0.7739    2.5138 H       1  UNL1        0.0621
@<TRIPOS>BOND
     1     1     2    3
     2     2     3    1
     3     3     4    1
     4     4     5    1
     5     5     6    1
     6     6     7    1
     7     7     8    1
     8     8     9   ar
     9     9    10    1
    10    10    11    1
    11    11    12    2
    12    11    13   am
    13    13    14    1
    14    13    15    1
    15    15    16    1
    16     9    17   ar
    17    17    18   ar
    18    18    19   ar
    19    19    20   ar
    20    20     5    1
    21    20     8   ar
    22     1    21    1
    23     3    22    1
    24     3    23    1
    25     4    24    1
    26     5    25    1
    27     6    26    1
    28     6    27    1
    29     7    28    1
    30     7    29    1
    31    14    30    1
    32    14    31    1
    33    14    32    1
    34    15    33    1
    35    15    34    1
    36    16    35    1
    37    16    36    1
    38    16    37    1
    39    17    38    1
    40    18    39    1
    41    19    40    1
