
     RDKit          3D

 40 41  0  0  0  0  0  0  0  0999 V2000
    4.3895    4.0855    2.1596 C   0  0  0  0  0  0  0  0  0  0  0  0
    4.0052    3.4076    1.0915 C   0  0  0  0  0  0  0  0  0  0  0  0
    3.5709    2.6811   -0.0567 C   0  0  0  0  0  0  0  0  0  0  0  0
    2.1368    2.9678   -0.2485 N   0  0  0  0  0  0  0  0  0  0  0  0
    1.3398    2.4873    0.8979 C   0  0  0  0  0  0  0  0  0  0  0  0
   -0.1018    2.5951    0.4420 C   0  0  0  0  0  0  0  0  0  0  0  0
   -0.3172    1.2987   -0.3347 C   0  0  0  0  0  0  0  0  0  0  0  0
    0.5721    0.3124    0.3452 C   0  0  0  0  0  0  0  0  0  0  0  0
    0.5587   -1.0390    0.3246 C   0  0  0  0  0  0  0  0  0  0  0  0
   -0.3726   -1.7154   -0.4360 O   0  0  0  0  0  0  0  0  0  0  0  0
   -1.6839   -1.9308   -0.1227 C   0  0  0  0  0  0  0  0  0  0  0  0
   -2.1701   -1.4932    0.9350 O   0  0  0  0  0  0  0  0  0  0  0  0
   -2.4749   -2.6884   -1.0611 N   0  0  0  0  0  0  0  0  0  0  0  0
   -1.8541   -3.1620   -2.2654 C   0  0  0  0  0  0  0  0  0  0  0  0
   -3.8603   -2.9754   -0.7201 C   0  0  0  0  0  0  0  0  0  0  0  0
   -4.6564   -1.7878   -1.2218 C   0  0  0  0  0  0  0  0  0  0  0  0
    1.4975   -1.7572    1.0811 C   0  0  0  0  0  0  0  0  0  0  0  0
    2.3918   -1.0991    1.8114 C   0  0  0  0  0  0  0  0  0  0  0  0
    2.4260    0.3230    1.8629 C   0  0  0  0  0  0  0  0  0  0  0  0
    1.5168    1.0403    1.1254 C   0  0  0  0  0  0  0  0  0  0  0  0
    4.7181    4.6725    3.0543 H   0  0  0  0  0  0  0  0  0  0  0  0
    4.0725    2.9920   -0.9563 H   0  0  0  0  0  0  0  0  0  0  0  0
    3.6438    1.5727    0.1198 H   0  0  0  0  0  0  0  0  0  0  0  0
    1.8415    2.4185   -1.1051 H   0  0  0  0  0  0  0  0  0  0  0  0
    1.4806    3.1199    1.7625 H   0  0  0  0  0  0  0  0  0  0  0  0
   -0.2587    3.4061   -0.3054 H   0  0  0  0  0  0  0  0  0  0  0  0
   -0.8254    2.6994    1.2499 H   0  0  0  0  0  0  0  0  0  0  0  0
   -1.4069    1.0296   -0.2146 H   0  0  0  0  0  0  0  0  0  0  0  0
    0.0027    1.3813   -1.3799 H   0  0  0  0  0  0  0  0  0  0  0  0
   -1.1954   -2.4024   -2.7221 H   0  0  0  0  0  0  0  0  0  0  0  0
   -2.7119   -3.2947   -3.0022 H   0  0  0  0  0  0  0  0  0  0  0  0
   -1.3114   -4.1314   -2.1510 H   0  0  0  0  0  0  0  0  0  0  0  0
   -4.2183   -3.9469   -1.1334 H   0  0  0  0  0  0  0  0  0  0  0  0
   -4.0076   -3.0495    0.4025 H   0  0  0  0  0  0  0  0  0  0  0  0
   -5.3407   -1.4539   -0.3889 H   0  0  0  0  0  0  0  0  0  0  0  0
   -3.9849   -0.9105   -1.3729 H   0  0  0  0  0  0  0  0  0  0  0  0
   -5.2254   -1.9601   -2.1376 H   0  0  0  0  0  0  0  0  0  0  0  0
    1.4726   -2.8574    1.0029 H   0  0  0  0  0  0  0  0  0  0  0  0
    3.1473   -1.6096    2.4408 H   0  0  0  0  0  0  0  0  0  0  0  0
    3.1937    0.7739    2.5138 H   0  0  0  0  0  0  0  0  0  0  0  0
  1  2  3  0
  2  3  1  0
  3  4  1  0
  4  5  1  0
  5  6  1  0
  6  7  1  0
  7  8  1  0
  8  9  2  0
  9 10  1  0
 10 11  1  0
 11 12  2  0
 11 13  1  0
 13 14  1  0
 13 15  1  0
 15 16  1  0
  9 17  1  0
 17 18  2  0
 18 19  1  0
 19 20  2  0
 20  5  1  0
 20  8  1  0
  1 21  1  0
  3 22  1  0
  3 23  1  0
  4 24  1  0
  5 25  1  0
  6 26  1  0
  6 27  1  0
  7 28  1  0
  7 29  1  0
 14 30  1  0
 14 31  1  0
 14 32  1  0
 15 33  1  0
 15 34  1  0
 16 35  1  0
 16 36  1  0
 16 37  1  0
 17 38  1  0
 18 39  1  0
 19 40  1  0
M  END
$$$$
