@<TRIPOS>MOLECULE
*****
 44 46 0 0 0
SMALL
GASTEIGER

@<TRIPOS>ATOM
      1 C          -6.1382   -1.7376    1.8948 C.3     1  UNL1        0.0788
      2 O          -6.7812   -1.4435    0.6619 O.3     1  UNL1       -0.4951
      3 C          -6.0253   -0.8382   -0.3357 C.ar    1  UNL1        0.1219
      4 C          -6.6287   -0.5486   -1.5358 C.ar    1  UNL1       -0.0198
      5 C          -5.8761    0.0490   -2.5185 C.ar    1  UNL1       -0.0565
      6 C          -4.5265    0.3708   -2.3416 C.ar    1  UNL1       -0.0400
      7 C          -3.9210    0.0814   -1.1394 C.ar    1  UNL1        0.0397
      8 N          -2.5238    0.3798   -0.8991 N.am    1  UNL1       -0.2700
      9 C          -2.1697    1.6856   -0.3765 C.3     1  UNL1        0.0086
     10 C          -1.5426   -0.6055   -1.1857 C.2     1  UNL1        0.2572
     11 O          -1.8575   -1.7341   -1.6286 O.2     1  UNL1       -0.2691
     12 C          -0.1398   -0.2732   -0.9518 C.ar    1  UNL1        0.0749
     13 C           0.6836    0.5749   -1.5919 C.ar    1  UNL1       -0.0419
     14 C           1.9658    0.6827   -1.1709 C.ar    1  UNL1       -0.0461
     15 C           2.3754   -0.0542   -0.1336 C.ar    1  UNL1        0.0229
     16 C           3.6193   -0.2283    0.5878 C.ar    1  UNL1        0.0275
     17 C           3.7227   -1.0599    1.6817 C.ar    1  UNL1       -0.0505
     18 C           4.8847   -1.2668    2.3550 C.ar    1  UNL1       -0.0575
     19 C           6.0389   -0.6133    1.9315 C.ar    1  UNL1       -0.0170
     20 C           5.9641    0.2238    0.8416 C.ar    1  UNL1        0.1557
     21 O           7.0897    0.8737    0.4133 O.3     1  UNL1       -0.4922
     22 C           8.3709    0.7751    0.9761 C.3     1  UNL1        0.0789
     23 C           4.7497    0.4108    0.1761 C.ar    1  UNL1        0.1729
     24 F           4.7524    1.2388   -0.8753 F       1  UNL1       -0.2010
     25 S           0.8709   -1.0040    0.3373 S.2     1  UNL1       -0.0836
     26 C          -4.6966   -0.5208   -0.1618 C.ar    1  UNL1        0.0015
     27 H          -6.7727   -2.3809    2.5132 H       1  UNL1        0.0660
     28 H          -5.8199   -0.8013    2.3717 H       1  UNL1        0.0660
     29 H          -5.2104   -2.2848    1.6302 H       1  UNL1        0.0660
     30 H          -7.6633   -0.7649   -1.7493 H       1  UNL1        0.0654
     31 H          -6.2949    0.3000   -3.4792 H       1  UNL1        0.0619
     32 H          -3.9394    0.8481   -3.1298 H       1  UNL1        0.0636
     33 H          -1.3963    2.2063   -0.9895 H       1  UNL1        0.0433
     34 H          -1.8445    1.5895    0.6806 H       1  UNL1        0.0433
     35 H          -3.0689    2.3546   -0.4070 H       1  UNL1        0.0433
     36 H           0.2661    1.1664   -2.4620 H       1  UNL1        0.0631
     37 H           2.6857    1.3824   -1.6792 H       1  UNL1        0.0629
     38 H           2.8237   -1.5687    2.0118 H       1  UNL1        0.0625
     39 H           4.9922   -1.9144    3.2188 H       1  UNL1        0.0619
     40 H           6.9757   -0.7765    2.4746 H       1  UNL1        0.0655
     41 H           8.5641    1.5230    1.7660 H       1  UNL1        0.0660
     42 H           9.1119    0.9835    0.1543 H       1  UNL1        0.0660
     43 H           8.5281   -0.2722    1.2839 H       1  UNL1        0.0660
     44 H          -4.1981   -0.7418    0.7799 H       1  UNL1        0.0673
@<TRIPOS>BOND
     1     1     2    1
     2     2     3    1
     3     3     4   ar
     4     4     5   ar
     5     5     6   ar
     6     6     7   ar
     7     7     8    1
     8     8     9    1
     9     8    10   am
    10    10    11    2
    11    10    12    1
    12    12    13   ar
    13    13    14   ar
    14    14    15   ar
    15    15    16    1
    16    16    17   ar
    17    17    18   ar
    18    18    19   ar
    19    19    20   ar
    20    20    21    1
    21    21    22    1
    22    20    23   ar
    23    23    24    1
    24    15    25   ar
    25     7    26   ar
    26    26     3   ar
    27    25    12   ar
    28    23    16   ar
    29     1    27    1
    30     1    28    1
    31     1    29    1
    32     4    30    1
    33     5    31    1
    34     6    32    1
    35     9    33    1
    36     9    34    1
    37     9    35    1
    38    13    36    1
    39    14    37    1
    40    17    38    1
    41    18    39    1
    42    19    40    1
    43    22    41    1
    44    22    42    1
    45    22    43    1
    46    26    44    1
