@<TRIPOS>MOLECULE
*****
 38 38 0 0 0
SMALL
GASTEIGER

@<TRIPOS>ATOM
      1 C          -1.4797   -2.9378    1.1692 C.3     1  UNL1       -0.0641
      2 C          -1.0464   -1.8956    0.1371 C.3     1  UNL1       -0.0414
      3 C          -1.7969   -0.6129    0.3468 C.3     1  UNL1        0.0203
      4 N          -1.4239    0.3708   -0.5831 N.3     1  UNL1       -0.1766
      5 C          -2.3882    0.7721   -1.5360 C.3     1  UNL1        0.0203
      6 C          -3.6221    1.4312   -1.0355 C.3     1  UNL1       -0.0414
      7 C          -3.4079    2.6990   -0.2752 C.3     1  UNL1       -0.0641
      8 S          -0.2020    1.4511   -0.1761 S.O2    1  UNL1        0.0609
      9 O          -0.6144    2.2845    1.0297 O.2     1  UNL1       -0.1528
     10 O          -0.0599    2.4677   -1.3006 O.2     1  UNL1       -0.1528
     11 C           1.3363    0.6778    0.1288 C.ar    1  UNL1        0.1055
     12 C           2.1282    0.5003   -0.9946 C.ar    1  UNL1       -0.0346
     13 C           3.3769   -0.0909   -0.9255 C.ar    1  UNL1       -0.0459
     14 C           3.8398   -0.5115    0.2914 C.ar    1  UNL1        0.0589
     15 C           3.0701   -0.3457    1.4229 C.ar    1  UNL1       -0.0459
     16 C           1.8262    0.2443    1.3474 C.ar    1  UNL1       -0.0346
     17 C           5.1293   -1.1523    0.5414 C.2     1  UNL1        0.3368
     18 O           6.1255   -1.4614   -0.3645 O.3     1  UNL1       -0.4771
     19 O           5.5896   -1.5550    1.6593 O.2     1  UNL1       -0.2451
     20 H          -1.5979   -2.4485    2.1623 H       1  UNL1        0.0230
     21 H          -2.4632   -3.3621    0.9105 H       1  UNL1        0.0230
     22 H          -0.7402   -3.7483    1.2538 H       1  UNL1        0.0230
     23 H          -1.3336   -2.3001   -0.8695 H       1  UNL1        0.0275
     24 H           0.0277   -1.6999    0.2136 H       1  UNL1        0.0275
     25 H          -2.8804   -0.8140    0.4444 H       1  UNL1        0.0444
     26 H          -1.4954   -0.2579    1.3760 H       1  UNL1        0.0444
     27 H          -2.6703   -0.0530   -2.2215 H       1  UNL1        0.0444
     28 H          -1.8848    1.5241   -2.2113 H       1  UNL1        0.0444
     29 H          -4.2340    1.6980   -1.9315 H       1  UNL1        0.0275
     30 H          -4.2830    0.7685   -0.4424 H       1  UNL1        0.0275
     31 H          -3.3488    2.4354    0.8164 H       1  UNL1        0.0230
     32 H          -4.3313    3.3386   -0.3675 H       1  UNL1        0.0230
     33 H          -2.5724    3.3216   -0.5978 H       1  UNL1        0.0230
     34 H           1.8344    0.8047   -1.9882 H       1  UNL1        0.0637
     35 H           4.0309   -0.2500   -1.7787 H       1  UNL1        0.0626
     36 H           3.3380   -0.6413    2.4347 H       1  UNL1        0.0626
     37 H           1.1543    0.4152    2.1804 H       1  UNL1        0.0637
     38 H           7.0698   -1.0670   -0.2667 H       1  UNL1        0.2954
@<TRIPOS>BOND
     1     1     2    1
     2     2     3    1
     3     3     4    1
     4     4     5    1
     5     5     6    1
     6     6     7    1
     7     4     8    1
     8     8     9    2
     9     8    10    2
    10     8    11    1
    11    11    12   ar
    12    12    13   ar
    13    13    14   ar
    14    14    15   ar
    15    15    16   ar
    16    14    17    1
    17    17    18    1
    18    17    19    2
    19    16    11   ar
    20     1    20    1
    21     1    21    1
    22     1    22    1
    23     2    23    1
    24     2    24    1
    25     3    25    1
    26     3    26    1
    27     5    27    1
    28     5    28    1
    29     6    29    1
    30     6    30    1
    31     7    31    1
    32     7    32    1
    33     7    33    1
    34    12    34    1
    35    13    35    1
    36    15    36    1
    37    16    37    1
    38    18    38    1
