
     RDKit          3D

 33 35  0  0  0  0  0  0  0  0999 V2000
   -0.6774    0.4361    2.4598 C   0  0  0  0  0  0  0  0  0  0  0  0
   -1.3767    0.1744    1.2294 N   0  0  0  0  0  0  0  0  0  0  0  0
   -0.7882   -0.0744   -0.0358 C   0  0  0  0  0  0  0  0  0  0  0  0
    0.6561   -0.0490    0.0247 C   0  0  0  0  0  0  0  0  0  0  0  0
    1.4007    0.1623    1.0425 O   0  0  0  0  0  0  0  0  0  0  0  0
    1.6221   -0.2413   -0.9767 N   0  0  0  0  0  0  0  0  0  0  0  0
    2.9843   -0.1591   -0.6295 C   0  0  0  0  0  0  0  0  0  0  0  0
    3.6505    1.0546   -0.6926 C   0  0  0  0  0  0  0  0  0  0  0  0
    4.9813    1.1817   -0.3626 C   0  0  0  0  0  0  0  0  0  0  0  0
    5.6979    0.0764    0.0479 C   0  0  0  0  0  0  0  0  0  0  0  0
    4.9758   -1.1060    0.0899 C   0  0  0  0  0  0  0  0  0  0  0  0
    3.6784   -1.2391   -0.2299 N   0  0  0  0  0  0  0  0  0  0  0  0
   -1.4975   -0.2987   -1.1217 C   0  0  0  0  0  0  0  0  0  0  0  0
   -0.8376   -0.5329   -2.3180 O   0  0  0  0  0  0  0  0  0  0  0  0
   -2.9186   -0.3297   -1.2109 C   0  0  0  0  0  0  0  0  0  0  0  0
   -3.7771   -0.1225   -0.1364 C   0  0  0  0  0  0  0  0  0  0  0  0
   -5.1071   -0.1472   -0.2188 C   0  0  0  0  0  0  0  0  0  0  0  0
   -5.5609   -0.4293   -1.6286 C   0  0  0  0  0  0  0  0  0  0  0  0
   -3.9591   -0.6107   -2.5955 S   0  0  0  0  0  0  0  0  0  0  0  0
   -3.0850    0.1897    1.4341 S   0  0  0  0  0  0  0  0  0  0  0  0
   -3.5470    1.5252    2.0011 O   0  0  0  0  0  0  0  0  0  0  0  0
   -3.5013   -0.9079    2.4035 O   0  0  0  0  0  0  0  0  0  0  0  0
   -1.3656    0.5652    3.3410 H   0  0  0  0  0  0  0  0  0  0  0  0
   -0.0235    1.3421    2.3839 H   0  0  0  0  0  0  0  0  0  0  0  0
    0.0142   -0.4043    2.7620 H   0  0  0  0  0  0  0  0  0  0  0  0
    1.3205   -0.4380   -1.9423 H   0  0  0  0  0  0  0  0  0  0  0  0
    3.0922    1.9342   -1.0161 H   0  0  0  0  0  0  0  0  0  0  0  0
    5.5266    2.1194   -0.4032 H   0  0  0  0  0  0  0  0  0  0  0  0
    6.7424    0.1005    0.3219 H   0  0  0  0  0  0  0  0  0  0  0  0
    5.5124   -1.9928    0.4090 H   0  0  0  0  0  0  0  0  0  0  0  0
   -1.1201   -1.2584   -2.9615 H   0  0  0  0  0  0  0  0  0  0  0  0
   -5.9553   -0.0258    0.4210 H   0  0  0  0  0  0  0  0  0  0  0  0
   -6.7574   -0.4947   -1.9206 H   0  0  0  0  0  0  0  0  0  0  0  0
  1  2  1  0
  2  3  1  0
  3  4  1  0
  4  5  2  0
  4  6  1  0
  6  7  1  0
  7  8  2  0
  8  9  1  0
  9 10  2  0
 10 11  1  0
 11 12  2  0
  3 13  2  0
 13 14  1  0
 13 15  1  0
 15 16  2  0
 16 17  1  0
 17 18  2  0
 18 19  1  0
 16 20  1  0
 20 21  2  0
 20 22  2  0
 20  2  1  0
 12  7  1  0
 19 15  1  0
  1 23  1  0
  1 24  1  0
  1 25  1  0
  6 26  1  0
  8 27  1  0
  9 28  1  0
 10 29  1  0
 11 30  1  0
 14 31  1  0
 17 32  1  0
 18 33  1  0
M  END
$$$$
