
     RDKit          3D

 57 58  0  0  0  0  0  0  0  0999 V2000
   -4.0408   -0.8096   -0.7428 C   0  0  0  0  0  0  0  0  0  0  0  0
   -2.9406    0.1031   -0.1680 C   0  0  0  0  0  0  0  0  0  0  0  0
   -1.6443   -0.5682   -0.3040 C   0  0  2  0  0  0  0  0  0  0  0  0
   -1.4912   -1.8054    0.3410 O   0  0  0  0  0  0  0  0  0  0  0  0
   -1.2609   -2.9982   -0.3284 C   0  0  0  0  0  0  0  0  0  0  0  0
   -1.1020   -4.2962    0.3751 C   0  0  0  0  0  0  0  0  0  0  0  0
   -1.1418   -3.2555   -1.5538 O   0  0  0  0  0  0  0  0  0  0  0  0
   -0.4104    0.3121   -0.0592 C   0  0  0  0  0  0  0  0  0  0  0  0
    0.7231   -0.6179   -0.2628 C   0  0  0  0  0  0  0  0  0  0  0  0
    2.1162   -0.2402   -0.1290 C   0  0  2  0  0  0  0  0  0  0  0  0
    2.7023    0.8121   -1.0007 C   0  0  0  0  0  0  0  0  0  0  0  0
    2.8932   -1.4462   -0.4927 N   0  0  0  0  0  0  0  0  0  0  0  0
    2.5848   -2.5549    0.3686 C   0  0  0  0  0  0  0  0  0  0  0  0
    4.2940   -1.1945   -0.4741 C   0  0  0  0  0  0  0  0  0  0  0  0
   -0.5198    1.4404   -1.0332 C   0  0  0  0  0  0  0  0  0  0  0  0
   -1.1641    2.5876   -0.5541 C   0  0  0  0  0  0  0  0  0  0  0  0
   -1.3419    3.6854   -1.3647 C   0  0  0  0  0  0  0  0  0  0  0  0
   -0.9048    3.7136   -2.6629 C   0  0  0  0  0  0  0  0  0  0  0  0
   -0.2693    2.5850   -3.1396 C   0  0  0  0  0  0  0  0  0  0  0  0
   -0.0912    1.4968   -2.3423 C   0  0  0  0  0  0  0  0  0  0  0  0
   -0.3700    0.8486    1.3276 C   0  0  0  0  0  0  0  0  0  0  0  0
    0.3790    1.9473    1.6885 C   0  0  0  0  0  0  0  0  0  0  0  0
    0.4454    2.4620    2.9676 C   0  0  0  0  0  0  0  0  0  0  0  0
   -0.2754    1.8608    3.9816 C   0  0  0  0  0  0  0  0  0  0  0  0
   -1.0396    0.7616    3.6770 C   0  0  0  0  0  0  0  0  0  0  0  0
   -1.0578    0.3038    2.3809 C   0  0  0  0  0  0  0  0  0  0  0  0
   -5.0092   -0.2783   -0.6794 H   0  0  0  0  0  0  0  0  0  0  0  0
   -4.0898   -1.7644   -0.1811 H   0  0  0  0  0  0  0  0  0  0  0  0
   -3.8244   -1.0398   -1.7862 H   0  0  0  0  0  0  0  0  0  0  0  0
   -3.2215    0.5129    0.8054 H   0  0  0  0  0  0  0  0  0  0  0  0
   -3.0690    0.9807   -0.8747 H   0  0  0  0  0  0  0  0  0  0  0  0
   -1.5327   -0.8225   -1.4057 H   0  0  0  0  0  0  0  0  0  0  0  0
   -1.2247   -4.1992    1.4617 H   0  0  0  0  0  0  0  0  0  0  0  0
   -0.1001   -4.7126    0.1688 H   0  0  0  0  0  0  0  0  0  0  0  0
   -1.8685   -5.0324    0.0255 H   0  0  0  0  0  0  0  0  0  0  0  0
    0.6429   -1.1869   -1.2466 H   0  0  0  0  0  0  0  0  0  0  0  0
    0.5605   -1.4721    0.4698 H   0  0  0  0  0  0  0  0  0  0  0  0
    2.4678   -0.0196    0.9058 H   0  0  0  0  0  0  0  0  0  0  0  0
    3.8149    0.9456   -0.8102 H   0  0  0  0  0  0  0  0  0  0  0  0
    2.3059    1.8201   -0.7982 H   0  0  0  0  0  0  0  0  0  0  0  0
    2.6951    0.5340   -2.0861 H   0  0  0  0  0  0  0  0  0  0  0  0
    3.4836   -3.2224    0.3366 H   0  0  0  0  0  0  0  0  0  0  0  0
    1.7587   -3.2033   -0.0107 H   0  0  0  0  0  0  0  0  0  0  0  0
    2.4730   -2.2711    1.4350 H   0  0  0  0  0  0  0  0  0  0  0  0
    4.8225   -2.1773   -0.3175 H   0  0  0  0  0  0  0  0  0  0  0  0
    4.5555   -0.5360    0.3768 H   0  0  0  0  0  0  0  0  0  0  0  0
    4.7123   -0.7899   -1.4232 H   0  0  0  0  0  0  0  0  0  0  0  0
   -1.5735    2.7506    0.4295 H   0  0  0  0  0  0  0  0  0  0  0  0
   -1.8371    4.6138   -1.0536 H   0  0  0  0  0  0  0  0  0  0  0  0
   -0.9996    4.5261   -3.3684 H   0  0  0  0  0  0  0  0  0  0  0  0
    0.1127    2.5124   -4.1578 H   0  0  0  0  0  0  0  0  0  0  0  0
    0.3916    0.5921   -2.6814 H   0  0  0  0  0  0  0  0  0  0  0  0
    0.9660    2.4914    0.9946 H   0  0  0  0  0  0  0  0  0  0  0  0
    1.0334    3.3220    3.2452 H   0  0  0  0  0  0  0  0  0  0  0  0
   -0.2388    2.2460    4.9893 H   0  0  0  0  0  0  0  0  0  0  0  0
   -1.5934    0.3105    4.4866 H   0  0  0  0  0  0  0  0  0  0  0  0
   -1.6862   -0.5639    2.2545 H   0  0  0  0  0  0  0  0  0  0  0  0
  1  2  1  0
  2  3  1  0
  3  4  1  0
  4  5  1  0
  5  6  1  0
  5  7  2  0
  3  8  1  0
  8  9  1  0
  9 10  1  0
 10 11  1  0
 10 12  1  0
 12 13  1  0
 12 14  1  0
  8 15  1  0
 15 16  2  0
 16 17  1  0
 17 18  2  0
 18 19  1  0
 19 20  2  0
  8 21  1  0
 21 22  2  0
 22 23  1  0
 23 24  2  0
 24 25  1  0
 25 26  2  0
 20 15  1  0
 26 21  1  0
  1 27  1  0
  1 28  1  0
  1 29  1  0
  2 30  1  0
  2 31  1  0
  3 32  1  6
  6 33  1  0
  6 34  1  0
  6 35  1  0
  9 36  1  0
  9 37  1  0
 10 38  1  1
 11 39  1  0
 11 40  1  0
 11 41  1  0
 13 42  1  0
 13 43  1  0
 13 44  1  0
 14 45  1  0
 14 46  1  0
 14 47  1  0
 16 48  1  0
 17 49  1  0
 18 50  1  0
 19 51  1  0
 20 52  1  0
 22 53  1  0
 23 54  1  0
 24 55  1  0
 25 56  1  0
 26 57  1  0
M  END
$$$$
