@<TRIPOS>MOLECULE
*****
 57 58 0 0 0
SMALL
GASTEIGER

@<TRIPOS>ATOM
      1 C          -4.0408   -0.8096   -0.7428 C.3     1  UNL1       -0.0619
      2 C          -2.9406    0.1031   -0.1680 C.3     1  UNL1       -0.0173
      3 C          -1.6443   -0.5682   -0.3040 C.3     1  UNL1        0.1164
      4 O          -1.4912   -1.8054    0.3410 O.3     1  UNL1       -0.4603
      5 C          -1.2609   -2.9982   -0.3284 C.2     1  UNL1        0.3042
      6 C          -1.1020   -4.2962    0.3751 C.3     1  UNL1        0.0332
      7 O          -1.1418   -3.2555   -1.5538 O.2     1  UNL1       -0.2512
      8 C          -0.4104    0.3121   -0.0592 C.3     1  UNL1        0.0589
      9 C           0.7231   -0.6179   -0.2628 C.3     1  UNL1       -0.0205
     10 C           2.1162   -0.2402   -0.1290 C.3     1  UNL1        0.0082
     11 C           2.7023    0.8121   -1.0007 C.3     1  UNL1       -0.0495
     12 N           2.8932   -1.4462   -0.4927 N.3     1  UNL1       -0.3056
     13 C           2.5848   -2.5549    0.3686 C.3     1  UNL1       -0.0128
     14 C           4.2940   -1.1945   -0.4741 C.3     1  UNL1       -0.0128
     15 C          -0.5198    1.4404   -1.0332 C.ar    1  UNL1       -0.0333
     16 C          -1.1641    2.5876   -0.5541 C.ar    1  UNL1       -0.0576
     17 C          -1.3419    3.6854   -1.3647 C.ar    1  UNL1       -0.0615
     18 C          -0.9048    3.7136   -2.6629 C.ar    1  UNL1       -0.0617
     19 C          -0.2693    2.5850   -3.1396 C.ar    1  UNL1       -0.0615
     20 C          -0.0912    1.4968   -2.3423 C.ar    1  UNL1       -0.0576
     21 C          -0.3700    0.8486    1.3276 C.ar    1  UNL1       -0.0333
     22 C           0.3790    1.9473    1.6885 C.ar    1  UNL1       -0.0576
     23 C           0.4454    2.4620    2.9676 C.ar    1  UNL1       -0.0615
     24 C          -0.2754    1.8608    3.9816 C.ar    1  UNL1       -0.0617
     25 C          -1.0396    0.7616    3.6770 C.ar    1  UNL1       -0.0615
     26 C          -1.0578    0.3038    2.3809 C.ar    1  UNL1       -0.0576
     27 H          -5.0092   -0.2783   -0.6794 H       1  UNL1        0.0231
     28 H          -4.0898   -1.7644   -0.1811 H       1  UNL1        0.0231
     29 H          -3.8244   -1.0398   -1.7862 H       1  UNL1        0.0231
     30 H          -3.2215    0.5129    0.8054 H       1  UNL1        0.0298
     31 H          -3.0690    0.9807   -0.8747 H       1  UNL1        0.0298
     32 H          -1.5327   -0.8225   -1.4057 H       1  UNL1        0.0746
     33 H          -1.2247   -4.1992    1.4617 H       1  UNL1        0.0342
     34 H          -0.1001   -4.7126    0.1688 H       1  UNL1        0.0342
     35 H          -1.8685   -5.0324    0.0255 H       1  UNL1        0.0342
     36 H           0.6429   -1.1869   -1.2466 H       1  UNL1        0.0293
     37 H           0.5605   -1.4721    0.4698 H       1  UNL1        0.0293
     38 H           2.4678   -0.0196    0.9058 H       1  UNL1        0.0460
     39 H           3.8149    0.9456   -0.8102 H       1  UNL1        0.0245
     40 H           2.3059    1.8201   -0.7982 H       1  UNL1        0.0245
     41 H           2.6951    0.5340   -2.0861 H       1  UNL1        0.0245
     42 H           3.4836   -3.2224    0.3366 H       1  UNL1        0.0391
     43 H           1.7587   -3.2033   -0.0107 H       1  UNL1        0.0391
     44 H           2.4730   -2.2711    1.4350 H       1  UNL1        0.0391
     45 H           4.8225   -2.1773   -0.3175 H       1  UNL1        0.0391
     46 H           4.5555   -0.5360    0.3768 H       1  UNL1        0.0391
     47 H           4.7123   -0.7899   -1.4232 H       1  UNL1        0.0391
     48 H          -1.5735    2.7506    0.4295 H       1  UNL1        0.0621
     49 H          -1.8371    4.6138   -1.0536 H       1  UNL1        0.0618
     50 H          -0.9996    4.5261   -3.3684 H       1  UNL1        0.0618
     51 H           0.1127    2.5124   -4.1578 H       1  UNL1        0.0618
     52 H           0.3916    0.5921   -2.6814 H       1  UNL1        0.0621
     53 H           0.9660    2.4914    0.9946 H       1  UNL1        0.0621
     54 H           1.0334    3.3220    3.2452 H       1  UNL1        0.0618
     55 H          -0.2388    2.2460    4.9893 H       1  UNL1        0.0618
     56 H          -1.5934    0.3105    4.4866 H       1  UNL1        0.0618
     57 H          -1.6862   -0.5639    2.2545 H       1  UNL1        0.0621
@<TRIPOS>BOND
     1     1     2    1
     2     2     3    1
     3     3     4    1
     4     4     5    1
     5     5     6    1
     6     5     7    2
     7     3     8    1
     8     8     9    1
     9     9    10    1
    10    10    11    1
    11    10    12    1
    12    12    13    1
    13    12    14    1
    14     8    15    1
    15    15    16   ar
    16    16    17   ar
    17    17    18   ar
    18    18    19   ar
    19    19    20   ar
    20     8    21    1
    21    21    22   ar
    22    22    23   ar
    23    23    24   ar
    24    24    25   ar
    25    25    26   ar
    26    20    15   ar
    27    26    21   ar
    28     1    27    1
    29     1    28    1
    30     1    29    1
    31     2    30    1
    32     2    31    1
    33     3    32    1
    34     6    33    1
    35     6    34    1
    36     6    35    1
    37     9    36    1
    38     9    37    1
    39    10    38    1
    40    11    39    1
    41    11    40    1
    42    11    41    1
    43    13    42    1
    44    13    43    1
    45    13    44    1
    46    14    45    1
    47    14    46    1
    48    14    47    1
    49    16    48    1
    50    17    49    1
    51    18    50    1
    52    19    51    1
    53    20    52    1
    54    22    53    1
    55    23    54    1
    56    24    55    1
    57    25    56    1
    58    26    57    1
