@<TRIPOS>MOLECULE
*****
 57 60 0 0 0
SMALL
GASTEIGER

@<TRIPOS>ATOM
      1 C          -7.8895    0.8573    1.8559 C.3     1  UNL1        0.0365
      2 O          -6.6672    1.1866    2.2993 O.3     1  UNL1       -0.3814
      3 C          -5.5313    0.7957    1.7142 C.3     1  UNL1        0.0645
      4 C          -5.2831    1.1476    0.2792 C.3     1  UNL1        0.0552
      5 C          -6.3004    0.4966   -0.6440 C.3     1  UNL1       -0.0323
      6 C          -5.4026   -0.1044   -1.7494 C.3     1  UNL1       -0.0370
      7 C          -4.2241   -0.5171   -0.8455 C.3     1  UNL1        0.0209
      8 N          -3.9917    0.7420   -0.1845 N.3     1  UNL1       -0.1713
      9 S          -2.7638    0.6521    0.9789 S.O2    1  UNL1        0.0612
     10 O          -2.5627    1.9353    1.7304 O.2     1  UNL1       -0.1528
     11 O          -3.0703   -0.4217    1.9808 O.2     1  UNL1       -0.1528
     12 C          -1.2677    0.1966    0.1448 C.ar    1  UNL1        0.1063
     13 C          -0.4124    1.1492   -0.3670 C.ar    1  UNL1       -0.0335
     14 C           0.7465    0.7710   -1.0125 C.ar    1  UNL1       -0.0377
     15 C           1.1040   -0.5533   -1.1769 C.ar    1  UNL1        0.0481
     16 C           0.2496   -1.5080   -0.6656 C.ar    1  UNL1        0.0502
     17 C          -0.9174   -1.1269   -0.0156 C.ar    1  UNL1       -0.0226
     18 C           0.8393   -2.8081   -0.9625 C.2     1  UNL1        0.2496
     19 O           0.3568   -3.9270   -0.6571 O.2     1  UNL1       -0.2817
     20 C           2.0927   -2.6054   -1.6783 C.2     1  UNL1        0.2915
     21 O           2.8742   -3.4945   -2.0955 O.2     1  UNL1       -0.2661
     22 N           2.2279   -1.1853   -1.7955 N.am    1  UNL1       -0.2598
     23 C           3.3329   -0.5050   -2.4413 C.3     1  UNL1        0.0452
     24 C           4.4442   -0.1968   -1.5491 C.ar    1  UNL1       -0.0297
     25 C           4.5464    0.9752   -0.8385 C.ar    1  UNL1       -0.0567
     26 C           5.6327    1.1961   -0.0103 C.ar    1  UNL1       -0.0555
     27 C           6.6425    0.2749    0.1409 C.ar    1  UNL1       -0.0131
     28 C           7.8064    0.4578    1.0103 C.3     1  UNL1        0.1354
     29 F           8.4422    1.6653    0.8086 F       1  UNL1       -0.2396
     30 C           7.5083    0.2811    2.4869 C.3     1  UNL1        0.0387
     31 BR          6.1899    1.5611    3.0492 Br      1  UNL1       -0.0885
     32 C           6.5297   -0.9068   -0.5821 C.ar    1  UNL1       -0.0555
     33 C           5.4589   -1.1136   -1.3927 C.ar    1  UNL1       -0.0567
     34 H          -8.1658    1.2363    0.8507 H       1  UNL1        0.0523
     35 H          -8.1231   -0.2408    1.9374 H       1  UNL1        0.0523
     36 H          -8.6713    1.3283    2.5330 H       1  UNL1        0.0523
     37 H          -5.3922   -0.3359    1.7657 H       1  UNL1        0.0576
     38 H          -4.6766    1.2329    2.3249 H       1  UNL1        0.0576
     39 H          -5.3796    2.2432    0.1357 H       1  UNL1        0.0502
     40 H          -6.9517    1.1953   -1.1670 H       1  UNL1        0.0282
     41 H          -6.8099   -0.3299   -0.1110 H       1  UNL1        0.0282
     42 H          -5.9106   -0.9559   -2.1941 H       1  UNL1        0.0279
     43 H          -5.0995    0.6382   -2.4829 H       1  UNL1        0.0279
     44 H          -3.4018   -0.7627   -1.5399 H       1  UNL1        0.0444
     45 H          -4.5183   -1.3335   -0.1766 H       1  UNL1        0.0444
     46 H          -0.6379    2.2024   -0.2696 H       1  UNL1        0.0638
     47 H           1.4412    1.5108   -1.4275 H       1  UNL1        0.0637
     48 H          -1.5991   -1.8631    0.3916 H       1  UNL1        0.0645
     49 H           2.9995    0.4582   -2.9160 H       1  UNL1        0.0518
     50 H           3.7207   -1.1184   -3.2857 H       1  UNL1        0.0518
     51 H           3.7735    1.7425   -0.9199 H       1  UNL1        0.0621
     52 H           5.7238    2.1265    0.5533 H       1  UNL1        0.0621
     53 H           8.5581   -0.3472    0.7522 H       1  UNL1        0.0710
     54 H           7.2064   -0.7471    2.7314 H       1  UNL1        0.0414
     55 H           8.4344    0.4862    3.0574 H       1  UNL1        0.0414
     56 H           7.3107   -1.6657   -0.4911 H       1  UNL1        0.0621
     57 H           5.4278   -2.0681   -1.9376 H       1  UNL1        0.0621
@<TRIPOS>BOND
     1     1     2    1
     2     2     3    1
     3     3     4    1
     4     4     5    1
     5     5     6    1
     6     6     7    1
     7     7     8    1
     8     8     9    1
     9     9    10    2
    10     9    11    2
    11     9    12    1
    12    12    13   ar
    13    13    14   ar
    14    14    15   ar
    15    15    16   ar
    16    16    17   ar
    17    16    18    1
    18    18    19    2
    19    18    20    1
    20    20    21    2
    21    20    22   am
    22    22    23    1
    23    23    24    1
    24    24    25   ar
    25    25    26   ar
    26    26    27   ar
    27    27    28    1
    28    28    29    1
    29    28    30    1
    30    30    31    1
    31    27    32   ar
    32    32    33   ar
    33     8     4    1
    34    17    12   ar
    35    33    24   ar
    36    22    15    1
    37     1    34    1
    38     1    35    1
    39     1    36    1
    40     3    37    1
    41     3    38    1
    42     4    39    1
    43     5    40    1
    44     5    41    1
    45     6    42    1
    46     6    43    1
    47     7    44    1
    48     7    45    1
    49    13    46    1
    50    14    47    1
    51    17    48    1
    52    23    49    1
    53    23    50    1
    54    25    51    1
    55    26    52    1
    56    28    53    1
    57    30    54    1
    58    30    55    1
    59    32    56    1
    60    33    57    1
