@<TRIPOS>MOLECULE
*****
 22 21 0 0 0
SMALL
GASTEIGER

@<TRIPOS>ATOM
      1 C          -0.6949    0.1817    0.3187 C.3     1  UNL1        0.0051
      2 N          -0.6476   -0.8734    1.3000 N.3     1  UNL1       -0.3272
      3 C          -1.7656   -0.0206   -0.7122 C.3     1  UNL1       -0.0406
      4 C          -3.1567   -0.0892   -0.1369 C.3     1  UNL1       -0.0639
      5 C           0.6282    0.1621   -0.4554 C.3     1  UNL1       -0.0277
      6 C           1.7860    0.3869    0.4907 C.3     1  UNL1        0.0462
      7 C           3.0279    0.3563   -0.3164 C.2     1  UNL1        0.3047
      8 O           4.3309    0.5093    0.0780 O.3     1  UNL1       -0.4806
      9 O           2.8702    0.1591   -1.5619 O.2     1  UNL1       -0.2510
     10 H          -0.7958    1.1393    0.8349 H       1  UNL1        0.0458
     11 H          -1.5883   -1.1834    1.6043 H       1  UNL1        0.1185
     12 H          -0.0141   -1.6578    1.0373 H       1  UNL1        0.1185
     13 H          -1.5302   -0.9288   -1.2824 H       1  UNL1        0.0278
     14 H          -1.7325    0.8565   -1.3904 H       1  UNL1        0.0278
     15 H          -3.3206    0.7449    0.5575 H       1  UNL1        0.0230
     16 H          -3.8588    0.0277   -0.9968 H       1  UNL1        0.0230
     17 H          -3.3162   -1.0652    0.3609 H       1  UNL1        0.0230
     18 H           0.5474    0.9968   -1.1818 H       1  UNL1        0.0285
     19 H           0.6722   -0.7974   -0.9802 H       1  UNL1        0.0285
     20 H           1.7975   -0.3397    1.3031 H       1  UNL1        0.0378
     21 H           1.6762    1.4165    0.9044 H       1  UNL1        0.0378
     22 H           5.0847    0.0184   -0.3797 H       1  UNL1        0.2951
@<TRIPOS>BOND
     1     1     2    1
     2     1     3    1
     3     3     4    1
     4     1     5    1
     5     5     6    1
     6     6     7    1
     7     7     8    1
     8     7     9    2
     9     1    10    1
    10     2    11    1
    11     2    12    1
    12     3    13    1
    13     3    14    1
    14     4    15    1
    15     4    16    1
    16     4    17    1
    17     5    18    1
    18     5    19    1
    19     6    20    1
    20     6    21    1
    21     8    22    1
