@<TRIPOS>MOLECULE
*****
 59 63 0 0 0
SMALL
GASTEIGER

@<TRIPOS>ATOM
      1 C           7.1503    3.0745    1.4451 C.3     1  UNL1       -0.0206
      2 C           6.0603    2.1976    0.9776 C.ar    1  UNL1        0.0605
      3 C           5.2875    1.2729    1.6528 C.ar    1  UNL1       -0.0091
      4 C           4.4044    0.7101    0.7812 C.ar    1  UNL1        0.1204
      5 C           3.3796   -0.3226    1.0231 C.2     1  UNL1        0.2623
      6 O           3.2192   -0.8471    2.1437 O.2     1  UNL1       -0.2685
      7 N           2.5348   -0.7553   -0.0265 N.am    1  UNL1       -0.3030
      8 C           1.5057   -1.7612    0.1228 C.3     1  UNL1        0.0573
      9 C           1.8042   -2.8495   -0.8859 C.3     1  UNL1        0.0094
     10 C           1.3129   -2.5692   -2.2558 C.3     1  UNL1        0.1087
     11 C           2.4766   -2.6017   -3.2234 C.3     1  UNL1       -0.0251
     12 C           0.3705   -3.6715   -2.6881 C.3     1  UNL1       -0.0251
     13 O           0.7166   -1.2896   -2.4107 O.3     1  UNL1       -0.4700
     14 C          -0.1708   -0.8512   -1.4355 C.ar    1  UNL1        0.2209
     15 N          -1.3452   -0.2338   -1.7102 N.ar    1  UNL1       -0.2119
     16 C          -2.1711    0.1703   -0.6953 C.ar    1  UNL1        0.0839
     17 C          -3.4324    0.8325   -1.0022 C.ar    1  UNL1        0.0195
     18 C          -4.4600    0.0762   -1.5132 C.ar    1  UNL1       -0.0498
     19 C          -5.6989    0.5947   -1.8500 C.ar    1  UNL1       -0.0427
     20 C          -5.8701    1.9505   -1.6462 C.ar    1  UNL1        0.0424
     21 CL         -7.4423    2.6463   -2.0669 Cl      1  UNL1       -0.0835
     22 C          -4.8568    2.7120   -1.1393 C.ar    1  UNL1       -0.0244
     23 C          -3.6370    2.1726   -0.8133 C.ar    1  UNL1        0.0515
     24 CL         -2.3720    3.2062   -0.1812 Cl      1  UNL1       -0.0828
     25 C          -1.8283   -0.0404    0.6171 C.ar    1  UNL1        0.0087
     26 C          -2.6801    0.3658    1.7387 C.ar    1  UNL1       -0.0157
     27 C          -2.1881    1.2441    2.6700 C.ar    1  UNL1       -0.0526
     28 C          -2.9343    1.6695    3.7676 C.ar    1  UNL1       -0.0428
     29 C          -4.2192    1.2003    3.9407 C.ar    1  UNL1        0.0410
     30 CL         -5.1802    1.7299    5.3297 Cl      1  UNL1       -0.0835
     31 C          -4.7234    0.3171    3.0100 C.ar    1  UNL1       -0.0428
     32 C          -3.9650   -0.0907    1.9300 C.ar    1  UNL1       -0.0526
     33 C          -0.6077   -0.6808    0.8624 C.ar    1  UNL1       -0.0420
     34 C           0.2212   -1.0871   -0.1387 C.ar    1  UNL1        0.0350
     35 N           4.6400    1.2864   -0.4043 N.ar    1  UNL1       -0.2723
     36 N           5.6199    2.1700   -0.2993 N.ar    1  UNL1       -0.1785
     37 H           6.9676    4.1049    1.0707 H       1  UNL1        0.0293
     38 H           7.2020    3.1430    2.5493 H       1  UNL1        0.0293
     39 H           8.1258    2.7677    1.0187 H       1  UNL1        0.0293
     40 H           5.3791    1.0453    2.6973 H       1  UNL1        0.0659
     41 H           2.6582   -0.3266   -0.9625 H       1  UNL1        0.1497
     42 H           1.5663   -2.1427    1.1743 H       1  UNL1        0.0551
     43 H           1.3150   -3.7856   -0.5039 H       1  UNL1        0.0325
     44 H           2.8885   -3.0823   -0.9316 H       1  UNL1        0.0325
     45 H           2.8700   -3.6279   -3.3702 H       1  UNL1        0.0268
     46 H           3.3377   -1.9842   -2.8757 H       1  UNL1        0.0268
     47 H           2.1910   -2.2130   -4.2249 H       1  UNL1        0.0268
     48 H          -0.2407   -4.0487   -1.8307 H       1  UNL1        0.0268
     49 H          -0.2314   -3.4112   -3.5643 H       1  UNL1        0.0268
     50 H           0.9962   -4.5551   -3.0031 H       1  UNL1        0.0268
     51 H          -4.3572   -1.0074   -1.6899 H       1  UNL1        0.0625
     52 H          -6.4959   -0.0475   -2.2568 H       1  UNL1        0.0632
     53 H          -5.0382    3.7891   -0.9920 H       1  UNL1        0.0647
     54 H          -1.1810    1.6508    2.5908 H       1  UNL1        0.0624
     55 H          -2.5541    2.3601    4.5073 H       1  UNL1        0.0632
     56 H          -5.7306   -0.0445    3.1537 H       1  UNL1        0.0632
     57 H          -4.4077   -0.7841    1.2352 H       1  UNL1        0.0624
     58 H          -0.3294   -0.8502    1.9044 H       1  UNL1        0.0629
     59 H           4.1478    1.1021   -1.3224 H       1  UNL1        0.1891
@<TRIPOS>BOND
     1     1     2    1
     2     2     3   ar
     3     3     4   ar
     4     4     5    1
     5     5     6    2
     6     5     7   am
     7     7     8    1
     8     8     9    1
     9     9    10    1
    10    10    11    1
    11    10    12    1
    12    10    13    1
    13    13    14    1
    14    14    15   ar
    15    15    16   ar
    16    16    17    1
    17    17    18   ar
    18    18    19   ar
    19    19    20   ar
    20    20    21    1
    21    20    22   ar
    22    22    23   ar
    23    23    24    1
    24    16    25   ar
    25    25    26    1
    26    26    27   ar
    27    27    28   ar
    28    28    29   ar
    29    29    30    1
    30    29    31   ar
    31    31    32   ar
    32    25    33   ar
    33    33    34   ar
    34     4    35   ar
    35    35    36   ar
    36    36     2   ar
    37    34     8    1
    38    34    14   ar
    39    23    17   ar
    40    32    26   ar
    41     1    37    1
    42     1    38    1
    43     1    39    1
    44     3    40    1
    45     7    41    1
    46     8    42    1
    47     9    43    1
    48     9    44    1
    49    11    45    1
    50    11    46    1
    51    11    47    1
    52    12    48    1
    53    12    49    1
    54    12    50    1
    55    18    51    1
    56    19    52    1
    57    22    53    1
    58    27    54    1
    59    28    55    1
    60    31    56    1
    61    32    57    1
    62    33    58    1
    63    35    59    1
