@<TRIPOS>MOLECULE
*****
 66 69 0 0 0
SMALL
GASTEIGER

@<TRIPOS>ATOM
      1 C          -3.7677    5.1365    2.2592 C.3     1  UNL1       -0.0209
      2 C          -3.7075    3.8906    1.4500 C.ar    1  UNL1        0.0563
      3 C          -2.6542    3.6536    0.5943 C.ar    1  UNL1        0.0494
      4 N          -2.5713    2.5342   -0.1530 N.ar    1  UNL1       -0.2471
      5 C          -3.5529    1.6300   -0.0497 C.ar    1  UNL1        0.1435
      6 C          -3.4996    0.4242   -0.8343 C.2     1  UNL1        0.2665
      7 O          -4.4825    0.0887   -1.5247 O.2     1  UNL1       -0.2683
      8 N          -2.3387   -0.3800   -0.8233 N.am    1  UNL1       -0.2949
      9 C          -2.1981   -1.5876   -1.5552 C.3     1  UNL1        0.0226
     10 C          -1.1019   -2.3518   -0.8845 C.3     1  UNL1        0.0127
     11 C          -1.7101   -3.5059   -0.2282 C.ar    1  UNL1       -0.0389
     12 C          -2.2732   -3.4031    1.0094 C.ar    1  UNL1       -0.0553
     13 C          -2.8718   -4.4612    1.6594 C.ar    1  UNL1       -0.0262
     14 C          -2.9160   -5.6861    1.0542 C.ar    1  UNL1        0.1237
     15 F          -3.5021   -6.7666    1.6702 F       1  UNL1       -0.2055
     16 C          -2.3556   -5.8263   -0.1978 C.ar    1  UNL1       -0.0233
     17 C          -1.7508   -4.7303   -0.8391 C.ar    1  UNL1       -0.0442
     18 C          -1.1772   -4.9957   -2.1863 C.3     1  UNL1       -0.0394
     19 C          -0.3855   -1.4167   -0.0083 C.3     1  UNL1        0.0597
     20 C           1.0408   -1.1800   -0.2751 C.2     1  UNL1        0.2208
     21 O           1.8954   -1.6787    0.5723 O.2     1  UNL1       -0.2752
     22 N           1.6443   -0.4779   -1.3301 N.am    1  UNL1       -0.2999
     23 C           0.9397    0.1989   -2.3947 C.3     1  UNL1        0.0035
     24 C           3.1008   -0.4095   -1.3849 C.3     1  UNL1        0.0394
     25 C           3.6904    0.7510   -0.7305 C.ar    1  UNL1       -0.0291
     26 C           3.8126    1.9804   -1.3748 C.ar    1  UNL1       -0.0454
     27 C           4.3991    3.0205   -0.7306 C.ar    1  UNL1        0.0556
     28 C           4.5385    4.3339   -1.3994 C.3     1  UNL1        0.4174
     29 F           5.8437    4.5202   -1.8468 F       1  UNL1       -0.1659
     30 F           4.2780    5.3920   -0.5502 F       1  UNL1       -0.1659
     31 F           3.7238    4.4360   -2.5162 F       1  UNL1       -0.1659
     32 C           4.8864    2.8936    0.5674 C.ar    1  UNL1       -0.0385
     33 C           4.7809    1.7068    1.2217 C.ar    1  UNL1        0.0556
     34 C           5.3200    1.5791    2.6038 C.3     1  UNL1        0.4174
     35 F           6.4797    2.3541    2.6623 F       1  UNL1       -0.1659
     36 F           5.7621    0.2537    2.7129 F       1  UNL1       -0.1659
     37 F           4.4161    1.8975    3.5722 F       1  UNL1       -0.1659
     38 C           4.1765    0.6357    0.5578 C.ar    1  UNL1       -0.0454
     39 C          -1.1251   -0.1090   -0.0898 C.3     1  UNL1        0.0268
     40 C          -4.6042    1.8577    0.7987 C.ar    1  UNL1        0.0583
     41 N          -4.6901    2.9589    1.5359 N.ar    1  UNL1       -0.2564
     42 H          -4.6862    5.0928    2.8874 H       1  UNL1        0.0293
     43 H          -2.8718    5.1739    2.9139 H       1  UNL1        0.0293
     44 H          -3.8155    6.0291    1.6098 H       1  UNL1        0.0293
     45 H          -1.8799    4.3851    0.5256 H       1  UNL1        0.0848
     46 H          -2.0177   -1.4386   -2.6501 H       1  UNL1        0.0471
     47 H          -3.1652   -2.1795   -1.5120 H       1  UNL1        0.0471
     48 H          -0.4024   -2.7340   -1.6759 H       1  UNL1        0.0372
     49 H          -2.2585   -2.4577    1.5152 H       1  UNL1        0.0621
     50 H          -3.3120   -4.3440    2.6401 H       1  UNL1        0.0646
     51 H          -2.4065   -6.8053   -0.6508 H       1  UNL1        0.0649
     52 H          -0.1117   -5.3049   -2.0306 H       1  UNL1        0.0278
     53 H          -1.2772   -4.1542   -2.8900 H       1  UNL1        0.0278
     54 H          -1.6794   -5.8523   -2.6646 H       1  UNL1        0.0278
     55 H          -0.4365   -1.7033    1.0810 H       1  UNL1        0.0416
     56 H          -0.0517   -0.1705   -2.6308 H       1  UNL1        0.0429
     57 H           1.5522    0.0685   -3.3225 H       1  UNL1        0.0429
     58 H           0.8827    1.3026   -2.2637 H       1  UNL1        0.0429
     59 H           3.3922   -0.3745   -2.4547 H       1  UNL1        0.0514
     60 H           3.5577   -1.3201   -0.9673 H       1  UNL1        0.0514
     61 H           3.4369    2.0831   -2.3780 H       1  UNL1        0.0626
     62 H           5.3558    3.7285    1.0750 H       1  UNL1        0.0629
     63 H           4.1330   -0.2733    1.1385 H       1  UNL1        0.0626
     64 H          -1.4847    0.2433    0.9260 H       1  UNL1        0.0472
     65 H          -0.5457    0.7327   -0.4751 H       1  UNL1        0.0472
     66 H          -5.4005    1.1110    0.8695 H       1  UNL1        0.0853
@<TRIPOS>BOND
     1     1     2    1
     2     2     3   ar
     3     3     4   ar
     4     4     5   ar
     5     5     6    1
     6     6     7    2
     7     6     8   am
     8     8     9    1
     9     9    10    1
    10    10    11    1
    11    11    12   ar
    12    12    13   ar
    13    13    14   ar
    14    14    15    1
    15    14    16   ar
    16    16    17   ar
    17    17    18    1
    18    10    19    1
    19    19    20    1
    20    20    21    2
    21    20    22   am
    22    22    23    1
    23    22    24    1
    24    24    25    1
    25    25    26   ar
    26    26    27   ar
    27    27    28    1
    28    28    29    1
    29    28    30    1
    30    28    31    1
    31    27    32   ar
    32    32    33   ar
    33    33    34    1
    34    34    35    1
    35    34    36    1
    36    34    37    1
    37    33    38   ar
    38    19    39    1
    39     5    40   ar
    40    40    41   ar
    41    41     2   ar
    42    39     8    1
    43    17    11   ar
    44    38    25   ar
    45     1    42    1
    46     1    43    1
    47     1    44    1
    48     3    45    1
    49     9    46    1
    50     9    47    1
    51    10    48    1
    52    12    49    1
    53    13    50    1
    54    16    51    1
    55    18    52    1
    56    18    53    1
    57    18    54    1
    58    19    55    1
    59    23    56    1
    60    23    57    1
    61    23    58    1
    62    24    59    1
    63    24    60    1
    64    26    61    1
    65    32    62    1
    66    38    63    1
    67    39    64    1
    68    39    65    1
    69    40    66    1
