@<TRIPOS>MOLECULE
*****
 61 63 0 0 0
SMALL
GASTEIGER

@<TRIPOS>ATOM
      1 C           8.8253    1.5053   -1.4867 C.3     1  UNL1       -0.0130
      2 N           7.5033    2.0478   -1.2304 N.3     1  UNL1       -0.3071
      3 C           7.5930    3.0216   -0.1866 C.3     1  UNL1       -0.0130
      4 C           6.5538    0.9919   -0.9313 C.3     1  UNL1        0.0111
      5 C           5.2163    1.6345   -0.6854 C.3     1  UNL1        0.0117
      6 N           4.1901    0.6354   -0.3755 N.3     1  UNL1       -0.3000
      7 C           4.3990   -0.0005    0.8804 C.3     1  UNL1       -0.0124
      8 C           2.9291    1.2617   -0.5805 C.3     1  UNL1        0.0238
      9 C           1.7427    0.4438   -0.3340 C.ar    1  UNL1       -0.0333
     10 C           1.0748    0.3532    0.8672 C.ar    1  UNL1       -0.0566
     11 C          -0.0517   -0.4561    1.0195 C.ar    1  UNL1       -0.0493
     12 C          -0.5396   -1.1966   -0.0279 C.ar    1  UNL1        0.0370
     13 C          -1.7044   -2.0541    0.0738 C.2     1  UNL1        0.2483
     14 O          -2.0836   -2.6986   -0.9371 O.2     1  UNL1       -0.2699
     15 N          -2.4668   -2.2282    1.2478 N.am    1  UNL1       -0.2808
     16 C          -3.6088   -3.0654    1.3629 C.ar    1  UNL1        0.0459
     17 C          -3.4403   -4.3830    1.7392 C.ar    1  UNL1       -0.0384
     18 C          -4.5571   -5.2115    1.8561 C.ar    1  UNL1       -0.0416
     19 C          -5.8278   -4.7473    1.6049 C.ar    1  UNL1        0.0418
     20 CL         -7.2505   -5.7828    1.7490 Cl      1  UNL1       -0.0835
     21 C          -5.9740   -3.4247    1.2295 C.ar    1  UNL1       -0.0295
     22 C          -4.8629   -2.5801    1.1076 C.ar    1  UNL1        0.0596
     23 C          -5.0024   -1.1942    0.7145 C.2     1  UNL1        0.2511
     24 O          -3.9794   -0.4725    0.6134 O.2     1  UNL1       -0.2697
     25 N          -6.2375   -0.5489    0.4213 N.am    1  UNL1       -0.2663
     26 C          -6.3040    0.8196    0.0401 C.ar    1  UNL1        0.1252
     27 C          -7.5211    1.3995   -0.2305 C.ar    1  UNL1       -0.0201
     28 C          -7.6344    2.7292   -0.6065 C.ar    1  UNL1       -0.0387
     29 C          -6.4798    3.4614   -0.7025 C.ar    1  UNL1        0.0592
     30 CL         -6.5745    5.1296   -1.1695 Cl      1  UNL1       -0.0820
     31 C          -5.2593    2.8820   -0.4318 C.ar    1  UNL1        0.0480
     32 N          -5.2097    1.5876   -0.0712 N.ar    1  UNL1       -0.2387
     33 C           0.1293   -1.1055   -1.2296 C.ar    1  UNL1       -0.0493
     34 C           1.2392   -0.3070   -1.3765 C.ar    1  UNL1       -0.0566
     35 H           9.2769    2.0916   -2.2970 H       1  UNL1        0.0391
     36 H           8.6893    0.4678   -1.8446 H       1  UNL1        0.0391
     37 H           9.4384    1.4681   -0.5678 H       1  UNL1        0.0391
     38 H           7.1605    2.7014    0.7799 H       1  UNL1        0.0391
     39 H           7.0834    3.9842   -0.4511 H       1  UNL1        0.0391
     40 H           8.6725    3.3206   -0.0448 H       1  UNL1        0.0391
     41 H           6.5460    0.2887   -1.7680 H       1  UNL1        0.0439
     42 H           6.8536    0.4851    0.0287 H       1  UNL1        0.0439
     43 H           5.2525    2.3112    0.1808 H       1  UNL1        0.0439
     44 H           4.8697    2.1303   -1.6154 H       1  UNL1        0.0439
     45 H           3.5113   -0.2281    1.4685 H       1  UNL1        0.0391
     46 H           4.9137   -0.9855    0.6739 H       1  UNL1        0.0391
     47 H           5.1668    0.5641    1.4885 H       1  UNL1        0.0391
     48 H           2.9469    1.6879   -1.6227 H       1  UNL1        0.0476
     49 H           2.8917    2.1782    0.0751 H       1  UNL1        0.0476
     50 H           1.4356    0.9249    1.7010 H       1  UNL1        0.0621
     51 H          -0.5448   -0.4944    1.9895 H       1  UNL1        0.0625
     52 H          -2.1750   -1.7044    2.1007 H       1  UNL1        0.1552
     53 H          -2.4429   -4.7559    1.9386 H       1  UNL1        0.0637
     54 H          -4.4178   -6.2427    2.1512 H       1  UNL1        0.0633
     55 H          -6.9596   -3.0420    1.0291 H       1  UNL1        0.0640
     56 H          -7.1047   -1.0978    0.4896 H       1  UNL1        0.1566
     57 H          -8.4252    0.7899   -0.1453 H       1  UNL1        0.0652
     58 H          -8.5974    3.1888   -0.8209 H       1  UNL1        0.0634
     59 H          -4.3507    3.4882   -0.5160 H       1  UNL1        0.0845
     60 H          -0.2433   -1.6908   -2.0861 H       1  UNL1        0.0625
     61 H           1.7265   -0.2768   -2.3526 H       1  UNL1        0.0621
@<TRIPOS>BOND
     1     1     2    1
     2     2     3    1
     3     2     4    1
     4     4     5    1
     5     5     6    1
     6     6     7    1
     7     6     8    1
     8     8     9    1
     9     9    10   ar
    10    10    11   ar
    11    11    12   ar
    12    12    13    1
    13    13    14    2
    14    13    15   am
    15    15    16    1
    16    16    17   ar
    17    17    18   ar
    18    18    19   ar
    19    19    20    1
    20    19    21   ar
    21    21    22   ar
    22    22    23    1
    23    23    24    2
    24    23    25   am
    25    25    26    1
    26    26    27   ar
    27    27    28   ar
    28    28    29   ar
    29    29    30    1
    30    29    31   ar
    31    31    32   ar
    32    12    33   ar
    33    33    34   ar
    34    34     9   ar
    35    22    16   ar
    36    32    26   ar
    37     1    35    1
    38     1    36    1
    39     1    37    1
    40     3    38    1
    41     3    39    1
    42     3    40    1
    43     4    41    1
    44     4    42    1
    45     5    43    1
    46     5    44    1
    47     7    45    1
    48     7    46    1
    49     7    47    1
    50     8    48    1
    51     8    49    1
    52    10    50    1
    53    11    51    1
    54    15    52    1
    55    17    53    1
    56    18    54    1
    57    21    55    1
    58    25    56    1
    59    27    57    1
    60    28    58    1
    61    31    59    1
    62    33    60    1
    63    34    61    1
