@<TRIPOS>MOLECULE
*****
 46 49 0 0 0
SMALL
GASTEIGER

@<TRIPOS>ATOM
      1 C           6.5101   -2.0378    2.2946 C.3     1  UNL1        0.0337
      2 C           5.4396   -1.1662    1.7148 C.2     1  UNL1        0.3097
      3 O           5.3412   -0.2249    0.8907 O.2     1  UNL1       -0.2507
      4 O           4.0816   -1.2654    2.0580 O.3     1  UNL1       -0.4187
      5 C           3.2257   -0.3979    1.4417 C.ar    1  UNL1        0.1697
      6 C           2.5273   -0.5121    0.2779 C.ar    1  UNL1       -0.0071
      7 C           1.7206    0.5190   -0.1314 C.ar    1  UNL1       -0.0195
      8 C           1.6600    1.6402    0.6768 C.ar    1  UNL1       -0.0011
      9 C           0.9119    2.8880    0.5326 C.3     1  UNL1       -0.0082
     10 C          -0.0074    2.7354   -0.6507 C.3     1  UNL1        0.0047
     11 N          -0.3058    1.3900   -0.9782 N.3     1  UNL1       -0.2846
     12 C           0.8608    0.6599   -1.3328 C.3     1  UNL1        0.0259
     13 C          -1.2823    0.7016   -0.2253 C.3     1  UNL1        0.0977
     14 C          -2.6377    1.3093   -0.2644 C.2     1  UNL1        0.1579
     15 O          -2.9939    2.3179   -0.8583 O.2     1  UNL1       -0.2951
     16 C          -3.7342    0.6466    0.4975 C.3     1  UNL1        0.0195
     17 C          -4.6997    1.5944    1.2549 C.3     1  UNL1       -0.0428
     18 C          -5.1466    0.8001    0.0898 C.3     1  UNL1       -0.0428
     19 C          -1.3405   -0.6988   -0.7318 C.ar    1  UNL1        0.0121
     20 C          -0.6912   -1.7481   -0.0719 C.ar    1  UNL1       -0.0539
     21 C          -0.7167   -3.0439   -0.4976 C.ar    1  UNL1       -0.0613
     22 C          -1.4153   -3.3674   -1.6417 C.ar    1  UNL1       -0.0590
     23 C          -2.0678   -2.3569   -2.3181 C.ar    1  UNL1       -0.0261
     24 C          -2.0427   -1.0307   -1.8839 C.ar    1  UNL1        0.1285
     25 F          -2.7043   -0.0671   -2.5882 F       1  UNL1       -0.2051
     26 S           2.7708    1.2912    2.1011 S.2     1  UNL1       -0.0559
     27 H           7.3650   -1.9822    1.5835 H       1  UNL1        0.0342
     28 H           6.0791   -3.0737    2.2693 H       1  UNL1        0.0342
     29 H           6.7795   -1.7076    3.3093 H       1  UNL1        0.0342
     30 H           2.6341   -1.4252   -0.2922 H       1  UNL1        0.0663
     31 H           0.3548    3.1669    1.4619 H       1  UNL1        0.0331
     32 H           1.5557    3.7734    0.3420 H       1  UNL1        0.0331
     33 H          -0.9101    3.3894   -0.5626 H       1  UNL1        0.0430
     34 H           0.5276    3.1572   -1.5331 H       1  UNL1        0.0430
     35 H           0.5098   -0.3420   -1.6995 H       1  UNL1        0.0476
     36 H           1.3673    1.1262   -2.1850 H       1  UNL1        0.0476
     37 H          -0.8898    0.6365    0.8234 H       1  UNL1        0.0593
     38 H          -3.4951   -0.2754    1.0635 H       1  UNL1        0.0378
     39 H          -5.0528    1.2723    2.2406 H       1  UNL1        0.0272
     40 H          -4.5846    2.6906    1.0566 H       1  UNL1        0.0272
     41 H          -5.2825    1.3115   -0.9046 H       1  UNL1        0.0272
     42 H          -5.8529   -0.0327    0.2248 H       1  UNL1        0.0272
     43 H          -0.1424   -1.4979    0.8267 H       1  UNL1        0.0622
     44 H          -0.1801   -3.7864    0.0852 H       1  UNL1        0.0618
     45 H          -1.4228   -4.3993   -1.9618 H       1  UNL1        0.0618
     46 H          -2.6231   -2.5779   -3.2171 H       1  UNL1        0.0646
@<TRIPOS>BOND
     1     1     2    1
     2     2     3    2
     3     2     4    1
     4     4     5    1
     5     5     6   ar
     6     6     7   ar
     7     7     8   ar
     8     8     9    1
     9     9    10    1
    10    10    11    1
    11    11    12    1
    12    11    13    1
    13    13    14    1
    14    14    15    2
    15    14    16    1
    16    16    17    1
    17    17    18    1
    18    13    19    1
    19    19    20   ar
    20    20    21   ar
    21    21    22   ar
    22    22    23   ar
    23    23    24   ar
    24    24    25    1
    25     8    26   ar
    26    26     5   ar
    27    12     7    1
    28    18    16    1
    29    24    19   ar
    30     1    27    1
    31     1    28    1
    32     1    29    1
    33     6    30    1
    34     9    31    1
    35     9    32    1
    36    10    33    1
    37    10    34    1
    38    12    35    1
    39    12    36    1
    40    13    37    1
    41    16    38    1
    42    17    39    1
    43    17    40    1
    44    18    41    1
    45    18    42    1
    46    20    43    1
    47    21    44    1
    48    22    45    1
    49    23    46    1
