@<TRIPOS>MOLECULE
*****
 9 9 0 0 0
SMALL
GASTEIGER

@<TRIPOS>ATOM
      1 I           2.6607    1.2469   -0.7825 I       1  UNL1       -0.0406
      2 C           0.8302    0.2789   -0.4030 C.ar    1  UNL1        0.0505
      3 C          -0.4343    0.8286   -0.4436 C.ar    1  UNL1        0.0354
      4 N          -1.3474   -0.1117   -0.1407 N.ar    1  UNL1       -0.2837
      5 N          -0.6979   -1.2432    0.0911 N.ar    1  UNL1       -0.1813
      6 C           0.6250   -1.0602   -0.0548 C.ar    1  UNL1        0.0623
      7 H          -0.6412    1.8820   -0.6896 H       1  UNL1        0.0834
      8 H          -2.3898   -0.0150   -0.0856 H       1  UNL1        0.1882
      9 H           1.3947   -1.8062    0.0722 H       1  UNL1        0.0858
@<TRIPOS>BOND
     1     1     2    1
     2     2     3   ar
     3     3     4   ar
     4     4     5   ar
     5     5     6   ar
     6     6     2   ar
     7     3     7    1
     8     4     8    1
     9     6     9    1
