
     RDKit          3D

 65 69  0  0  0  0  0  0  0  0999 V2000
   -1.6954   -2.7688    4.2865 O   0  0  0  0  0  0  0  0  0  0  0  0
   -1.8619   -1.6805    3.6534 C   0  0  0  0  0  0  0  0  0  0  0  0
   -3.1549   -0.9967    3.9098 C   0  0  0  0  0  0  0  0  0  0  0  0
   -3.3060    0.2236    3.1475 N   0  0  0  0  0  0  0  0  0  0  0  0
   -3.3875    0.1709    1.7219 C   0  0  0  0  0  0  0  0  0  0  0  0
   -3.3579   -0.9024    0.9301 N   0  0  0  0  0  0  0  0  0  0  0  0
   -3.4700   -0.5117   -0.3378 N   0  0  0  0  0  0  0  0  0  0  0  0
   -3.4812   -1.3526   -1.5166 C   0  0  0  0  0  0  0  0  0  0  0  0
   -4.9027   -1.7716   -1.8724 C   0  0  0  0  0  0  0  0  0  0  0  0
   -4.8623   -2.5691   -3.0022 O   0  0  0  0  0  0  0  0  0  0  0  0
   -3.5743    0.8355   -0.3792 C   0  0  0  0  0  0  0  0  0  0  0  0
   -3.7082    1.7670   -1.3804 C   0  0  0  0  0  0  0  0  0  0  0  0
   -3.7905    3.1194   -1.0976 C   0  0  0  0  0  0  0  0  0  0  0  0
   -3.7407    3.5663    0.1896 C   0  0  0  0  0  0  0  0  0  0  0  0
   -3.8328    5.0241    0.4436 C   0  0  0  0  0  0  0  0  0  0  0  0
   -3.8498    5.2431    1.8221 F   0  0  0  0  0  0  0  0  0  0  0  0
   -4.9089    5.5953   -0.1846 F   0  0  0  0  0  0  0  0  0  0  0  0
   -2.6731    5.6257   -0.0413 F   0  0  0  0  0  0  0  0  0  0  0  0
   -3.6069    2.6422    1.2002 C   0  0  0  0  0  0  0  0  0  0  0  0
   -3.5234    1.2863    0.9291 C   0  0  0  0  0  0  0  0  0  0  0  0
   -0.8694   -1.1873    2.7799 N   0  0  0  0  0  0  0  0  0  0  0  0
    0.3499   -1.8966    2.5769 C   0  0  0  0  0  0  0  0  0  0  0  0
    0.7683   -2.0515    1.1187 C   0  0  0  0  0  0  0  0  0  0  0  0
    2.1393   -1.8475    1.5725 N   0  0  0  0  0  0  0  0  0  0  0  0
    3.0246   -1.2378    0.6114 C   0  0  1  0  0  0  0  0  0  0  0  0
    3.1326   -2.0055   -0.6619 C   0  0  0  0  0  0  0  0  0  0  0  0
    4.3607   -1.5416   -1.4133 C   0  0  0  0  0  0  0  0  0  0  0  0
    4.8703   -0.2268   -0.8607 C   0  0  1  0  0  0  0  0  0  0  0  0
    5.7510    0.3398   -1.9619 C   0  0  0  0  0  0  0  0  0  0  0  0
    5.6822    0.6839   -3.0942 N   0  0  0  0  0  0  0  0  0  0  0  0
    6.6610    1.1597   -3.8412 C   0  0  0  0  0  0  0  0  0  0  0  0
    7.8414    1.2731   -3.2974 C   0  0  0  0  0  0  0  0  0  0  0  0
    7.5305    0.6535   -1.5898 S   0  0  0  0  0  0  0  0  0  0  0  0
    3.7172    0.7375   -0.6838 C   0  0  0  0  0  0  0  0  0  0  0  0
    2.7530    0.2013    0.3426 C   0  0  0  0  0  0  0  0  0  0  0  0
    1.5977   -0.9968    2.5959 C   0  0  0  0  0  0  0  0  0  0  0  0
   -3.2782   -0.7690    5.0050 H   0  0  0  0  0  0  0  0  0  0  0  0
   -4.0150   -1.6982    3.6927 H   0  0  0  0  0  0  0  0  0  0  0  0
   -3.3516    1.1236    3.6676 H   0  0  0  0  0  0  0  0  0  0  0  0
   -2.8591   -2.2642   -1.3467 H   0  0  0  0  0  0  0  0  0  0  0  0
   -3.0316   -0.7862   -2.3452 H   0  0  0  0  0  0  0  0  0  0  0  0
   -5.5093   -0.8779   -2.0727 H   0  0  0  0  0  0  0  0  0  0  0  0
   -5.3753   -2.3085   -1.0292 H   0  0  0  0  0  0  0  0  0  0  0  0
   -5.3322   -3.4148   -2.8940 H   0  0  0  0  0  0  0  0  0  0  0  0
   -3.7504    1.4403   -2.4197 H   0  0  0  0  0  0  0  0  0  0  0  0
   -3.8930    3.8040   -1.9042 H   0  0  0  0  0  0  0  0  0  0  0  0
   -3.5642    2.9693    2.2302 H   0  0  0  0  0  0  0  0  0  0  0  0
   -1.0313   -0.2915    2.2840 H   0  0  0  0  0  0  0  0  0  0  0  0
    0.4877   -2.8395    3.1063 H   0  0  0  0  0  0  0  0  0  0  0  0
    0.5865   -3.0776    0.7319 H   0  0  0  0  0  0  0  0  0  0  0  0
    0.4179   -1.2285    0.4853 H   0  0  0  0  0  0  0  0  0  0  0  0
    4.0454   -1.2828    1.0979 H   0  0  0  0  0  0  0  0  0  0  0  0
    3.2059   -3.1029   -0.5123 H   0  0  0  0  0  0  0  0  0  0  0  0
    2.2370   -1.7864   -1.2927 H   0  0  0  0  0  0  0  0  0  0  0  0
    4.1288   -1.4118   -2.5089 H   0  0  0  0  0  0  0  0  0  0  0  0
    5.1691   -2.2975   -1.3025 H   0  0  0  0  0  0  0  0  0  0  0  0
    5.4839   -0.3369    0.0232 H   0  0  0  0  0  0  0  0  0  0  0  0
    6.4468    1.4462   -4.9035 H   0  0  0  0  0  0  0  0  0  0  0  0
    8.8558    1.6255   -3.6313 H   0  0  0  0  0  0  0  0  0  0  0  0
    4.1338    1.7255   -0.3763 H   0  0  0  0  0  0  0  0  0  0  0  0
    3.2544    0.8888   -1.6802 H   0  0  0  0  0  0  0  0  0  0  0  0
    1.7327    0.3617   -0.0623 H   0  0  0  0  0  0  0  0  0  0  0  0
    2.8067    0.8226    1.2744 H   0  0  0  0  0  0  0  0  0  0  0  0
    1.2660    0.0101    2.3078 H   0  0  0  0  0  0  0  0  0  0  0  0
    2.1106   -1.0468    3.5696 H   0  0  0  0  0  0  0  0  0  0  0  0
  1  2  2  0
  2  3  1  0
  3  4  1  0
  4  5  1  0
  5  6  2  0
  6  7  1  0
  7  8  1  0
  8  9  1  0
  9 10  1  0
  7 11  1  0
 11 12  2  0
 12 13  1  0
 13 14  2  0
 14 15  1  0
 15 16  1  0
 15 17  1  0
 15 18  1  0
 14 19  1  0
 19 20  2  0
  2 21  1  0
 21 22  1  0
 22 23  1  0
 23 24  1  0
 24 25  1  0
 25 26  1  0
 26 27  1  0
 27 28  1  0
 28 29  1  0
 29 30  2  0
 30 31  1  0
 31 32  2  0
 32 33  1  0
 28 34  1  0
 34 35  1  0
 24 36  1  0
 20  5  1  0
 36 22  1  0
 20 11  1  0
 35 25  1  0
 33 29  1  0
  3 37  1  0
  3 38  1  0
  4 39  1  0
  8 40  1  0
  8 41  1  0
  9 42  1  0
  9 43  1  0
 10 44  1  0
 12 45  1  0
 13 46  1  0
 19 47  1  0
 21 48  1  0
 22 49  1  0
 23 50  1  0
 23 51  1  0
 25 52  1  1
 26 53  1  0
 26 54  1  0
 27 55  1  0
 27 56  1  0
 28 57  1  1
 31 58  1  0
 32 59  1  0
 34 60  1  0
 34 61  1  0
 35 62  1  0
 35 63  1  0
 36 64  1  0
 36 65  1  0
M  END
$$$$
