@<TRIPOS>MOLECULE
*****
 65 69 0 0 0
SMALL
GASTEIGER

@<TRIPOS>ATOM
      1 O          -1.6954   -2.7688    4.2865 O.2     1  UNL1       -0.2741
      2 C          -1.8619   -1.6805    3.6534 C.2     1  UNL1        0.2305
      3 C          -3.1549   -0.9967    3.9098 C.3     1  UNL1        0.0870
      4 N          -3.3060    0.2236    3.1475 N.pl3   1  UNL1       -0.3186
      5 C          -3.3875    0.1709    1.7219 C.ar    1  UNL1        0.1488
      6 N          -3.3579   -0.9024    0.9301 N.ar    1  UNL1       -0.1551
      7 N          -3.4700   -0.5117   -0.3378 N.ar    1  UNL1       -0.2597
      8 C          -3.4812   -1.3526   -1.5166 C.3     1  UNL1        0.0654
      9 C          -4.9027   -1.7716   -1.8724 C.3     1  UNL1        0.0637
     10 O          -4.8623   -2.5691   -3.0022 O.3     1  UNL1       -0.3932
     11 C          -3.5743    0.8355   -0.3792 C.ar    1  UNL1        0.0709
     12 C          -3.7082    1.7670   -1.3804 C.ar    1  UNL1       -0.0355
     13 C          -3.7905    3.1194   -1.0976 C.ar    1  UNL1       -0.0481
     14 C          -3.7407    3.5663    0.1896 C.ar    1  UNL1        0.0556
     15 C          -3.8328    5.0241    0.4436 C.3     1  UNL1        0.4174
     16 F          -3.8498    5.2431    1.8221 F       1  UNL1       -0.1659
     17 F          -4.9089    5.5953   -0.1846 F       1  UNL1       -0.1659
     18 F          -2.6731    5.6257   -0.0413 F       1  UNL1       -0.1659
     19 C          -3.6069    2.6422    1.2002 C.ar    1  UNL1       -0.0376
     20 C          -3.5234    1.2863    0.9291 C.ar    1  UNL1        0.0419
     21 N          -0.8694   -1.1873    2.7799 N.am    1  UNL1       -0.3087
     22 C           0.3499   -1.8966    2.5769 C.3     1  UNL1        0.0486
     23 C           0.7683   -2.0515    1.1187 C.3     1  UNL1        0.0189
     24 N           2.1393   -1.8475    1.5725 N.3     1  UNL1       -0.2958
     25 C           3.0246   -1.2378    0.6114 C.3     1  UNL1        0.0106
     26 C           3.1326   -2.0055   -0.6619 C.3     1  UNL1       -0.0367
     27 C           4.3607   -1.5416   -1.4133 C.3     1  UNL1       -0.0429
     28 C           4.8703   -0.2268   -0.8607 C.3     1  UNL1        0.0078
     29 C           5.7510    0.3398   -1.9619 C.ar    1  UNL1        0.0813
     30 N           5.6822    0.6839   -3.0942 N.ar    1  UNL1       -0.2520
     31 C           6.6610    1.1597   -3.8412 C.ar    1  UNL1        0.0350
     32 C           7.8414    1.2731   -3.2974 C.ar    1  UNL1       -0.0045
     33 S           7.5305    0.6535   -1.5898 S.2     1  UNL1       -0.0803
     34 C           3.7172    0.7375   -0.6838 C.3     1  UNL1       -0.0429
     35 C           2.7530    0.2013    0.3426 C.3     1  UNL1       -0.0367
     36 C           1.5977   -0.9968    2.5959 C.3     1  UNL1        0.0189
     37 H          -3.2782   -0.7690    5.0050 H       1  UNL1        0.0557
     38 H          -4.0150   -1.6982    3.6927 H       1  UNL1        0.0557
     39 H          -3.3516    1.1236    3.6676 H       1  UNL1        0.1480
     40 H          -2.8591   -2.2642   -1.3467 H       1  UNL1        0.0532
     41 H          -3.0316   -0.7862   -2.3452 H       1  UNL1        0.0532
     42 H          -5.5093   -0.8779   -2.0727 H       1  UNL1        0.0575
     43 H          -5.3753   -2.3085   -1.0292 H       1  UNL1        0.0575
     44 H          -5.3322   -3.4148   -2.8940 H       1  UNL1        0.2095
     45 H          -3.7504    1.4403   -2.4197 H       1  UNL1        0.0639
     46 H          -3.8930    3.8040   -1.9042 H       1  UNL1        0.0624
     47 H          -3.5642    2.9693    2.2302 H       1  UNL1        0.0631
     48 H          -1.0313   -0.2915    2.2840 H       1  UNL1        0.1491
     49 H           0.4877   -2.8395    3.1063 H       1  UNL1        0.0523
     50 H           0.5865   -3.0776    0.7319 H       1  UNL1        0.0445
     51 H           0.4179   -1.2285    0.4853 H       1  UNL1        0.0445
     52 H           4.0454   -1.2828    1.0979 H       1  UNL1        0.0462
     53 H           3.2059   -3.1029   -0.5123 H       1  UNL1        0.0280
     54 H           2.2370   -1.7864   -1.2927 H       1  UNL1        0.0280
     55 H           4.1288   -1.4118   -2.5089 H       1  UNL1        0.0272
     56 H           5.1691   -2.2975   -1.3025 H       1  UNL1        0.0272
     57 H           5.4839   -0.3369    0.0232 H       1  UNL1        0.0369
     58 H           6.4468    1.4462   -4.9035 H       1  UNL1        0.0835
     59 H           8.8558    1.6255   -3.6313 H       1  UNL1        0.0709
     60 H           4.1338    1.7255   -0.3763 H       1  UNL1        0.0272
     61 H           3.2544    0.8888   -1.6802 H       1  UNL1        0.0272
     62 H           1.7327    0.3617   -0.0623 H       1  UNL1        0.0280
     63 H           2.8067    0.8226    1.2744 H       1  UNL1        0.0280
     64 H           1.2660    0.0101    2.3078 H       1  UNL1        0.0445
     65 H           2.1106   -1.0468    3.5696 H       1  UNL1        0.0445
@<TRIPOS>BOND
     1     1     2    2
     2     2     3    1
     3     3     4    1
     4     4     5    1
     5     5     6   ar
     6     6     7   ar
     7     7     8    1
     8     8     9    1
     9     9    10    1
    10     7    11   ar
    11    11    12   ar
    12    12    13   ar
    13    13    14   ar
    14    14    15    1
    15    15    16    1
    16    15    17    1
    17    15    18    1
    18    14    19   ar
    19    19    20   ar
    20     2    21   am
    21    21    22    1
    22    22    23    1
    23    23    24    1
    24    24    25    1
    25    25    26    1
    26    26    27    1
    27    27    28    1
    28    28    29    1
    29    29    30   ar
    30    30    31   ar
    31    31    32   ar
    32    32    33   ar
    33    28    34    1
    34    34    35    1
    35    24    36    1
    36    20     5   ar
    37    36    22    1
    38    20    11   ar
    39    35    25    1
    40    33    29   ar
    41     3    37    1
    42     3    38    1
    43     4    39    1
    44     8    40    1
    45     8    41    1
    46     9    42    1
    47     9    43    1
    48    10    44    1
    49    12    45    1
    50    13    46    1
    51    19    47    1
    52    21    48    1
    53    22    49    1
    54    23    50    1
    55    23    51    1
    56    25    52    1
    57    26    53    1
    58    26    54    1
    59    27    55    1
    60    27    56    1
    61    28    57    1
    62    31    58    1
    63    32    59    1
    64    34    60    1
    65    34    61    1
    66    35    62    1
    67    35    63    1
    68    36    64    1
    69    36    65    1
