@<TRIPOS>MOLECULE
*****
 48 51 0 0 0
SMALL
GASTEIGER

@<TRIPOS>ATOM
      1 O           6.2586   -0.7957    2.1499 O.2     1  UNL1       -0.2681
      2 C           6.3037   -1.0256    0.8990 C.2     1  UNL1        0.2665
      3 N           7.5361   -1.4922    0.3914 N.am    1  UNL1       -0.1935
      4 O           8.5976   -1.6738    1.2291 O.3     1  UNL1       -0.2949
      5 C           5.1033   -0.7936    0.1055 C.ar    1  UNL1        0.0390
      6 C           5.0819   -1.0212   -1.2498 C.ar    1  UNL1       -0.0493
      7 C           3.9324   -0.7995   -2.0123 C.ar    1  UNL1       -0.0575
      8 C           2.7910   -0.3459   -1.4183 C.ar    1  UNL1       -0.0417
      9 C           2.8293   -0.1222   -0.0546 C.ar    1  UNL1       -0.0294
     10 C           3.9358   -0.3283    0.7218 C.ar    1  UNL1       -0.0449
     11 C           1.5409    0.3778    0.5471 C.3     1  UNL1        0.0248
     12 N           0.9948    1.3093   -0.4258 N.3     1  UNL1       -0.2907
     13 C           0.0463    2.2163    0.1592 C.3     1  UNL1        0.0574
     14 C          -1.1150    1.5384    0.7649 C.ar    1  UNL1        0.1197
     15 C          -1.2175    1.1029    2.0698 C.ar    1  UNL1       -0.0188
     16 C          -2.4790    0.5374    2.1583 C.ar    1  UNL1       -0.0156
     17 C          -3.0842    0.6542    0.9084 C.ar    1  UNL1        0.1355
     18 C          -4.4298    0.1731    0.5964 C.ar    1  UNL1        0.0237
     19 C          -5.2196   -0.4477    1.5402 C.ar    1  UNL1       -0.0507
     20 C          -6.4951   -0.9041    1.2460 C.ar    1  UNL1       -0.0547
     21 C          -6.9849   -0.7240   -0.0505 C.ar    1  UNL1        0.0156
     22 C          -6.2124   -0.1085   -1.0009 C.ar    1  UNL1        0.2738
     23 N          -6.7212    0.0678   -2.3115 N.pl3   1  UNL1        0.0796
     24 O          -7.8637   -0.3365   -2.5901 O.2     1  UNL1        0.0414
     25 O          -5.9718    0.6808   -3.2869 O.co2   1  UNL1       -0.5760
     26 C          -4.9350    0.3391   -0.6748 C.ar    1  UNL1        0.0262
     27 O          -2.2277    1.2527    0.1336 O.2     1  UNL1       -0.4584
     28 C           0.4673    0.5431   -1.5134 C.3     1  UNL1        0.0036
     29 C           1.5902   -0.1208   -2.2517 C.3     1  UNL1       -0.0145
     30 H           7.6127   -1.6921   -0.6298 H       1  UNL1        0.1825
     31 H           8.4767   -1.0243    1.9694 H       1  UNL1        0.2414
     32 H           5.9741   -1.3802   -1.7400 H       1  UNL1        0.0625
     33 H           3.9604   -0.9925   -3.0801 H       1  UNL1        0.0621
     34 H           3.9251   -0.1435    1.7722 H       1  UNL1        0.0628
     35 H           1.7143    0.8436    1.5285 H       1  UNL1        0.0476
     36 H           0.8863   -0.5287    0.5998 H       1  UNL1        0.0476
     37 H          -0.2466    2.9645   -0.5753 H       1  UNL1        0.0507
     38 H           0.5893    2.7646    0.9749 H       1  UNL1        0.0507
     39 H          -0.4793    1.1776    2.8713 H       1  UNL1        0.0652
     40 H          -2.9354    0.0833    3.0215 H       1  UNL1        0.0655
     41 H          -4.8544   -0.5947    2.5489 H       1  UNL1        0.0625
     42 H          -7.1312   -1.3935    1.9705 H       1  UNL1        0.0620
     43 H          -7.9788   -1.0759   -0.2922 H       1  UNL1        0.0685
     44 H          -4.3213    0.8255   -1.4211 H       1  UNL1        0.0692
     45 H          -0.1862    1.1396   -2.1826 H       1  UNL1        0.0430
     46 H          -0.1793   -0.2613   -1.0616 H       1  UNL1        0.0430
     47 H           1.2254   -1.0566   -2.7319 H       1  UNL1        0.0326
     48 H           1.8955    0.5914   -3.0727 H       1  UNL1        0.0326
@<TRIPOS>UNITY_ATOM_ATTR
23 1
charge 1
25 1
charge -1
@<TRIPOS>BOND
     1     1     2    2
     2     2     3   am
     3     3     4    1
     4     2     5    1
     5     5     6   ar
     6     6     7   ar
     7     7     8   ar
     8     8     9   ar
     9     9    10   ar
    10     9    11    1
    11    11    12    1
    12    12    13    1
    13    13    14    1
    14    14    15   ar
    15    15    16   ar
    16    16    17   ar
    17    17    18    1
    18    18    19   ar
    19    19    20   ar
    20    20    21   ar
    21    21    22   ar
    22    22    23    1
    23    23    24    2
    24    23    25    1
    25    22    26   ar
    26    17    27   ar
    27    12    28    1
    28    28    29    1
    29    10     5   ar
    30    27    14   ar
    31    29     8    1
    32    26    18   ar
    33     3    30    1
    34     4    31    1
    35     6    32    1
    36     7    33    1
    37    10    34    1
    38    11    35    1
    39    11    36    1
    40    13    37    1
    41    13    38    1
    42    15    39    1
    43    16    40    1
    44    19    41    1
    45    20    42    1
    46    21    43    1
    47    26    44    1
    48    28    45    1
    49    28    46    1
    50    29    47    1
    51    29    48    1
