@<TRIPOS>MOLECULE
*****
 68 72 0 0 0
SMALL
GASTEIGER

@<TRIPOS>ATOM
      1 C           0.5868   -3.5475    2.2789 C.3     1  UNL1       -0.0217
      2 C           1.9425   -3.4224    1.7201 C.ar    1  UNL1        0.0472
      3 N           2.8895   -4.3882    1.9364 N.ar    1  UNL1       -0.2582
      4 C           4.1333   -4.3103    1.5320 C.ar    1  UNL1        0.0471
      5 C           4.5674   -3.1651    0.8110 C.ar    1  UNL1        0.0915
      6 C           5.9507   -3.0466    0.4671 C.1     1  UNL1        0.1026
      7 N           7.0788   -2.9498    0.1684 N.1     1  UNL1       -0.1908
      8 C           3.6251   -2.2112    0.5983 C.ar    1  UNL1        0.0593
      9 N           3.9565   -1.1133   -0.2438 N.pl3   1  UNL1       -0.3127
     10 C           5.0057   -0.2035   -0.1472 C.ar    1  UNL1        0.0350
     11 C           5.9421   -0.0271   -1.1270 C.ar    1  UNL1       -0.0383
     12 C           7.0051    0.8362   -1.1414 C.ar    1  UNL1       -0.0360
     13 C           7.0934    1.6223    0.0414 C.ar    1  UNL1        0.0468
     14 N           8.0288    2.5626    0.3198 N.ar    1  UNL1       -0.3606
     15 C           7.7286    3.0599    1.5376 C.ar    1  UNL1        0.0027
     16 C           6.5881    2.4142    2.0202 C.ar    1  UNL1       -0.0364
     17 C           6.2228    1.4975    1.0126 C.ar    1  UNL1        0.0043
     18 C           5.1313    0.5967    1.0024 C.ar    1  UNL1       -0.0202
     19 C           4.2154    0.5751    2.1286 C.3     1  UNL1       -0.0373
     20 C           2.3220   -2.2828    1.0218 C.ar    1  UNL1        0.0184
     21 C           1.4161   -1.2219    0.6713 C.2     1  UNL1       -0.0505
     22 C           0.1419   -1.3725    0.2635 C.2     1  UNL1       -0.0539
     23 C          -0.7451   -0.3153   -0.0540 C.ar    1  UNL1       -0.0232
     24 C          -0.4993    1.0664    0.1780 C.ar    1  UNL1       -0.0545
     25 C          -1.3490    2.0416   -0.2460 C.ar    1  UNL1       -0.0594
     26 C          -2.5060    1.7588   -0.9314 C.ar    1  UNL1       -0.0353
     27 C          -2.7802    0.4286   -1.1760 C.ar    1  UNL1        0.1060
     28 S          -4.1939    0.1172   -2.1448 S.O2    1  UNL1        0.0609
     29 O          -4.4164    1.2451   -3.0854 O.2     1  UNL1       -0.1528
     30 O          -3.9232   -1.1505   -2.9646 O.2     1  UNL1       -0.1528
     31 N          -5.6161   -0.1413   -1.1850 N.3     1  UNL1       -0.1741
     32 C          -5.8969    1.0427   -0.3723 C.3     1  UNL1        0.0333
     33 C          -6.6664    2.0733   -1.1183 C.3     1  UNL1        0.0131
     34 N          -8.0369    1.6249   -1.3670 N.3     1  UNL1       -0.3028
     35 C          -8.9182    1.8544   -0.2353 C.3     1  UNL1       -0.0127
     36 C          -8.0434    0.1641   -1.5619 C.3     1  UNL1        0.0131
     37 C          -6.7420   -0.2655   -2.1571 C.3     1  UNL1        0.0333
     38 C          -1.9326   -0.5567   -0.7511 C.ar    1  UNL1       -0.0282
     39 H           0.6789   -4.0418    3.3033 H       1  UNL1        0.0293
     40 H           0.1605   -2.5493    2.4720 H       1  UNL1        0.0293
     41 H          -0.0445   -4.1549    1.6349 H       1  UNL1        0.0293
     42 H           4.8976   -5.0721    1.7106 H       1  UNL1        0.0843
     43 H           3.2815   -1.0095   -1.0731 H       1  UNL1        0.1522
     44 H           5.8110   -0.6726   -2.0060 H       1  UNL1        0.0637
     45 H           7.7173    0.9555   -1.9158 H       1  UNL1        0.0639
     46 H           8.8405    2.8908   -0.2350 H       1  UNL1        0.1653
     47 H           8.2256    3.8348    2.1349 H       1  UNL1        0.0807
     48 H           6.1102    2.5785    2.9298 H       1  UNL1        0.0639
     49 H           4.6572    1.1681    2.9844 H       1  UNL1        0.0278
     50 H           3.9940   -0.4351    2.4713 H       1  UNL1        0.0278
     51 H           3.2948    1.1552    1.8704 H       1  UNL1        0.0278
     52 H           1.7180   -0.1733    0.7162 H       1  UNL1        0.0625
     53 H          -0.1719   -2.4021    0.1555 H       1  UNL1        0.0624
     54 H           0.3895    1.2794    0.7126 H       1  UNL1        0.0623
     55 H          -1.1649    3.1033   -0.0676 H       1  UNL1        0.0618
     56 H          -3.1473    2.5580   -1.2604 H       1  UNL1        0.0637
     57 H          -4.9837    1.4556    0.0464 H       1  UNL1        0.0456
     58 H          -6.5481    0.6613    0.4554 H       1  UNL1        0.0456
     59 H          -6.2359    2.3505   -2.1092 H       1  UNL1        0.0439
     60 H          -6.7360    2.9988   -0.5205 H       1  UNL1        0.0439
     61 H          -8.7708    1.0358    0.5374 H       1  UNL1        0.0391
     62 H          -9.9502    1.6537   -0.6217 H       1  UNL1        0.0391
     63 H          -8.8096    2.8539    0.1911 H       1  UNL1        0.0391
     64 H          -8.2756   -0.3835   -0.6556 H       1  UNL1        0.0439
     65 H          -8.8174    0.0054   -2.3437 H       1  UNL1        0.0439
     66 H          -6.4780    0.3640   -3.0596 H       1  UNL1        0.0456
     67 H          -6.7864   -1.3001   -2.4633 H       1  UNL1        0.0456
     68 H          -2.1630   -1.5983   -0.9469 H       1  UNL1        0.0643
@<TRIPOS>BOND
     1     1     2    1
     2     2     3   ar
     3     3     4   ar
     4     4     5   ar
     5     5     6    1
     6     6     7    3
     7     5     8   ar
     8     8     9    1
     9     9    10    1
    10    10    11   ar
    11    11    12   ar
    12    12    13   ar
    13    13    14   ar
    14    14    15   ar
    15    15    16   ar
    16    16    17   ar
    17    17    18   ar
    18    18    19    1
    19     8    20   ar
    20    20    21    1
    21    21    22    2
    22    22    23    1
    23    23    24   ar
    24    24    25   ar
    25    25    26   ar
    26    26    27   ar
    27    27    28    1
    28    28    29    2
    29    28    30    2
    30    28    31    1
    31    31    32    1
    32    32    33    1
    33    33    34    1
    34    34    35    1
    35    34    36    1
    36    36    37    1
    37    27    38   ar
    38    20     2   ar
    39    38    23   ar
    40    18    10   ar
    41    37    31    1
    42    17    13   ar
    43     1    39    1
    44     1    40    1
    45     1    41    1
    46     4    42    1
    47     9    43    1
    48    11    44    1
    49    12    45    1
    50    14    46    1
    51    15    47    1
    52    16    48    1
    53    19    49    1
    54    19    50    1
    55    19    51    1
    56    21    52    1
    57    22    53    1
    58    24    54    1
    59    25    55    1
    60    26    56    1
    61    32    57    1
    62    32    58    1
    63    33    59    1
    64    33    60    1
    65    35    61    1
    66    35    62    1
    67    35    63    1
    68    36    64    1
    69    36    65    1
    70    37    66    1
    71    37    67    1
    72    38    68    1
