
     RDKit          3D

 46 51  0  0  0  0  0  0  0  0999 V2000
    4.4996    2.2575   -2.1379 N   0  0  0  0  0  0  0  0  0  0  0  0
    3.3030    1.6961   -1.6217 C   0  0  0  0  0  0  0  0  0  0  0  0
    2.2270    1.9235   -2.2280 O   0  0  0  0  0  0  0  0  0  0  0  0
    3.3559    0.8808   -0.4165 C   0  0  0  0  0  0  0  0  0  0  0  0
    4.4492    0.5458    0.3472 C   0  0  0  0  0  0  0  0  0  0  0  0
    4.0936   -0.2235    1.3863 N   0  0  0  0  0  0  0  0  0  0  0  0
    2.7568   -0.3854    1.2904 C   0  0  0  0  0  0  0  0  0  0  0  0
    1.8407   -1.0810    2.0839 C   0  0  0  0  0  0  0  0  0  0  0  0
    0.5089   -1.0745    1.7441 C   0  0  0  0  0  0  0  0  0  0  0  0
    0.1101   -0.3735    0.6161 C   0  0  0  0  0  0  0  0  0  0  0  0
   -1.3236   -0.3761    0.2582 C   0  0  0  0  0  0  0  0  0  0  0  0
   -2.0872    0.7595    0.2613 C   0  0  0  0  0  0  0  0  0  0  0  0
   -1.7346    2.1482    0.5780 C   0  0  0  0  0  0  0  0  0  0  0  0
   -0.8742    2.8567   -0.2310 C   0  0  0  0  0  0  0  0  0  0  0  0
   -0.5250    4.1788    0.0591 C   0  0  0  0  0  0  0  0  0  0  0  0
   -1.0340    4.8178    1.1706 C   0  0  0  0  0  0  0  0  0  0  0  0
   -0.6850    6.1050    1.4432 F   0  0  0  0  0  0  0  0  0  0  0  0
   -1.8944    4.0977    1.9725 C   0  0  0  0  0  0  0  0  0  0  0  0
   -2.2433    2.7877    1.6887 C   0  0  0  0  0  0  0  0  0  0  0  0
   -3.3360    0.3702   -0.1140 N   0  0  0  0  0  0  0  0  0  0  0  0
   -3.3088   -0.9331   -0.3283 C   0  0  0  0  0  0  0  0  0  0  0  0
   -2.0604   -1.4566   -0.1077 N   0  0  0  0  0  0  0  0  0  0  0  0
   -1.6954   -2.7197   -0.2365 C   0  0  0  0  0  0  0  0  0  0  0  0
   -1.5596   -3.8130    0.7452 C   0  0  0  0  0  0  0  0  0  0  0  0
   -1.2062   -4.4762   -0.5597 C   0  0  0  0  0  0  0  0  0  0  0  0
   -2.3884   -3.7318   -1.1290 C   0  0  0  0  0  0  0  0  0  0  0  0
   -0.4233   -3.2267   -0.8713 C   0  0  0  0  0  0  0  0  0  0  0  0
    1.0333    0.2699   -0.0986 N   0  0  0  0  0  0  0  0  0  0  0  0
    2.3170    0.2787    0.2073 N   0  0  0  0  0  0  0  0  0  0  0  0
    5.3764    1.7188   -2.3047 H   0  0  0  0  0  0  0  0  0  0  0  0
    4.5579    3.2845   -2.3862 H   0  0  0  0  0  0  0  0  0  0  0  0
    5.4558    0.8659    0.1297 H   0  0  0  0  0  0  0  0  0  0  0  0
    2.2225   -1.6028    2.9446 H   0  0  0  0  0  0  0  0  0  0  0  0
   -0.2099   -1.6054    2.3452 H   0  0  0  0  0  0  0  0  0  0  0  0
   -0.4519    2.3941   -1.1178 H   0  0  0  0  0  0  0  0  0  0  0  0
    0.1560    4.7203   -0.5934 H   0  0  0  0  0  0  0  0  0  0  0  0
   -2.2875    4.6043    2.8379 H   0  0  0  0  0  0  0  0  0  0  0  0
   -2.9321    2.2284    2.3425 H   0  0  0  0  0  0  0  0  0  0  0  0
   -4.1755   -1.5229   -0.6427 H   0  0  0  0  0  0  0  0  0  0  0  0
   -2.5642   -4.1763    1.0789 H   0  0  0  0  0  0  0  0  0  0  0  0
   -0.7806   -3.7754    1.5013 H   0  0  0  0  0  0  0  0  0  0  0  0
   -0.9438   -5.4234   -0.7211 H   0  0  0  0  0  0  0  0  0  0  0  0
   -3.3269   -4.1077   -0.7134 H   0  0  0  0  0  0  0  0  0  0  0  0
   -2.3487   -3.5310   -2.2015 H   0  0  0  0  0  0  0  0  0  0  0  0
    0.5055   -3.0873   -0.3259 H   0  0  0  0  0  0  0  0  0  0  0  0
   -0.3689   -3.0868   -1.9814 H   0  0  0  0  0  0  0  0  0  0  0  0
  1  2  1  0
  2  3  2  0
  2  4  1  0
  4  5  2  0
  5  6  1  0
  6  7  2  0
  7  8  1  0
  8  9  2  0
  9 10  1  0
 10 11  1  0
 11 12  2  0
 12 13  1  0
 13 14  2  0
 14 15  1  0
 15 16  2  0
 16 17  1  0
 16 18  1  0
 18 19  2  0
 12 20  1  0
 20 21  2  0
 21 22  1  0
 22 23  1  0
 23 24  1  0
 24 25  1  0
 25 26  1  0
 25 27  1  0
 10 28  2  0
 28 29  1  0
 29  4  1  0
 29  7  1  0
 22 11  1  0
 26 23  1  0
 19 13  1  0
 27 23  1  0
  1 30  1  0
  1 31  1  0
  5 32  1  0
  8 33  1  0
  9 34  1  0
 14 35  1  0
 15 36  1  0
 18 37  1  0
 19 38  1  0
 21 39  1  0
 24 40  1  0
 24 41  1  0
 25 42  1  0
 26 43  1  0
 26 44  1  0
 27 45  1  0
 27 46  1  0
M  END
$$$$
