@<TRIPOS>MOLECULE
*****
 46 51 0 0 0
SMALL
GASTEIGER

@<TRIPOS>ATOM
      1 N           4.4996    2.2575   -2.1379 N.am    1  UNL1       -0.3240
      2 C           3.3030    1.6961   -1.6217 C.2     1  UNL1        0.2615
      3 O           2.2270    1.9235   -2.2280 O.2     1  UNL1       -0.2687
      4 C           3.3559    0.8808   -0.4165 C.ar    1  UNL1        0.1470
      5 C           4.4492    0.5458    0.3472 C.ar    1  UNL1        0.0605
      6 N           4.0936   -0.2235    1.3863 N.ar    1  UNL1       -0.2339
      7 C           2.7568   -0.3854    1.2904 C.ar    1  UNL1        0.1549
      8 C           1.8407   -1.0810    2.0839 C.ar    1  UNL1       -0.0153
      9 C           0.5089   -1.0745    1.7441 C.ar    1  UNL1       -0.0290
     10 C           0.1101   -0.3735    0.6161 C.ar    1  UNL1        0.1103
     11 C          -1.3236   -0.3761    0.2582 C.ar    1  UNL1        0.0971
     12 C          -2.0872    0.7595    0.2613 C.ar    1  UNL1        0.0982
     13 C          -1.7346    2.1482    0.5780 C.ar    1  UNL1        0.0027
     14 C          -0.8742    2.8567   -0.2310 C.ar    1  UNL1       -0.0498
     15 C          -0.5250    4.1788    0.0591 C.ar    1  UNL1       -0.0258
     16 C          -1.0340    4.8178    1.1706 C.ar    1  UNL1        0.1234
     17 F          -0.6850    6.1050    1.4432 F       1  UNL1       -0.2055
     18 C          -1.8944    4.0977    1.9725 C.ar    1  UNL1       -0.0258
     19 C          -2.2433    2.7877    1.6887 C.ar    1  UNL1       -0.0498
     20 N          -3.3360    0.3702   -0.1140 N.ar    1  UNL1       -0.2350
     21 C          -3.3088   -0.9331   -0.3283 C.ar    1  UNL1        0.0976
     22 N          -2.0604   -1.4566   -0.1077 N.ar    1  UNL1       -0.3221
     23 C          -1.6954   -2.7197   -0.2365 C.3     1  UNL1        0.0478
     24 C          -1.5596   -3.8130    0.7452 C.3     1  UNL1       -0.0262
     25 C          -1.2062   -4.4762   -0.5597 C.3     1  UNL1       -0.0346
     26 C          -2.3884   -3.7318   -1.1290 C.3     1  UNL1       -0.0262
     27 C          -0.4233   -3.2267   -0.8713 C.3     1  UNL1       -0.0262
     28 N           1.0333    0.2699   -0.0986 N.ar    1  UNL1       -0.1628
     29 N           2.3170    0.2787    0.2073 N.ar    1  UNL1       -0.2076
     30 H           5.3764    1.7188   -2.3047 H       1  UNL1        0.1453
     31 H           4.5579    3.2845   -2.3862 H       1  UNL1        0.1453
     32 H           5.4558    0.8659    0.1297 H       1  UNL1        0.0854
     33 H           2.2225   -1.6028    2.9446 H       1  UNL1        0.0655
     34 H          -0.2099   -1.6054    2.3452 H       1  UNL1        0.0641
     35 H          -0.4519    2.3941   -1.1178 H       1  UNL1        0.0625
     36 H           0.1560    4.7203   -0.5934 H       1  UNL1        0.0646
     37 H          -2.2875    4.6043    2.8379 H       1  UNL1        0.0646
     38 H          -2.9321    2.2284    2.3425 H       1  UNL1        0.0625
     39 H          -4.1755   -1.5229   -0.6427 H       1  UNL1        0.1029
     40 H          -2.5642   -4.1763    1.0789 H       1  UNL1        0.0291
     41 H          -0.7806   -3.7754    1.5013 H       1  UNL1        0.0291
     42 H          -0.9438   -5.4234   -0.7211 H       1  UNL1        0.0303
     43 H          -3.3269   -4.1077   -0.7134 H       1  UNL1        0.0291
     44 H          -2.3487   -3.5310   -2.2015 H       1  UNL1        0.0291
     45 H           0.5055   -3.0873   -0.3259 H       1  UNL1        0.0291
     46 H          -0.3689   -3.0868   -1.9814 H       1  UNL1        0.0291
@<TRIPOS>BOND
     1     1     2   am
     2     2     3    2
     3     2     4    1
     4     4     5   ar
     5     5     6   ar
     6     6     7   ar
     7     7     8   ar
     8     8     9   ar
     9     9    10   ar
    10    10    11    1
    11    11    12   ar
    12    12    13    1
    13    13    14   ar
    14    14    15   ar
    15    15    16   ar
    16    16    17    1
    17    16    18   ar
    18    18    19   ar
    19    12    20   ar
    20    20    21   ar
    21    21    22   ar
    22    22    23    1
    23    23    24    1
    24    24    25    1
    25    25    26    1
    26    25    27    1
    27    10    28   ar
    28    28    29   ar
    29    29     4   ar
    30    29     7   ar
    31    22    11   ar
    32    26    23    1
    33    19    13   ar
    34    27    23    1
    35     1    30    1
    36     1    31    1
    37     5    32    1
    38     8    33    1
    39     9    34    1
    40    14    35    1
    41    15    36    1
    42    18    37    1
    43    19    38    1
    44    21    39    1
    45    24    40    1
    46    24    41    1
    47    25    42    1
    48    26    43    1
    49    26    44    1
    50    27    45    1
    51    27    46    1
