@<TRIPOS>MOLECULE
*****
 55 58 0 0 0
SMALL
GASTEIGER

@<TRIPOS>ATOM
      1 C          -0.6761   -3.5850    2.4918 C.3     1  UNL1       -0.0307
      2 C          -1.5682   -2.3907    2.7201 C.3     1  UNL1        0.0868
      3 O          -1.2846   -1.4083    1.7866 O.3     1  UNL1       -0.4915
      4 C          -0.0860   -0.7433    1.5959 C.ar    1  UNL1        0.1311
      5 C           1.0313   -0.9871    2.3614 C.ar    1  UNL1       -0.0190
      6 C           2.2379   -0.3223    2.1758 C.ar    1  UNL1       -0.0551
      7 C           2.3496    0.6168    1.2019 C.ar    1  UNL1       -0.0462
      8 C           3.5690    1.3966    0.8991 C.3     1  UNL1       -0.0241
      9 C           4.4720    0.7719   -0.0923 C.3     1  UNL1       -0.0252
     10 C           4.0791    0.4456   -1.4811 C.3     1  UNL1       -0.0378
     11 C           4.8518    1.6699   -1.2659 C.3     1  UNL1        0.0409
     12 C           6.3031    1.7742   -1.4832 C.2     1  UNL1        0.2388
     13 O           6.8620    2.8741   -1.7838 O.2     1  UNL1       -0.2734
     14 N           7.1084    0.6232   -1.3561 N.am    1  UNL1       -0.1973
     15 O           8.4635    0.6441   -1.5433 O.3     1  UNL1       -0.2952
     16 C           1.2223    0.8770    0.4145 C.ar    1  UNL1       -0.0444
     17 C           0.0310    0.2292    0.5882 C.ar    1  UNL1        0.0592
     18 C          -1.1587    0.4599   -0.1994 C.ar    1  UNL1        0.1451
     19 N          -2.3133   -0.2218    0.0033 N.ar    1  UNL1       -0.2254
     20 C          -3.4162   -0.0079   -0.7303 C.ar    1  UNL1        0.1192
     21 C          -4.6975   -0.5295   -0.7584 C.ar    1  UNL1        0.0889
     22 C          -5.2171   -1.5796    0.1268 C.3     1  UNL1       -0.0094
     23 C          -5.5146   -1.0217    1.5014 C.3     1  UNL1       -0.0597
     24 N          -5.3715    0.0977   -1.7389 N.ar    1  UNL1       -0.1736
     25 N          -4.6114    0.9911   -2.3480 N.ar    1  UNL1       -0.2598
     26 C          -4.9335    1.8754   -3.4426 C.3     1  UNL1        0.0311
     27 C          -3.3939    0.9379   -1.7335 C.ar    1  UNL1        0.1513
     28 C          -2.2434    1.6243   -1.9432 C.ar    1  UNL1        0.2775
     29 O          -2.2042    2.4978   -2.8613 O.2     1  UNL1       -0.2655
     30 N          -1.1610    1.3690   -1.1747 N.ar    1  UNL1       -0.3051
     31 H           0.0325   -3.3635    1.6806 H       1  UNL1        0.0262
     32 H          -0.1400   -3.8351    3.4506 H       1  UNL1        0.0262
     33 H          -1.2729   -4.4826    2.1667 H       1  UNL1        0.0262
     34 H          -2.6223   -2.7464    2.6372 H       1  UNL1        0.0694
     35 H          -1.4506   -1.9661    3.7408 H       1  UNL1        0.0694
     36 H           0.9475   -1.7410    3.1555 H       1  UNL1        0.0654
     37 H           3.1000   -0.5344    2.7920 H       1  UNL1        0.0621
     38 H           3.3088    2.4197    0.5837 H       1  UNL1        0.0316
     39 H           4.1318    1.4996    1.8732 H       1  UNL1        0.0316
     40 H           5.2589    0.1151    0.3327 H       1  UNL1        0.0311
     41 H           4.5756   -0.3997   -2.0006 H       1  UNL1        0.0276
     42 H           3.0015    0.5357   -1.7142 H       1  UNL1        0.0276
     43 H           4.3047    2.6272   -1.3868 H       1  UNL1        0.0398
     44 H           6.6496   -0.2797   -1.1089 H       1  UNL1        0.1822
     45 H           8.8574    0.3073   -0.6756 H       1  UNL1        0.2414
     46 H           1.3072    1.6313   -0.3699 H       1  UNL1        0.0628
     47 H          -4.4271   -2.3627    0.2473 H       1  UNL1        0.0327
     48 H          -6.1233   -2.0735   -0.2901 H       1  UNL1        0.0327
     49 H          -6.1561   -1.7506    2.0495 H       1  UNL1        0.0233
     50 H          -6.0782   -0.0724    1.4043 H       1  UNL1        0.0233
     51 H          -4.5908   -0.8501    2.0697 H       1  UNL1        0.0233
     52 H          -6.0335    2.0212   -3.4764 H       1  UNL1        0.0473
     53 H          -4.5239    1.5078   -4.4166 H       1  UNL1        0.0473
     54 H          -4.4682    2.8660   -3.2664 H       1  UNL1        0.0473
     55 H          -0.3183    1.9481   -1.4092 H       1  UNL1        0.1704
@<TRIPOS>BOND
     1     1     2    1
     2     2     3    1
     3     3     4    1
     4     4     5   ar
     5     5     6   ar
     6     6     7   ar
     7     7     8    1
     8     8     9    1
     9     9    10    1
    10    10    11    1
    11    11    12    1
    12    12    13    2
    13    12    14   am
    14    14    15    1
    15     7    16   ar
    16    16    17   ar
    17    17    18    1
    18    18    19   ar
    19    19    20   ar
    20    20    21   ar
    21    21    22    1
    22    22    23    1
    23    21    24   ar
    24    24    25   ar
    25    25    26    1
    26    25    27   ar
    27    27    28   ar
    28    28    29    2
    29    28    30   ar
    30    17     4   ar
    31    30    18   ar
    32    11     9    1
    33    27    20   ar
    34     1    31    1
    35     1    32    1
    36     1    33    1
    37     2    34    1
    38     2    35    1
    39     5    36    1
    40     6    37    1
    41     8    38    1
    42     8    39    1
    43     9    40    1
    44    10    41    1
    45    10    42    1
    46    11    43    1
    47    14    44    1
    48    15    45    1
    49    16    46    1
    50    22    47    1
    51    22    48    1
    52    23    49    1
    53    23    50    1
    54    23    51    1
    55    26    52    1
    56    26    53    1
    57    26    54    1
    58    30    55    1
