@<TRIPOS>MOLECULE
*****
 45 48 0 0 0
SMALL
GASTEIGER

@<TRIPOS>ATOM
      1 O           6.2156    1.6896   -1.3672 O.3     1  UNL1       -0.5068
      2 C           5.1994    1.2252   -0.5473 C.ar    1  UNL1        0.1169
      3 C           4.2477    0.3861   -1.0925 C.ar    1  UNL1       -0.0199
      4 C           3.2446   -0.0692   -0.2769 C.ar    1  UNL1       -0.0533
      5 C           3.1801    0.2914    1.0385 C.ar    1  UNL1       -0.0242
      6 C           2.1127   -0.1622    1.9676 C.3     1  UNL1        0.0858
      7 N           0.9995    0.7079    2.0158 N.2     1  UNL1       -0.1808
      8 N          -0.1547    0.5656    1.6239 N.2     1  UNL1       -0.1323
      9 C          -0.7611   -0.5390    0.9810 C.ar    1  UNL1        0.1966
     10 N          -0.0426   -1.5733    0.4886 N.ar    1  UNL1       -0.2233
     11 C          -0.6283   -2.6263   -0.1073 C.ar    1  UNL1        0.0916
     12 C           0.1150   -3.6822   -0.6131 C.ar    1  UNL1       -0.0342
     13 C          -0.4959   -4.7528   -1.2249 C.ar    1  UNL1       -0.0596
     14 C          -1.8671   -4.7222   -1.3087 C.ar    1  UNL1       -0.0596
     15 C          -2.6213   -3.6810   -0.8102 C.ar    1  UNL1       -0.0342
     16 C          -2.0047   -2.5978   -0.1902 C.ar    1  UNL1        0.0896
     17 N          -2.7226   -1.5772    0.2948 N.ar    1  UNL1       -0.2460
     18 C          -2.1408   -0.5093    0.8974 C.ar    1  UNL1        0.0920
     19 C          -2.9634    0.6269    1.3888 C.3     1  UNL1        0.0185
     20 C          -3.0325    1.7549    0.4223 C.ar    1  UNL1       -0.0415
     21 C          -2.2193    2.8562    0.4609 C.ar    1  UNL1       -0.0582
     22 C          -2.3231    3.8819   -0.4751 C.ar    1  UNL1       -0.0615
     23 C          -3.2563    3.8372   -1.4913 C.ar    1  UNL1       -0.0617
     24 C          -4.0830    2.7374   -1.5452 C.ar    1  UNL1       -0.0615
     25 C          -3.9739    1.7297   -0.6183 C.ar    1  UNL1       -0.0582
     26 C           4.1539    1.1354    1.5509 C.ar    1  UNL1       -0.0533
     27 C           5.1734    1.6148    0.7760 C.ar    1  UNL1       -0.0199
     28 H           6.6335    1.0948   -2.0730 H       1  UNL1        0.2921
     29 H           4.2769    0.0863   -2.1251 H       1  UNL1        0.0654
     30 H           2.4771   -0.7253   -0.6480 H       1  UNL1        0.0622
     31 H           2.5731   -0.1609    3.0009 H       1  UNL1        0.0576
     32 H           1.8552   -1.2445    1.8080 H       1  UNL1        0.0576
     33 H           1.2069   -3.6534   -0.5176 H       1  UNL1        0.0639
     34 H           0.0810   -5.5732   -1.6145 H       1  UNL1        0.0618
     35 H          -2.3628   -5.5636   -1.7947 H       1  UNL1        0.0618
     36 H          -3.7058   -3.6690   -0.8820 H       1  UNL1        0.0639
     37 H          -2.5193    1.0180    2.3576 H       1  UNL1        0.0378
     38 H          -3.9801    0.2751    1.7143 H       1  UNL1        0.0378
     39 H          -1.4645    2.9464    1.2505 H       1  UNL1        0.0620
     40 H          -1.6728    4.7599   -0.4469 H       1  UNL1        0.0618
     41 H          -3.3382    4.6429   -2.2251 H       1  UNL1        0.0618
     42 H          -4.8419    2.6609   -2.3353 H       1  UNL1        0.0618
     43 H          -4.6170    0.8475   -0.6377 H       1  UNL1        0.0620
     44 H           4.1151    1.4318    2.5965 H       1  UNL1        0.0622
     45 H           5.9323    2.2788    1.1975 H       1  UNL1        0.0654
@<TRIPOS>BOND
     1     1     2    1
     2     2     3   ar
     3     3     4   ar
     4     4     5   ar
     5     5     6    1
     6     6     7    1
     7     7     8    2
     8     8     9    1
     9     9    10   ar
    10    10    11   ar
    11    11    12   ar
    12    12    13   ar
    13    13    14   ar
    14    14    15   ar
    15    15    16   ar
    16    16    17   ar
    17    17    18   ar
    18    18    19    1
    19    19    20    1
    20    20    21   ar
    21    21    22   ar
    22    22    23   ar
    23    23    24   ar
    24    24    25   ar
    25     5    26   ar
    26    26    27   ar
    27    27     2   ar
    28    18     9   ar
    29    25    20   ar
    30    16    11   ar
    31     1    28    1
    32     3    29    1
    33     4    30    1
    34     6    31    1
    35     6    32    1
    36    12    33    1
    37    13    34    1
    38    14    35    1
    39    15    36    1
    40    19    37    1
    41    19    38    1
    42    21    39    1
    43    22    40    1
    44    23    41    1
    45    24    42    1
    46    25    43    1
    47    26    44    1
    48    27    45    1
