
     RDKit          3D

 45 48  0  0  0  0  0  0  0  0999 V2000
    6.2156    1.6896   -1.3672 O   0  0  0  0  0  0  0  0  0  0  0  0
    5.1994    1.2252   -0.5473 C   0  0  0  0  0  0  0  0  0  0  0  0
    4.2477    0.3861   -1.0925 C   0  0  0  0  0  0  0  0  0  0  0  0
    3.2446   -0.0692   -0.2769 C   0  0  0  0  0  0  0  0  0  0  0  0
    3.1801    0.2914    1.0385 C   0  0  0  0  0  0  0  0  0  0  0  0
    2.1127   -0.1622    1.9676 C   0  0  0  0  0  0  0  0  0  0  0  0
    0.9995    0.7079    2.0158 N   0  0  0  0  0  0  0  0  0  0  0  0
   -0.1547    0.5656    1.6239 N   0  0  0  0  0  0  0  0  0  0  0  0
   -0.7611   -0.5390    0.9810 C   0  0  0  0  0  0  0  0  0  0  0  0
   -0.0426   -1.5733    0.4886 N   0  0  0  0  0  0  0  0  0  0  0  0
   -0.6283   -2.6263   -0.1073 C   0  0  0  0  0  0  0  0  0  0  0  0
    0.1150   -3.6822   -0.6131 C   0  0  0  0  0  0  0  0  0  0  0  0
   -0.4959   -4.7528   -1.2249 C   0  0  0  0  0  0  0  0  0  0  0  0
   -1.8671   -4.7222   -1.3087 C   0  0  0  0  0  0  0  0  0  0  0  0
   -2.6213   -3.6810   -0.8102 C   0  0  0  0  0  0  0  0  0  0  0  0
   -2.0047   -2.5978   -0.1902 C   0  0  0  0  0  0  0  0  0  0  0  0
   -2.7226   -1.5772    0.2948 N   0  0  0  0  0  0  0  0  0  0  0  0
   -2.1408   -0.5093    0.8974 C   0  0  0  0  0  0  0  0  0  0  0  0
   -2.9634    0.6269    1.3888 C   0  0  0  0  0  0  0  0  0  0  0  0
   -3.0325    1.7549    0.4223 C   0  0  0  0  0  0  0  0  0  0  0  0
   -2.2193    2.8562    0.4609 C   0  0  0  0  0  0  0  0  0  0  0  0
   -2.3231    3.8819   -0.4751 C   0  0  0  0  0  0  0  0  0  0  0  0
   -3.2563    3.8372   -1.4913 C   0  0  0  0  0  0  0  0  0  0  0  0
   -4.0830    2.7374   -1.5452 C   0  0  0  0  0  0  0  0  0  0  0  0
   -3.9739    1.7297   -0.6183 C   0  0  0  0  0  0  0  0  0  0  0  0
    4.1539    1.1354    1.5509 C   0  0  0  0  0  0  0  0  0  0  0  0
    5.1734    1.6148    0.7760 C   0  0  0  0  0  0  0  0  0  0  0  0
    6.6335    1.0948   -2.0730 H   0  0  0  0  0  0  0  0  0  0  0  0
    4.2769    0.0863   -2.1251 H   0  0  0  0  0  0  0  0  0  0  0  0
    2.4771   -0.7253   -0.6480 H   0  0  0  0  0  0  0  0  0  0  0  0
    2.5731   -0.1609    3.0009 H   0  0  0  0  0  0  0  0  0  0  0  0
    1.8552   -1.2445    1.8080 H   0  0  0  0  0  0  0  0  0  0  0  0
    1.2069   -3.6534   -0.5176 H   0  0  0  0  0  0  0  0  0  0  0  0
    0.0810   -5.5732   -1.6145 H   0  0  0  0  0  0  0  0  0  0  0  0
   -2.3628   -5.5636   -1.7947 H   0  0  0  0  0  0  0  0  0  0  0  0
   -3.7058   -3.6690   -0.8820 H   0  0  0  0  0  0  0  0  0  0  0  0
   -2.5193    1.0180    2.3576 H   0  0  0  0  0  0  0  0  0  0  0  0
   -3.9801    0.2751    1.7143 H   0  0  0  0  0  0  0  0  0  0  0  0
   -1.4645    2.9464    1.2505 H   0  0  0  0  0  0  0  0  0  0  0  0
   -1.6728    4.7599   -0.4469 H   0  0  0  0  0  0  0  0  0  0  0  0
   -3.3382    4.6429   -2.2251 H   0  0  0  0  0  0  0  0  0  0  0  0
   -4.8419    2.6609   -2.3353 H   0  0  0  0  0  0  0  0  0  0  0  0
   -4.6170    0.8475   -0.6377 H   0  0  0  0  0  0  0  0  0  0  0  0
    4.1151    1.4318    2.5965 H   0  0  0  0  0  0  0  0  0  0  0  0
    5.9323    2.2788    1.1975 H   0  0  0  0  0  0  0  0  0  0  0  0
  1  2  1  0
  2  3  2  0
  3  4  1  0
  4  5  2  0
  5  6  1  0
  6  7  1  0
  7  8  2  3
  8  9  1  0
  9 10  2  0
 10 11  1  0
 11 12  2  0
 12 13  1  0
 13 14  2  0
 14 15  1  0
 15 16  2  0
 16 17  1  0
 17 18  2  0
 18 19  1  0
 19 20  1  0
 20 21  2  0
 21 22  1  0
 22 23  2  0
 23 24  1  0
 24 25  2  0
  5 26  1  0
 26 27  2  0
 27  2  1  0
 18  9  1  0
 25 20  1  0
 16 11  1  0
  1 28  1  0
  3 29  1  0
  4 30  1  0
  6 31  1  0
  6 32  1  0
 12 33  1  0
 13 34  1  0
 14 35  1  0
 15 36  1  0
 19 37  1  0
 19 38  1  0
 21 39  1  0
 22 40  1  0
 23 41  1  0
 24 42  1  0
 25 43  1  0
 26 44  1  0
 27 45  1  0
M  END
$$$$
