@<TRIPOS>MOLECULE
*****
 66 69 0 0 0
SMALL
GASTEIGER

@<TRIPOS>ATOM
      1 C           0.8216    0.4194   -3.3791 C.3     1  UNL1       -0.0421
      2 C           0.6127   -0.5377   -2.1888 C.3     1  UNL1        0.0515
      3 C           1.7854   -0.5571   -1.3290 C.ar    1  UNL1       -0.0271
      4 C           1.7244   -0.8174    0.0272 C.ar    1  UNL1       -0.0562
      5 C           2.8748   -0.8673    0.8204 C.ar    1  UNL1       -0.0537
      6 C           4.1157   -0.6603    0.2786 C.ar    1  UNL1       -0.0165
      7 C           5.3434   -0.6802    1.0662 C.ar    1  UNL1       -0.0015
      8 C           5.3306   -0.2127    2.3775 C.ar    1  UNL1       -0.0475
      9 C           6.4999   -0.2837    3.0954 C.ar    1  UNL1        0.0036
     10 C           7.6551   -0.7885    2.5779 C.ar    1  UNL1        0.2511
     11 O           8.6798   -0.8070    3.3308 O.2     1  UNL1       -0.2677
     12 N           7.6756   -1.2406    1.3189 N.ar    1  UNL1       -0.3177
     13 C           8.9148   -1.7914    0.8123 C.3     1  UNL1        0.0147
     14 C           6.5480   -1.1857    0.5849 C.ar    1  UNL1        0.0153
     15 C           4.1729   -0.4043   -1.0671 C.ar    1  UNL1       -0.0537
     16 C           3.0637   -0.3464   -1.8717 C.ar    1  UNL1       -0.0562
     17 N          -0.6465   -0.1852   -1.6257 N.am    1  UNL1       -0.2605
     18 C          -0.9229    0.9825   -0.8608 C.3     1  UNL1        0.0224
     19 C          -2.3438    1.4649   -0.8651 C.3     1  UNL1        0.0075
     20 C          -3.3904    0.3968   -0.8474 C.3     1  UNL1        0.1428
     21 C          -4.7412    0.8430   -1.2341 C.3     1  UNL1        0.0095
     22 C          -5.4781    1.8508   -0.4701 C.3     1  UNL1        0.0557
     23 C          -4.8178    3.2076   -0.3198 C.3     1  UNL1       -0.0468
     24 C          -5.9729    1.4478    0.8722 C.3     1  UNL1       -0.0468
     25 C          -6.6877    2.1582   -1.2991 C.1     1  UNL1        0.0688
     26 N          -7.6613    2.4138   -1.9496 N.1     1  UNL1       -0.1960
     27 C          -3.4270   -0.3293    0.4592 C.ar    1  UNL1       -0.0041
     28 C          -3.8502   -1.6428    0.4219 C.ar    1  UNL1       -0.0548
     29 C          -3.9067   -2.3807    1.5670 C.ar    1  UNL1       -0.0614
     30 C          -3.5473   -1.8467    2.7812 C.ar    1  UNL1       -0.0617
     31 C          -3.1155   -0.5204    2.8421 C.ar    1  UNL1       -0.0614
     32 C          -3.0682    0.2081    1.6606 C.ar    1  UNL1       -0.0548
     33 O          -3.0049   -0.5855   -1.8141 O.3     1  UNL1       -0.4388
     34 C          -1.7360   -1.1034   -1.8483 C.2     1  UNL1        0.4042
     35 O          -1.4822   -2.3206   -2.0618 O.2     1  UNL1       -0.2262
     36 H           1.1350    1.4153   -3.0628 H       1  UNL1        0.0251
     37 H          -0.1744    0.5067   -3.8601 H       1  UNL1        0.0251
     38 H           1.4799   -0.0639   -4.1287 H       1  UNL1        0.0251
     39 H           0.5401   -1.5428   -2.7085 H       1  UNL1        0.0549
     40 H           0.7683   -1.0013    0.4942 H       1  UNL1        0.0621
     41 H           2.8073   -1.0701    1.8801 H       1  UNL1        0.0624
     42 H           4.4277    0.1861    2.7874 H       1  UNL1        0.0626
     43 H           6.5259    0.0779    4.1410 H       1  UNL1        0.0672
     44 H           9.7818   -1.2673    1.2080 H       1  UNL1        0.0457
     45 H           8.9629   -2.8919    0.9956 H       1  UNL1        0.0457
     46 H           8.8427   -1.7040   -0.3046 H       1  UNL1        0.0457
     47 H           6.5792   -1.5469   -0.4093 H       1  UNL1        0.0816
     48 H           5.1650   -0.2505   -1.4927 H       1  UNL1        0.0624
     49 H           3.1364   -0.1389   -2.9460 H       1  UNL1        0.0621
     50 H          -0.3210    1.8222   -1.3299 H       1  UNL1        0.0467
     51 H          -0.5054    0.9272    0.1709 H       1  UNL1        0.0467
     52 H          -2.4691    1.9965   -1.8591 H       1  UNL1        0.0322
     53 H          -2.4192    2.2215   -0.0905 H       1  UNL1        0.0322
     54 H          -5.3979   -0.0739   -1.3323 H       1  UNL1        0.0322
     55 H          -4.6763    1.2042   -2.2981 H       1  UNL1        0.0322
     56 H          -5.6629    3.9648   -0.2808 H       1  UNL1        0.0245
     57 H          -4.2059    3.4017   -1.2097 H       1  UNL1        0.0245
     58 H          -4.3116    3.3587    0.6518 H       1  UNL1        0.0245
     59 H          -7.0101    1.8111    0.9966 H       1  UNL1        0.0245
     60 H          -5.4018    1.9091    1.7102 H       1  UNL1        0.0245
     61 H          -6.0375    0.3285    0.9987 H       1  UNL1        0.0245
     62 H          -4.1432   -2.1061   -0.5119 H       1  UNL1        0.0622
     63 H          -4.2407   -3.4358    1.5618 H       1  UNL1        0.0618
     64 H          -3.6122   -2.4753    3.6564 H       1  UNL1        0.0618
     65 H          -2.8320   -0.0787    3.7820 H       1  UNL1        0.0618
     66 H          -2.7484    1.2180    1.6846 H       1  UNL1        0.0622
@<TRIPOS>BOND
     1     1     2    1
     2     2     3    1
     3     3     4   ar
     4     4     5   ar
     5     5     6   ar
     6     6     7    1
     7     7     8   ar
     8     8     9   ar
     9     9    10   ar
    10    10    11    2
    11    10    12   ar
    12    12    13    1
    13    12    14   ar
    14     6    15   ar
    15    15    16   ar
    16     2    17    1
    17    17    18    1
    18    18    19    1
    19    19    20    1
    20    20    21    1
    21    21    22    1
    22    22    23    1
    23    22    24    1
    24    22    25    1
    25    25    26    3
    26    20    27    1
    27    27    28   ar
    28    28    29   ar
    29    29    30   ar
    30    30    31   ar
    31    31    32   ar
    32    20    33    1
    33    33    34    1
    34    34    35    2
    35    16     3   ar
    36    34    17   am
    37    14     7   ar
    38    32    27   ar
    39     1    36    1
    40     1    37    1
    41     1    38    1
    42     2    39    1
    43     4    40    1
    44     5    41    1
    45     8    42    1
    46     9    43    1
    47    13    44    1
    48    13    45    1
    49    13    46    1
    50    14    47    1
    51    15    48    1
    52    16    49    1
    53    18    50    1
    54    18    51    1
    55    19    52    1
    56    19    53    1
    57    21    54    1
    58    21    55    1
    59    23    56    1
    60    23    57    1
    61    23    58    1
    62    24    59    1
    63    24    60    1
    64    24    61    1
    65    28    62    1
    66    29    63    1
    67    30    64    1
    68    31    65    1
    69    32    66    1
