
     RDKit          3D

 66 69  0  0  0  0  0  0  0  0999 V2000
    0.8216    0.4194   -3.3791 C   0  0  0  0  0  0  0  0  0  0  0  0
    0.6127   -0.5377   -2.1888 C   0  0  1  0  0  0  0  0  0  0  0  0
    1.7854   -0.5571   -1.3290 C   0  0  0  0  0  0  0  0  0  0  0  0
    1.7244   -0.8174    0.0272 C   0  0  0  0  0  0  0  0  0  0  0  0
    2.8748   -0.8673    0.8204 C   0  0  0  0  0  0  0  0  0  0  0  0
    4.1157   -0.6603    0.2786 C   0  0  0  0  0  0  0  0  0  0  0  0
    5.3434   -0.6802    1.0662 C   0  0  0  0  0  0  0  0  0  0  0  0
    5.3306   -0.2127    2.3775 C   0  0  0  0  0  0  0  0  0  0  0  0
    6.4999   -0.2837    3.0954 C   0  0  0  0  0  0  0  0  0  0  0  0
    7.6551   -0.7885    2.5779 C   0  0  0  0  0  0  0  0  0  0  0  0
    8.6798   -0.8070    3.3308 O   0  0  0  0  0  0  0  0  0  0  0  0
    7.6756   -1.2406    1.3189 N   0  0  0  0  0  0  0  0  0  0  0  0
    8.9148   -1.7914    0.8123 C   0  0  0  0  0  0  0  0  0  0  0  0
    6.5480   -1.1857    0.5849 C   0  0  0  0  0  0  0  0  0  0  0  0
    4.1729   -0.4043   -1.0671 C   0  0  0  0  0  0  0  0  0  0  0  0
    3.0637   -0.3464   -1.8717 C   0  0  0  0  0  0  0  0  0  0  0  0
   -0.6465   -0.1852   -1.6257 N   0  0  0  0  0  0  0  0  0  0  0  0
   -0.9229    0.9825   -0.8608 C   0  0  0  0  0  0  0  0  0  0  0  0
   -2.3438    1.4649   -0.8651 C   0  0  0  0  0  0  0  0  0  0  0  0
   -3.3904    0.3968   -0.8474 C   0  0  2  0  0  0  0  0  0  0  0  0
   -4.7412    0.8430   -1.2341 C   0  0  0  0  0  0  0  0  0  0  0  0
   -5.4781    1.8508   -0.4701 C   0  0  0  0  0  0  0  0  0  0  0  0
   -4.8178    3.2076   -0.3198 C   0  0  0  0  0  0  0  0  0  0  0  0
   -5.9729    1.4478    0.8722 C   0  0  0  0  0  0  0  0  0  0  0  0
   -6.6877    2.1582   -1.2991 C   0  0  0  0  0  0  0  0  0  0  0  0
   -7.6613    2.4138   -1.9496 N   0  0  0  0  0  0  0  0  0  0  0  0
   -3.4270   -0.3293    0.4592 C   0  0  0  0  0  0  0  0  0  0  0  0
   -3.8502   -1.6428    0.4219 C   0  0  0  0  0  0  0  0  0  0  0  0
   -3.9067   -2.3807    1.5670 C   0  0  0  0  0  0  0  0  0  0  0  0
   -3.5473   -1.8467    2.7812 C   0  0  0  0  0  0  0  0  0  0  0  0
   -3.1155   -0.5204    2.8421 C   0  0  0  0  0  0  0  0  0  0  0  0
   -3.0682    0.2081    1.6606 C   0  0  0  0  0  0  0  0  0  0  0  0
   -3.0049   -0.5855   -1.8141 O   0  0  0  0  0  0  0  0  0  0  0  0
   -1.7360   -1.1034   -1.8483 C   0  0  0  0  0  0  0  0  0  0  0  0
   -1.4822   -2.3206   -2.0618 O   0  0  0  0  0  0  0  0  0  0  0  0
    1.1350    1.4153   -3.0628 H   0  0  0  0  0  0  0  0  0  0  0  0
   -0.1744    0.5067   -3.8601 H   0  0  0  0  0  0  0  0  0  0  0  0
    1.4799   -0.0639   -4.1287 H   0  0  0  0  0  0  0  0  0  0  0  0
    0.5401   -1.5428   -2.7085 H   0  0  0  0  0  0  0  0  0  0  0  0
    0.7683   -1.0013    0.4942 H   0  0  0  0  0  0  0  0  0  0  0  0
    2.8073   -1.0701    1.8801 H   0  0  0  0  0  0  0  0  0  0  0  0
    4.4277    0.1861    2.7874 H   0  0  0  0  0  0  0  0  0  0  0  0
    6.5259    0.0779    4.1410 H   0  0  0  0  0  0  0  0  0  0  0  0
    9.7818   -1.2673    1.2080 H   0  0  0  0  0  0  0  0  0  0  0  0
    8.9629   -2.8919    0.9956 H   0  0  0  0  0  0  0  0  0  0  0  0
    8.8427   -1.7040   -0.3046 H   0  0  0  0  0  0  0  0  0  0  0  0
    6.5792   -1.5469   -0.4093 H   0  0  0  0  0  0  0  0  0  0  0  0
    5.1650   -0.2505   -1.4927 H   0  0  0  0  0  0  0  0  0  0  0  0
    3.1364   -0.1389   -2.9460 H   0  0  0  0  0  0  0  0  0  0  0  0
   -0.3210    1.8222   -1.3299 H   0  0  0  0  0  0  0  0  0  0  0  0
   -0.5054    0.9272    0.1709 H   0  0  0  0  0  0  0  0  0  0  0  0
   -2.4691    1.9965   -1.8591 H   0  0  0  0  0  0  0  0  0  0  0  0
   -2.4192    2.2215   -0.0905 H   0  0  0  0  0  0  0  0  0  0  0  0
   -5.3979   -0.0739   -1.3323 H   0  0  0  0  0  0  0  0  0  0  0  0
   -4.6763    1.2042   -2.2981 H   0  0  0  0  0  0  0  0  0  0  0  0
   -5.6629    3.9648   -0.2808 H   0  0  0  0  0  0  0  0  0  0  0  0
   -4.2059    3.4017   -1.2097 H   0  0  0  0  0  0  0  0  0  0  0  0
   -4.3116    3.3587    0.6518 H   0  0  0  0  0  0  0  0  0  0  0  0
   -7.0101    1.8111    0.9966 H   0  0  0  0  0  0  0  0  0  0  0  0
   -5.4018    1.9091    1.7102 H   0  0  0  0  0  0  0  0  0  0  0  0
   -6.0375    0.3285    0.9987 H   0  0  0  0  0  0  0  0  0  0  0  0
   -4.1432   -2.1061   -0.5119 H   0  0  0  0  0  0  0  0  0  0  0  0
   -4.2407   -3.4358    1.5618 H   0  0  0  0  0  0  0  0  0  0  0  0
   -3.6122   -2.4753    3.6564 H   0  0  0  0  0  0  0  0  0  0  0  0
   -2.8320   -0.0787    3.7820 H   0  0  0  0  0  0  0  0  0  0  0  0
   -2.7484    1.2180    1.6846 H   0  0  0  0  0  0  0  0  0  0  0  0
  1  2  1  0
  2  3  1  0
  3  4  2  0
  4  5  1  0
  5  6  2  0
  6  7  1  0
  7  8  1  0
  8  9  2  0
  9 10  1  0
 10 11  2  0
 10 12  1  0
 12 13  1  0
 12 14  1  0
  6 15  1  0
 15 16  2  0
  2 17  1  0
 17 18  1  0
 18 19  1  0
 19 20  1  0
 20 21  1  6
 21 22  1  0
 22 23  1  0
 22 24  1  0
 22 25  1  0
 25 26  3  0
 20 27  1  0
 27 28  2  0
 28 29  1  0
 29 30  2  0
 30 31  1  0
 31 32  2  0
 20 33  1  0
 33 34  1  0
 34 35  2  0
 16  3  1  0
 34 17  1  0
 14  7  2  0
 32 27  1  0
  1 36  1  0
  1 37  1  0
  1 38  1  0
  2 39  1  6
  4 40  1  0
  5 41  1  0
  8 42  1  0
  9 43  1  0
 13 44  1  0
 13 45  1  0
 13 46  1  0
 14 47  1  0
 15 48  1  0
 16 49  1  0
 18 50  1  0
 18 51  1  0
 19 52  1  0
 19 53  1  0
 21 54  1  0
 21 55  1  0
 23 56  1  0
 23 57  1  0
 23 58  1  0
 24 59  1  0
 24 60  1  0
 24 61  1  0
 28 62  1  0
 29 63  1  0
 30 64  1  0
 31 65  1  0
 32 66  1  0
M  END
$$$$
