@<TRIPOS>MOLECULE
*****
 84 90 0 0 0
SMALL
GASTEIGER

@<TRIPOS>ATOM
      1 C          10.4601    1.0735   -1.3926 C.3     1  UNL1       -0.0223
      2 C           9.0446    0.7270   -1.0253 C.ar    1  UNL1        0.0390
      3 C           8.7534    0.4519    0.2963 C.ar    1  UNL1       -0.0401
      4 C           7.4787    0.1356    0.6527 C.ar    1  UNL1       -0.0508
      5 C           6.5093    0.1014   -0.3371 C.ar    1  UNL1        0.0018
      6 C           5.2202   -0.2141   -0.0015 C.ar    1  UNL1       -0.0448
      7 C           4.2289   -0.2576   -0.9605 C.ar    1  UNL1       -0.0164
      8 C           2.8653   -0.6007   -0.5478 C.ar    1  UNL1       -0.0178
      9 C           1.7888   -0.0866   -1.2031 C.ar    1  UNL1       -0.0538
     10 C           0.5021   -0.4147   -0.8070 C.ar    1  UNL1       -0.0579
     11 C           0.1969   -1.2505    0.2352 C.ar    1  UNL1       -0.0447
     12 C          -1.1097   -1.7140    0.6915 C.3     1  UNL1        0.0022
     13 C          -2.0161   -0.8213    1.4826 C.3     1  UNL1        0.0986
     14 C          -2.4988    0.3141    0.6915 C.3     1  UNL1        0.0022
     15 C          -3.3772    0.2141   -0.4404 C.ar    1  UNL1       -0.0447
     16 C          -4.7144    0.6208   -0.1751 C.ar    1  UNL1       -0.0580
     17 C          -5.7157    0.5888   -1.0999 C.ar    1  UNL1       -0.0521
     18 C          -5.4713    0.1455   -2.3798 C.ar    1  UNL1        0.0328
     19 C          -6.5494    0.1062   -3.3921 C.3     1  UNL1        0.3711
     20 F          -6.2698   -0.8906   -4.3092 F       1  UNL1       -0.1866
     21 F          -7.7549   -0.2052   -2.7939 F       1  UNL1       -0.1866
     22 P          -6.7562    1.7135   -4.2101 P.3     1  UNL1        0.4007
     23 O          -5.4516    2.0905   -4.8685 O.2     1  UNL1       -0.2522
     24 O          -8.0095    1.5644   -5.3332 O.3     1  UNL1       -0.3199
     25 O          -7.1537    2.8568   -3.0431 O.3     1  UNL1       -0.3199
     26 C          -4.1820   -0.2536   -2.6574 C.ar    1  UNL1       -0.0521
     27 C          -3.1800   -0.2128   -1.7014 C.ar    1  UNL1       -0.0580
     28 C          -3.0548   -1.6780    2.1428 C.ar    1  UNL1       -0.0194
     29 C          -4.1738   -2.1750    1.5487 C.ar    1  UNL1       -0.0563
     30 C          -5.1083   -2.9692    2.1744 C.ar    1  UNL1       -0.0614
     31 C          -4.9184   -3.3032    3.5083 C.ar    1  UNL1       -0.0617
     32 C          -3.7998   -2.8266    4.1557 C.ar    1  UNL1       -0.0614
     33 C          -2.8790   -2.0250    3.4838 C.ar    1  UNL1       -0.0563
     34 N          -1.2237   -0.1600    2.5401 N.ar    1  UNL1       -0.2329
     35 N           0.0650   -0.1794    2.6355 N.ar    1  UNL1       -0.0637
     36 N           0.5224    0.5025    3.6449 N.ar    1  UNL1       -0.1294
     37 C          -0.5547    1.0128    4.2654 C.ar    1  UNL1        0.1127
     38 C          -0.7466    1.8115    5.3769 C.ar    1  UNL1       -0.0324
     39 C          -1.9993    2.2005    5.8075 C.ar    1  UNL1       -0.0596
     40 C          -3.1179    1.7678    5.0885 C.ar    1  UNL1       -0.0596
     41 C          -2.9458    0.9698    3.9764 C.ar    1  UNL1       -0.0344
     42 C          -1.6927    0.5928    3.5624 C.ar    1  UNL1        0.0900
     43 C           1.3550   -1.7596    0.8835 C.ar    1  UNL1       -0.0579
     44 C           2.6259   -1.4483    0.5092 C.ar    1  UNL1       -0.0538
     45 C           4.5791    0.0252   -2.2559 C.ar    1  UNL1       -0.0371
     46 C           5.8648    0.3485   -2.6431 C.ar    1  UNL1        0.0897
     47 P           6.2368    0.7007   -4.3363 P.3     1  UNL1        0.3604
     48 O           5.6728   -0.3634   -5.2397 O.2     1  UNL1       -0.2534
     49 O           5.6103    2.2022   -4.7739 O.3     1  UNL1       -0.3207
     50 O           7.9241    0.6971   -4.5101 O.3     1  UNL1       -0.3207
     51 C           6.8293    0.3818   -1.6552 C.ar    1  UNL1        0.0861
     52 N           8.1085    0.6961   -1.9938 N.ar    1  UNL1       -0.2510
     53 H          10.9221    0.2453   -1.9818 H       1  UNL1        0.0292
     54 H          11.0368    1.3061   -0.4899 H       1  UNL1        0.0292
     55 H          10.4562    1.9756   -2.0503 H       1  UNL1        0.0292
     56 H           9.5400    0.4862    1.0596 H       1  UNL1        0.0636
     57 H           7.1891   -0.0905    1.6767 H       1  UNL1        0.0625
     58 H           4.9802   -0.4311    1.0275 H       1  UNL1        0.0630
     59 H           1.9491    0.5877   -2.0452 H       1  UNL1        0.0624
     60 H          -0.2724    0.0394   -1.3824 H       1  UNL1        0.0620
     61 H          -1.6317   -2.0523   -0.2710 H       1  UNL1        0.0340
     62 H          -1.0053   -2.7301    1.2153 H       1  UNL1        0.0340
     63 H          -1.5578    0.8511    0.3170 H       1  UNL1        0.0340
     64 H          -2.8857    1.1035    1.4172 H       1  UNL1        0.0340
     65 H          -4.9877    0.9831    0.8114 H       1  UNL1        0.0620
     66 H          -6.7356    0.8998   -0.8957 H       1  UNL1        0.0622
     67 H          -8.6053    0.8356   -5.0489 H       1  UNL1        0.2199
     68 H          -8.0697    2.7042   -2.7016 H       1  UNL1        0.2199
     69 H          -3.9873   -0.6043   -3.6685 H       1  UNL1        0.0622
     70 H          -2.2362   -0.5524   -2.0072 H       1  UNL1        0.0620
     71 H          -4.3461   -1.9718    0.5113 H       1  UNL1        0.0621
     72 H          -5.9705   -3.3213    1.6300 H       1  UNL1        0.0618
     73 H          -5.6445   -3.9285    4.0197 H       1  UNL1        0.0618
     74 H          -3.6401   -3.0825    5.2019 H       1  UNL1        0.0618
     75 H          -2.0406   -1.7287    4.0830 H       1  UNL1        0.0621
     76 H           0.1138    2.1373    5.9200 H       1  UNL1        0.0640
     77 H          -2.1389    2.8290    6.6835 H       1  UNL1        0.0618
     78 H          -4.1012    2.0699    5.4218 H       1  UNL1        0.0618
     79 H          -3.8198    0.6547    3.4588 H       1  UNL1        0.0639
     80 H           1.1680   -2.4394    1.6962 H       1  UNL1        0.0620
     81 H           3.5113   -1.8480    1.0194 H       1  UNL1        0.0624
     82 H           3.8082   -0.0048   -3.0242 H       1  UNL1        0.0633
     83 H           4.8609    2.1194   -5.4302 H       1  UNL1        0.2201
     84 H           8.1233    0.4242   -5.4402 H       1  UNL1        0.2201
@<TRIPOS>BOND
     1     1     2    1
     2     2     3   ar
     3     3     4   ar
     4     4     5   ar
     5     5     6   ar
     6     6     7   ar
     7     7     8    1
     8     8     9   ar
     9     9    10   ar
    10    10    11   ar
    11    11    12    1
    12    12    13    1
    13    13    14    1
    14    14    15    1
    15    15    16   ar
    16    16    17   ar
    17    17    18   ar
    18    18    19    1
    19    19    20    1
    20    19    21    1
    21    19    22    1
    22    22    23    2
    23    22    24    1
    24    22    25    1
    25    18    26   ar
    26    26    27   ar
    27    13    28    1
    28    28    29   ar
    29    29    30   ar
    30    30    31   ar
    31    31    32   ar
    32    32    33   ar
    33    13    34    1
    34    34    35   ar
    35    35    36   ar
    36    36    37   ar
    37    37    38   ar
    38    38    39   ar
    39    39    40   ar
    40    40    41   ar
    41    41    42   ar
    42    11    43   ar
    43    43    44   ar
    44     7    45   ar
    45    45    46   ar
    46    46    47    1
    47    47    48    2
    48    47    49    1
    49    47    50    1
    50    46    51   ar
    51    51    52   ar
    52    52     2   ar
    53    51     5   ar
    54    44     8   ar
    55    27    15   ar
    56    33    28   ar
    57    42    34   ar
    58    42    37   ar
    59     1    53    1
    60     1    54    1
    61     1    55    1
    62     3    56    1
    63     4    57    1
    64     6    58    1
    65     9    59    1
    66    10    60    1
    67    12    61    1
    68    12    62    1
    69    14    63    1
    70    14    64    1
    71    16    65    1
    72    17    66    1
    73    24    67    1
    74    25    68    1
    75    26    69    1
    76    27    70    1
    77    29    71    1
    78    30    72    1
    79    31    73    1
    80    32    74    1
    81    33    75    1
    82    38    76    1
    83    39    77    1
    84    40    78    1
    85    41    79    1
    86    43    80    1
    87    44    81    1
    88    45    82    1
    89    49    83    1
    90    50    84    1
