@<TRIPOS>MOLECULE
*****
 58 60 0 0 0
SMALL
GASTEIGER

@<TRIPOS>ATOM
      1 N          10.1987   -0.1088   -1.3669 N.pl3   0  UNK0       -0.3289
      2 C           8.9573    0.0099   -0.7063 C.ar    0  UNK0        0.1949
      3 N           7.8991    0.6528   -1.2313 N.ar    0  UNK0       -0.1982
      4 C           6.7087    0.7768   -0.6184 C.ar    0  UNK0        0.1471
      5 N           5.5311    1.3564   -0.9294 N.ar    0  UNK0       -0.3428
      6 C           4.6365    1.1898    0.0533 C.ar    0  UNK0        0.0184
      7 C           3.2179    1.6786    0.1023 C.3     0  UNK0       -0.0124
      8 C           2.2594    0.6717   -0.4743 C.3     0  UNK0       -0.0474
      9 C           2.3018   -0.6417    0.2761 C.3     0  UNK0       -0.0487
     10 C           1.3078   -1.5793   -0.3782 C.3     0  UNK0       -0.0277
     11 C          -0.0635   -1.0591   -0.3437 C.ar    0  UNK0       -0.0473
     12 C          -0.8794   -1.3632    0.7289 C.ar    0  UNK0       -0.0579
     13 C          -2.1958   -0.8919    0.8099 C.ar    0  UNK0       -0.0494
     14 C          -2.7172   -0.1061   -0.1856 C.ar    0  UNK0        0.0367
     15 C          -4.0676    0.4236   -0.1820 C.2     0  UNK0        0.2447
     16 O          -4.4889    1.1501   -1.1433 O.2     0  UNK0       -0.2702
     17 N          -4.9673    0.1600    0.8777 N.am    1  GLU1       -0.2983
     18 CA         -6.3268    0.7182    0.8391 C.3     1  GLU1        0.1209
     19 CB         -7.3588   -0.3523    0.9623 C.3     1  GLU1       -0.0140
     20 CG         -7.3266   -1.3993   -0.1099 C.3     1  GLU1        0.0470
     21 CD         -7.5644   -0.8157   -1.4421 C.2     1  GLU1        0.3048
     22 OE1        -7.8065    0.3914   -1.6545 O.2     1  GLU1       -0.2510
     23 OE2        -7.5121   -1.6875   -2.5355 O.3     1  GLU1       -0.4806
     24 C          -6.5004    1.6470    2.0160 C.2     1  GLU1        0.3253
     25 O          -5.5650    1.8346    2.8292 O.2     1  GLU1       -0.2489
     26 OXT        -7.6935    2.3137    2.2272 O.3     1  GLU1       -0.4793
     27 C          -1.8944    0.2047   -1.2743 C.ar    0  UNK0       -0.0494
     28 C          -0.6000   -0.2730   -1.3294 C.ar    0  UNK0       -0.0579
     29 C           5.2768    0.4687    1.0378 C.ar    0  UNK0       -0.0266
     30 C           6.5684    0.2043    0.6335 C.ar    0  UNK0        0.0832
     31 C           7.6392   -0.4600    1.1924 C.ar    0  UNK0        0.2619
     32 O           7.4812   -0.9690    2.3296 O.2     0  UNK0       -0.2671
     33 N           8.8044   -0.5503    0.5298 N.ar    0  UNK0       -0.2947
     34 H          11.0638    0.1758   -0.8863 H       0  UNK0        0.1451
     35 H          10.2367   -0.4794   -2.3268 H       0  UNK0        0.1451
     36 H           5.3457    1.8659   -1.8189 H       0  UNK0        0.1670
     37 H           3.1137    2.6310   -0.4486 H       0  UNK0        0.0327
     38 H           2.9668    1.8688    1.1504 H       0  UNK0        0.0327
     39 H           2.3937    0.5168   -1.5551 H       0  UNK0        0.0269
     40 H           1.2404    1.0867   -0.3354 H       0  UNK0        0.0269
     41 H           3.3096   -1.0758    0.1196 H       0  UNK0        0.0268
     42 H           2.1225   -0.5191    1.3473 H       0  UNK0        0.0268
     43 H           1.5856   -1.7224   -1.4455 H       0  UNK0        0.0313
     44 H           1.3359   -2.5950    0.0849 H       0  UNK0        0.0313
     45 H          -0.5078   -1.9779    1.5321 H       0  UNK0        0.0620
     46 H          -2.7966   -1.1571    1.6703 H       0  UNK0        0.0625
     47 H          -4.6674   -0.4277    1.6826 H       1  GLU1        0.1498
     48 HA         -6.4218    1.2937   -0.0880 H       1  GLU1        0.0614
     49 HB1        -7.2651   -0.8693    1.9520 H       1  GLU1        0.0294
     50 HB2        -8.3684    0.1342    1.0110 H       1  GLU1        0.0294
     51 HG1        -8.1538   -2.1501    0.0608 H       1  GLU1        0.0378
     52 HG2        -6.3713   -1.9845   -0.0743 H       1  GLU1        0.0378
     53 HE2        -7.9969   -1.3657   -3.3880 H       1  GLU1        0.2951
     54 HXT        -7.6425    3.2445    2.6178 H       1  GLU1        0.2951
     55 H          -2.3004    0.8311   -2.0746 H       0  UNK0        0.0625
     56 H           0.0594   -0.0372   -2.1788 H       0  UNK0        0.0620
     57 H           4.8305    0.1632    1.9753 H       0  UNK0        0.0643
     58 H           9.6276   -1.0456    0.9286 H       0  UNK0        0.1716
@<TRIPOS>BOND
     1     1     2    1
     2     2     3   ar
     3     3     4   ar
     4     4     5   ar
     5     5     6   ar
     6     6     7    1
     7     7     8    1
     8     8     9    1
     9     9    10    1
    10    10    11    1
    11    11    12   ar
    12    12    13   ar
    13    13    14   ar
    14    14    15    1
    15    15    16    2
    16    15    17   am
    17    17    18    1
    18    18    19    1
    19    19    20    1
    20    20    21    1
    21    21    22    2
    22    21    23    1
    23    18    24    1
    24    24    25    2
    25    24    26    1
    26    14    27   ar
    27    27    28   ar
    28     6    29   ar
    29    29    30   ar
    30    30    31   ar
    31    31    32    2
    32    31    33   ar
    33    33     2   ar
    34    30     4   ar
    35    28    11   ar
    36     1    34    1
    37     1    35    1
    38     5    36    1
    39     7    37    1
    40     7    38    1
    41     8    39    1
    42     8    40    1
    43     9    41    1
    44     9    42    1
    45    10    43    1
    46    10    44    1
    47    12    45    1
    48    13    46    1
    49    17    47    1
    50    18    48    1
    51    19    49    1
    52    19    50    1
    53    20    51    1
    54    20    52    1
    55    23    53    1
    56    26    54    1
    57    27    55    1
    58    28    56    1
    59    29    57    1
    60    33    58    1
