
     RDKit          3D

 58 60  0  0  0  0  0  0  0  0999 V2000
   10.1987   -0.1088   -1.3669 N   0  0  0  0  0  0  0  0  0  0  0  0
    8.9573    0.0099   -0.7063 C   0  0  0  0  0  0  0  0  0  0  0  0
    7.8991    0.6528   -1.2313 N   0  0  0  0  0  0  0  0  0  0  0  0
    6.7087    0.7768   -0.6184 C   0  0  0  0  0  0  0  0  0  0  0  0
    5.5311    1.3564   -0.9294 N   0  0  0  0  0  0  0  0  0  0  0  0
    4.6365    1.1898    0.0533 C   0  0  0  0  0  0  0  0  0  0  0  0
    3.2179    1.6786    0.1023 C   0  0  0  0  0  0  0  0  0  0  0  0
    2.2594    0.6717   -0.4743 C   0  0  0  0  0  0  0  0  0  0  0  0
    2.3018   -0.6417    0.2761 C   0  0  0  0  0  0  0  0  0  0  0  0
    1.3078   -1.5793   -0.3782 C   0  0  0  0  0  0  0  0  0  0  0  0
   -0.0635   -1.0591   -0.3437 C   0  0  0  0  0  0  0  0  0  0  0  0
   -0.8794   -1.3632    0.7289 C   0  0  0  0  0  0  0  0  0  0  0  0
   -2.1958   -0.8919    0.8099 C   0  0  0  0  0  0  0  0  0  0  0  0
   -2.7172   -0.1061   -0.1856 C   0  0  0  0  0  0  0  0  0  0  0  0
   -4.0676    0.4236   -0.1820 C   0  0  0  0  0  0  0  0  0  0  0  0
   -4.4889    1.1501   -1.1433 O   0  0  0  0  0  0  0  0  0  0  0  0
   -4.9673    0.1600    0.8777 N   0  0  0  0  0  0  0  0  0  0  0  0
   -6.3268    0.7182    0.8391 C   0  0  1  0  0  0  0  0  0  0  0  0
   -7.3588   -0.3523    0.9623 C   0  0  0  0  0  0  0  0  0  0  0  0
   -7.3266   -1.3993   -0.1099 C   0  0  0  0  0  0  0  0  0  0  0  0
   -7.5644   -0.8157   -1.4421 C   0  0  0  0  0  0  0  0  0  0  0  0
   -7.8065    0.3914   -1.6545 O   0  0  0  0  0  0  0  0  0  0  0  0
   -7.5121   -1.6875   -2.5355 O   0  0  0  0  0  0  0  0  0  0  0  0
   -6.5004    1.6470    2.0160 C   0  0  0  0  0  0  0  0  0  0  0  0
   -5.5650    1.8346    2.8292 O   0  0  0  0  0  0  0  0  0  0  0  0
   -7.6935    2.3137    2.2272 O   0  0  0  0  0  0  0  0  0  0  0  0
   -1.8944    0.2047   -1.2743 C   0  0  0  0  0  0  0  0  0  0  0  0
   -0.6000   -0.2730   -1.3294 C   0  0  0  0  0  0  0  0  0  0  0  0
    5.2768    0.4687    1.0378 C   0  0  0  0  0  0  0  0  0  0  0  0
    6.5684    0.2043    0.6335 C   0  0  0  0  0  0  0  0  0  0  0  0
    7.6392   -0.4600    1.1924 C   0  0  0  0  0  0  0  0  0  0  0  0
    7.4812   -0.9690    2.3296 O   0  0  0  0  0  0  0  0  0  0  0  0
    8.8044   -0.5503    0.5298 N   0  0  0  0  0  0  0  0  0  0  0  0
   11.0638    0.1758   -0.8863 H   0  0  0  0  0  0  0  0  0  0  0  0
   10.2367   -0.4794   -2.3268 H   0  0  0  0  0  0  0  0  0  0  0  0
    5.3457    1.8659   -1.8189 H   0  0  0  0  0  0  0  0  0  0  0  0
    3.1137    2.6310   -0.4486 H   0  0  0  0  0  0  0  0  0  0  0  0
    2.9668    1.8688    1.1504 H   0  0  0  0  0  0  0  0  0  0  0  0
    2.3937    0.5168   -1.5551 H   0  0  0  0  0  0  0  0  0  0  0  0
    1.2404    1.0867   -0.3354 H   0  0  0  0  0  0  0  0  0  0  0  0
    3.3096   -1.0758    0.1196 H   0  0  0  0  0  0  0  0  0  0  0  0
    2.1225   -0.5191    1.3473 H   0  0  0  0  0  0  0  0  0  0  0  0
    1.5856   -1.7224   -1.4455 H   0  0  0  0  0  0  0  0  0  0  0  0
    1.3359   -2.5950    0.0849 H   0  0  0  0  0  0  0  0  0  0  0  0
   -0.5078   -1.9779    1.5321 H   0  0  0  0  0  0  0  0  0  0  0  0
   -2.7966   -1.1571    1.6703 H   0  0  0  0  0  0  0  0  0  0  0  0
   -4.6674   -0.4277    1.6826 H   0  0  0  0  0  0  0  0  0  0  0  0
   -6.4218    1.2937   -0.0880 H   0  0  0  0  0  0  0  0  0  0  0  0
   -7.2651   -0.8693    1.9520 H   0  0  0  0  0  0  0  0  0  0  0  0
   -8.3684    0.1342    1.0110 H   0  0  0  0  0  0  0  0  0  0  0  0
   -8.1538   -2.1501    0.0608 H   0  0  0  0  0  0  0  0  0  0  0  0
   -6.3713   -1.9845   -0.0743 H   0  0  0  0  0  0  0  0  0  0  0  0
   -7.9969   -1.3657   -3.3880 H   0  0  0  0  0  0  0  0  0  0  0  0
   -7.6425    3.2445    2.6178 H   0  0  0  0  0  0  0  0  0  0  0  0
   -2.3004    0.8311   -2.0746 H   0  0  0  0  0  0  0  0  0  0  0  0
    0.0594   -0.0372   -2.1788 H   0  0  0  0  0  0  0  0  0  0  0  0
    4.8305    0.1632    1.9753 H   0  0  0  0  0  0  0  0  0  0  0  0
    9.6276   -1.0456    0.9286 H   0  0  0  0  0  0  0  0  0  0  0  0
  1  2  1  0
  2  3  2  0
  3  4  1  0
  4  5  1  0
  5  6  1  0
  6  7  1  0
  7  8  1  0
  8  9  1  0
  9 10  1  0
 10 11  1  0
 11 12  2  0
 12 13  1  0
 13 14  2  0
 14 15  1  0
 15 16  2  0
 15 17  1  0
 17 18  1  0
 18 19  1  0
 19 20  1  0
 20 21  1  0
 21 22  2  0
 21 23  1  0
 18 24  1  0
 24 25  2  0
 24 26  1  0
 14 27  1  0
 27 28  2  0
  6 29  2  0
 29 30  1  0
 30 31  1  0
 31 32  2  0
 31 33  1  0
 33  2  1  0
 30  4  2  0
 28 11  1  0
  1 34  1  0
  1 35  1  0
  5 36  1  0
  7 37  1  0
  7 38  1  0
  8 39  1  0
  8 40  1  0
  9 41  1  0
  9 42  1  0
 10 43  1  0
 10 44  1  0
 12 45  1  0
 13 46  1  0
 17 47  1  0
 18 48  1  6
 19 49  1  0
 19 50  1  0
 20 51  1  0
 20 52  1  0
 23 53  1  0
 26 54  1  0
 27 55  1  0
 28 56  1  0
 29 57  1  0
 33 58  1  0
M  END
$$$$
