
     RDKit          3D

 63 68  0  0  0  0  0  0  0  0999 V2000
   10.9940    3.4080    0.2722 C   0  0  0  0  0  0  0  0  0  0  0  0
   10.0950    2.2072    0.2867 C   0  0  0  0  0  0  0  0  0  0  0  0
    9.3252    1.8857   -0.8154 C   0  0  0  0  0  0  0  0  0  0  0  0
    8.4777    0.7696   -0.7709 C   0  0  0  0  0  0  0  0  0  0  0  0
    8.4060   -0.0087    0.3607 C   0  0  0  0  0  0  0  0  0  0  0  0
    7.4702   -1.1441    0.3650 C   0  0  0  0  0  0  0  0  0  0  0  0
    7.6691   -2.4424    0.5649 N   0  0  0  0  0  0  0  0  0  0  0  0
    6.4611   -3.0741    0.4550 C   0  0  0  0  0  0  0  0  0  0  0  0
    5.5061   -2.1797    0.1878 N   0  0  0  0  0  0  0  0  0  0  0  0
    4.1071   -2.3463   -0.0111 C   0  0  0  0  0  0  0  0  0  0  0  0
    3.5389   -3.3840   -0.6758 C   0  0  0  0  0  0  0  0  0  0  0  0
    2.1531   -3.4571   -0.8754 C   0  0  0  0  0  0  0  0  0  0  0  0
    1.3225   -2.4400   -0.3806 C   0  0  0  0  0  0  0  0  0  0  0  0
   -0.0629   -2.4974   -0.6327 N   0  0  0  0  0  0  0  0  0  0  0  0
   -1.0173   -1.7616    0.0895 C   0  0  0  0  0  0  0  0  0  0  0  0
   -0.7636   -1.1861    1.2719 N   0  0  0  0  0  0  0  0  0  0  0  0
   -1.6199   -0.4452    1.9782 C   0  0  0  0  0  0  0  0  0  0  0  0
   -2.8705   -0.2703    1.4216 C   0  0  0  0  0  0  0  0  0  0  0  0
   -3.2057   -0.8285    0.2127 C   0  0  0  0  0  0  0  0  0  0  0  0
   -4.5009   -0.6438   -0.4234 C   0  0  0  0  0  0  0  0  0  0  0  0
   -4.7551   -1.2117   -1.6594 C   0  0  0  0  0  0  0  0  0  0  0  0
   -5.9403   -1.0761   -2.3414 C   0  0  0  0  0  0  0  0  0  0  0  0
   -6.9428   -0.3282   -1.7609 C   0  0  0  0  0  0  0  0  0  0  0  0
   -6.7376    0.2681   -0.5091 C   0  0  0  0  0  0  0  0  0  0  0  0
   -7.7440    1.0611    0.0701 N   0  0  0  0  0  0  0  0  0  0  0  0
   -8.6273    1.8048   -0.8488 C   0  0  0  0  0  0  0  0  0  0  0  0
   -8.7067    3.2435   -0.3586 C   0  0  0  0  0  0  0  0  0  0  0  0
   -7.8062    3.4289    0.6876 O   0  0  0  0  0  0  0  0  0  0  0  0
   -8.2708    2.6630    1.7785 C   0  0  0  0  0  0  0  0  0  0  0  0
   -7.9585    1.1775    1.4965 C   0  0  0  0  0  0  0  0  0  0  0  0
   -5.5226    0.0982    0.1327 C   0  0  0  0  0  0  0  0  0  0  0  0
   -2.2656   -1.5678   -0.4317 N   0  0  0  0  0  0  0  0  0  0  0  0
    1.8865   -1.3980    0.2870 C   0  0  0  0  0  0  0  0  0  0  0  0
    3.2547   -1.3536    0.4677 C   0  0  0  0  0  0  0  0  0  0  0  0
    6.1391   -0.9955    0.1345 N   0  0  0  0  0  0  0  0  0  0  0  0
    9.1775    0.3302    1.4336 C   0  0  0  0  0  0  0  0  0  0  0  0
   10.0052    1.4260    1.3820 N   0  0  0  0  0  0  0  0  0  0  0  0
   12.0160    3.0894    0.4601 H   0  0  0  0  0  0  0  0  0  0  0  0
   10.8467    3.9168   -0.7027 H   0  0  0  0  0  0  0  0  0  0  0  0
   10.6553    4.1491    1.0413 H   0  0  0  0  0  0  0  0  0  0  0  0
    9.3817    2.5028   -1.7109 H   0  0  0  0  0  0  0  0  0  0  0  0
    7.8637    0.5034   -1.6346 H   0  0  0  0  0  0  0  0  0  0  0  0
    6.3695   -4.1449    0.5776 H   0  0  0  0  0  0  0  0  0  0  0  0
    4.1447   -4.1837   -1.0715 H   0  0  0  0  0  0  0  0  0  0  0  0
    1.7324   -4.2931   -1.4112 H   0  0  0  0  0  0  0  0  0  0  0  0
   -0.4014   -3.1306   -1.4039 H   0  0  0  0  0  0  0  0  0  0  0  0
   -1.3399   -0.0179    2.9219 H   0  0  0  0  0  0  0  0  0  0  0  0
   -3.5846    0.3285    1.9762 H   0  0  0  0  0  0  0  0  0  0  0  0
   -3.9617   -1.8043   -2.1219 H   0  0  0  0  0  0  0  0  0  0  0  0
   -6.0973   -1.5451   -3.3243 H   0  0  0  0  0  0  0  0  0  0  0  0
   -7.8991   -0.1761   -2.2371 H   0  0  0  0  0  0  0  0  0  0  0  0
   -8.2077    1.8232   -1.8628 H   0  0  0  0  0  0  0  0  0  0  0  0
   -9.6524    1.3833   -0.8398 H   0  0  0  0  0  0  0  0  0  0  0  0
   -9.7135    3.4889    0.0196 H   0  0  0  0  0  0  0  0  0  0  0  0
   -8.4793    3.9568   -1.1954 H   0  0  0  0  0  0  0  0  0  0  0  0
   -7.7318    2.9984    2.6685 H   0  0  0  0  0  0  0  0  0  0  0  0
   -9.3655    2.8372    1.8359 H   0  0  0  0  0  0  0  0  0  0  0  0
   -7.0817    0.8593    2.0702 H   0  0  0  0  0  0  0  0  0  0  0  0
   -8.8600    0.5685    1.7641 H   0  0  0  0  0  0  0  0  0  0  0  0
   -5.3674    0.5601    1.0915 H   0  0  0  0  0  0  0  0  0  0  0  0
    1.2553   -0.5943    0.6559 H   0  0  0  0  0  0  0  0  0  0  0  0
    3.6786   -0.5218    0.9968 H   0  0  0  0  0  0  0  0  0  0  0  0
    9.1285   -0.2855    2.3373 H   0  0  0  0  0  0  0  0  0  0  0  0
  1  2  1  0
  2  3  2  0
  3  4  1  0
  4  5  2  0
  5  6  1  0
  6  7  1  0
  7  8  2  0
  8  9  1  0
  9 10  1  0
 10 11  2  0
 11 12  1  0
 12 13  2  0
 13 14  1  0
 14 15  1  0
 15 16  2  0
 16 17  1  0
 17 18  2  0
 18 19  1  0
 19 20  1  0
 20 21  2  0
 21 22  1  0
 22 23  2  0
 23 24  1  0
 24 25  1  0
 25 26  1  0
 26 27  1  0
 27 28  1  0
 28 29  1  0
 29 30  1  0
 24 31  2  0
 19 32  2  0
 13 33  1  0
 33 34  2  0
  9 35  1  0
  5 36  1  0
 36 37  2  0
 37  2  1  0
 35  6  2  0
 34 10  1  0
 32 15  1  0
 31 20  1  0
 30 25  1  0
  1 38  1  0
  1 39  1  0
  1 40  1  0
  3 41  1  0
  4 42  1  0
  8 43  1  0
 11 44  1  0
 12 45  1  0
 14 46  1  0
 17 47  1  0
 18 48  1  0
 21 49  1  0
 22 50  1  0
 23 51  1  0
 26 52  1  0
 26 53  1  0
 27 54  1  0
 27 55  1  0
 29 56  1  0
 29 57  1  0
 30 58  1  0
 30 59  1  0
 31 60  1  0
 33 61  1  0
 34 62  1  0
 36 63  1  0
M  END
$$$$
