@<TRIPOS>MOLECULE
*****
 63 68 0 0 0
SMALL
GASTEIGER

@<TRIPOS>ATOM
      1 C          10.9940    3.4080    0.2722 C.3     1  UNL1       -0.0224
      2 C          10.0950    2.2072    0.2867 C.ar    1  UNL1        0.0382
      3 C           9.3252    1.8857   -0.8154 C.ar    1  UNL1       -0.0400
      4 C           8.4777    0.7696   -0.7709 C.ar    1  UNL1       -0.0478
      5 C           8.4060   -0.0087    0.3607 C.ar    1  UNL1        0.0390
      6 C           7.4702   -1.1441    0.3650 C.ar    1  UNL1        0.1831
      7 N           7.6691   -2.4424    0.5649 N.ar    1  UNL1       -0.2143
      8 C           6.4611   -3.0741    0.4550 C.ar    1  UNL1        0.1205
      9 N           5.5061   -2.1797    0.1878 N.ar    1  UNL1       -0.2197
     10 C           4.1071   -2.3463   -0.0111 C.ar    1  UNL1        0.0672
     11 C           3.5389   -3.3840   -0.6758 C.ar    1  UNL1       -0.0345
     12 C           2.1531   -3.4571   -0.8754 C.ar    1  UNL1       -0.0385
     13 C           1.3225   -2.4400   -0.3806 C.ar    1  UNL1        0.0337
     14 N          -0.0629   -2.4974   -0.6327 N.pl3   1  UNL1       -0.2836
     15 C          -1.0173   -1.7616    0.0895 C.ar    1  UNL1        0.2200
     16 N          -0.7636   -1.1861    1.2719 N.ar    1  UNL1       -0.2226
     17 C          -1.6199   -0.4452    1.9782 C.ar    1  UNL1        0.0332
     18 C          -2.8705   -0.2703    1.4216 C.ar    1  UNL1       -0.0174
     19 C          -3.2057   -0.8285    0.2127 C.ar    1  UNL1        0.0761
     20 C          -4.5009   -0.6438   -0.4234 C.ar    1  UNL1        0.0023
     21 C          -4.7551   -1.2117   -1.6594 C.ar    1  UNL1       -0.0524
     22 C          -5.9403   -1.0761   -2.3414 C.ar    1  UNL1       -0.0594
     23 C          -6.9428   -0.3282   -1.7609 C.ar    1  UNL1       -0.0406
     24 C          -6.7376    0.2681   -0.5091 C.ar    1  UNL1        0.0304
     25 N          -7.7440    1.0611    0.0701 N.pl3   1  UNL1       -0.3255
     26 C          -8.6273    1.8048   -0.8488 C.3     1  UNL1        0.0357
     27 C          -8.7067    3.2435   -0.3586 C.3     1  UNL1        0.0634
     28 O          -7.8062    3.4289    0.6876 O.3     1  UNL1       -0.3767
     29 C          -8.2708    2.6630    1.7785 C.3     1  UNL1        0.0634
     30 C          -7.9585    1.1775    1.4965 C.3     1  UNL1        0.0357
     31 C          -5.5226    0.0982    0.1327 C.ar    1  UNL1       -0.0315
     32 N          -2.2656   -1.5678   -0.4317 N.ar    1  UNL1       -0.2142
     33 C           1.8865   -1.3980    0.2870 C.ar    1  UNL1       -0.0385
     34 C           3.2547   -1.3536    0.4677 C.ar    1  UNL1       -0.0345
     35 N           6.1391   -0.9955    0.1345 N.ar    1  UNL1       -0.1448
     36 C           9.1775    0.3302    1.4336 C.ar    1  UNL1        0.0386
     37 N          10.0052    1.4260    1.3820 N.ar    1  UNL1       -0.2595
     38 H          12.0160    3.0894    0.4601 H       1  UNL1        0.0292
     39 H          10.8467    3.9168   -0.7027 H       1  UNL1        0.0292
     40 H          10.6553    4.1491    1.0413 H       1  UNL1        0.0292
     41 H           9.3817    2.5028   -1.7109 H       1  UNL1        0.0636
     42 H           7.8637    0.5034   -1.6346 H       1  UNL1        0.0626
     43 H           6.3695   -4.1449    0.5776 H       1  UNL1        0.1048
     44 H           4.1447   -4.1837   -1.0715 H       1  UNL1        0.0639
     45 H           1.7324   -4.2931   -1.4112 H       1  UNL1        0.0637
     46 H          -0.4014   -3.1306   -1.4039 H       1  UNL1        0.1550
     47 H          -1.3399   -0.0179    2.9219 H       1  UNL1        0.0831
     48 H          -3.5846    0.3285    1.9762 H       1  UNL1        0.0654
     49 H          -3.9617   -1.8043   -2.1219 H       1  UNL1        0.0624
     50 H          -6.0973   -1.5451   -3.3243 H       1  UNL1        0.0618
     51 H          -7.8991   -0.1761   -2.2371 H       1  UNL1        0.0636
     52 H          -8.2077    1.8232   -1.8628 H       1  UNL1        0.0486
     53 H          -9.6524    1.3833   -0.8398 H       1  UNL1        0.0486
     54 H          -9.7135    3.4889    0.0196 H       1  UNL1        0.0575
     55 H          -8.4793    3.9568   -1.1954 H       1  UNL1        0.0575
     56 H          -7.7318    2.9984    2.6685 H       1  UNL1        0.0575
     57 H          -9.3655    2.8372    1.8359 H       1  UNL1        0.0575
     58 H          -7.0817    0.8593    2.0702 H       1  UNL1        0.0486
     59 H          -8.8600    0.5685    1.7641 H       1  UNL1        0.0486
     60 H          -5.3674    0.5601    1.0915 H       1  UNL1        0.0643
     61 H           1.2553   -0.5943    0.6559 H       1  UNL1        0.0637
     62 H           3.6786   -0.5218    0.9968 H       1  UNL1        0.0639
     63 H           9.1285   -0.2855    2.3373 H       1  UNL1        0.0837
@<TRIPOS>BOND
     1     1     2    1
     2     2     3   ar
     3     3     4   ar
     4     4     5   ar
     5     5     6    1
     6     6     7   ar
     7     7     8   ar
     8     8     9   ar
     9     9    10    1
    10    10    11   ar
    11    11    12   ar
    12    12    13   ar
    13    13    14    1
    14    14    15    1
    15    15    16   ar
    16    16    17   ar
    17    17    18   ar
    18    18    19   ar
    19    19    20    1
    20    20    21   ar
    21    21    22   ar
    22    22    23   ar
    23    23    24   ar
    24    24    25    1
    25    25    26    1
    26    26    27    1
    27    27    28    1
    28    28    29    1
    29    29    30    1
    30    24    31   ar
    31    19    32   ar
    32    13    33   ar
    33    33    34   ar
    34     9    35   ar
    35     5    36   ar
    36    36    37   ar
    37    37     2   ar
    38    35     6   ar
    39    34    10   ar
    40    32    15   ar
    41    31    20   ar
    42    30    25    1
    43     1    38    1
    44     1    39    1
    45     1    40    1
    46     3    41    1
    47     4    42    1
    48     8    43    1
    49    11    44    1
    50    12    45    1
    51    14    46    1
    52    17    47    1
    53    18    48    1
    54    21    49    1
    55    22    50    1
    56    23    51    1
    57    26    52    1
    58    26    53    1
    59    27    54    1
    60    27    55    1
    61    29    56    1
    62    29    57    1
    63    30    58    1
    64    30    59    1
    65    31    60    1
    66    33    61    1
    67    34    62    1
    68    36    63    1
