@<TRIPOS>MOLECULE
*****
 47 50 0 0 0
SMALL
GASTEIGER

@<TRIPOS>ATOM
      1 O          -5.2668    3.1596   -0.6382 O.2     1  UNL1       -0.2655
      2 C          -4.4315    2.2282   -0.6644 C.ar    1  UNL1        0.2761
      3 N          -3.2467    2.4290   -1.2501 N.ar    1  UNL1       -0.3009
      4 C          -2.3282    1.4472   -1.2930 C.ar    1  UNL1        0.1614
      5 S          -0.9955    1.7935   -2.1876 S.2     1  UNL1       -0.0128
      6 N          -2.4627    0.2143   -0.7838 N.ar    1  UNL1       -0.3149
      7 C          -1.4241   -0.7683   -0.7521 C.3     1  UNL1        0.0510
      8 C          -0.7691   -1.1388    0.4994 C.ar    1  UNL1       -0.0233
      9 C          -1.0450   -2.4238    1.0121 C.ar    1  UNL1       -0.0566
     10 C          -0.4674   -2.8621    2.1481 C.ar    1  UNL1       -0.0614
     11 C           0.4269   -2.0990    2.8869 C.ar    1  UNL1       -0.0614
     12 C           0.6822   -0.8551    2.3712 C.ar    1  UNL1       -0.0570
     13 C           0.1006   -0.3624    1.1912 C.ar    1  UNL1       -0.0287
     14 C           0.5295    1.0062    0.7817 C.3     1  UNL1        0.0216
     15 N           1.5022    0.9502   -0.2879 N.3     1  UNL1       -0.3117
     16 C           2.6560    0.2248    0.1490 C.3     1  UNL1       -0.0010
     17 C           3.7218    0.1287   -0.9188 C.3     1  UNL1       -0.0285
     18 C           4.9563   -0.6324   -0.4903 C.3     1  UNL1       -0.0490
     19 C           5.7953    0.4617   -1.1056 C.3     1  UNL1       -0.0525
     20 C           4.5662    1.3456   -1.0985 C.3     1  UNL1       -0.0490
     21 C          -3.6767   -0.0099   -0.1814 C.ar    1  UNL1        0.0743
     22 C          -4.1852   -1.1332    0.4250 C.ar    1  UNL1       -0.0200
     23 C          -5.4739   -0.8077    0.8533 C.ar    1  UNL1        0.0043
     24 N          -5.7203    0.4689    0.5099 N.ar    1  UNL1       -0.3553
     25 C          -4.6445    0.9847   -0.1240 C.ar    1  UNL1        0.1283
     26 H          -3.0554    3.3849   -1.6782 H       1  UNL1        0.1709
     27 H          -1.8841   -1.6980   -1.2045 H       1  UNL1        0.0542
     28 H          -0.6462   -0.4230   -1.5044 H       1  UNL1        0.0542
     29 H          -1.7156   -3.0670    0.4716 H       1  UNL1        0.0621
     30 H          -0.6693   -3.8555    2.5621 H       1  UNL1        0.0618
     31 H           0.8689   -2.4844    3.7922 H       1  UNL1        0.0618
     32 H           1.3878   -0.2248    2.9309 H       1  UNL1        0.0621
     33 H           1.0817    1.4715    1.6606 H       1  UNL1        0.0474
     34 H          -0.2544    1.6975    0.5508 H       1  UNL1        0.0474
     35 H           1.7815    1.8696   -0.6366 H       1  UNL1        0.1223
     36 H           2.3338   -0.8245    0.3805 H       1  UNL1        0.0427
     37 H           3.1159    0.6247    1.0638 H       1  UNL1        0.0427
     38 H           3.3687   -0.2511   -1.8928 H       1  UNL1        0.0313
     39 H           5.1195   -0.6406    0.6214 H       1  UNL1        0.0268
     40 H           5.0582   -1.6227   -0.9804 H       1  UNL1        0.0268
     41 H           6.1660    0.1648   -2.1087 H       1  UNL1        0.0265
     42 H           6.6281    0.8259   -0.4706 H       1  UNL1        0.0265
     43 H           4.6174    2.0524   -0.2505 H       1  UNL1        0.0268
     44 H           4.4611    1.8322   -2.0965 H       1  UNL1        0.0268
     45 H          -3.7912   -2.1104    0.5897 H       1  UNL1        0.0653
     46 H          -6.1731   -1.4740    1.3810 H       1  UNL1        0.0807
     47 H          -6.5989    1.0026    0.6928 H       1  UNL1        0.1655
@<TRIPOS>BOND
     1     1     2    2
     2     2     3   ar
     3     3     4   ar
     4     4     5    2
     5     4     6   ar
     6     6     7    1
     7     7     8    1
     8     8     9   ar
     9     9    10   ar
    10    10    11   ar
    11    11    12   ar
    12    12    13   ar
    13    13    14    1
    14    14    15    1
    15    15    16    1
    16    16    17    1
    17    17    18    1
    18    18    19    1
    19    19    20    1
    20     6    21   ar
    21    21    22   ar
    22    22    23   ar
    23    23    24   ar
    24    24    25   ar
    25    25     2   ar
    26    13     8   ar
    27    20    17    1
    28    25    21   ar
    29     3    26    1
    30     7    27    1
    31     7    28    1
    32     9    29    1
    33    10    30    1
    34    11    31    1
    35    12    32    1
    36    14    33    1
    37    14    34    1
    38    15    35    1
    39    16    36    1
    40    16    37    1
    41    17    38    1
    42    18    39    1
    43    18    40    1
    44    19    41    1
    45    19    42    1
    46    20    43    1
    47    20    44    1
    48    22    45    1
    49    23    46    1
    50    24    47    1
