
     RDKit          3D

 53 57  0  0  0  0  0  0  0  0999 V2000
    1.9497    1.9127   -0.0548 O   0  0  0  0  0  0  0  0  0  0  0  0
    1.3395    0.8094   -0.0624 C   0  0  0  0  0  0  0  0  0  0  0  0
    2.0943   -0.3449    0.2418 N   0  0  0  0  0  0  0  0  0  0  0  0
    3.5101   -0.2391    0.5472 C   0  0  1  0  0  0  0  0  0  0  0  0
    4.0145   -1.1143    1.6947 C   0  0  0  0  0  0  0  0  0  0  0  0
    4.4169   -1.3844    0.2856 C   0  0  2  0  0  0  0  0  0  0  0  0
    5.7795   -1.0218   -0.1627 C   0  0  0  0  0  0  0  0  0  0  0  0
    6.4082    0.1292    0.2689 C   0  0  0  0  0  0  0  0  0  0  0  0
    7.6774    0.4227   -0.1780 C   0  0  0  0  0  0  0  0  0  0  0  0
    8.3409   -0.4155   -1.0557 C   0  0  0  0  0  0  0  0  0  0  0  0
    7.7254   -1.5575   -1.4881 C   0  0  0  0  0  0  0  0  0  0  0  0
    6.4472   -1.8477   -1.0345 C   0  0  0  0  0  0  0  0  0  0  0  0
   -0.0316    0.7520   -0.3629 N   0  0  0  0  0  0  0  0  0  0  0  0
   -0.7392    1.9744   -0.6667 C   0  0  0  0  0  0  0  0  0  0  0  0
   -2.0694    1.7273   -1.3241 C   0  0  0  0  0  0  0  0  0  0  0  0
   -2.9477    0.7848   -0.5453 C   0  0  0  0  0  0  0  0  0  0  0  0
   -2.1360   -0.1443    0.2860 C   0  0  0  0  0  0  0  0  0  0  0  0
   -0.7965   -0.4721   -0.3884 C   0  0  0  0  0  0  0  0  0  0  0  0
   -3.8560    0.0951   -1.5321 C   0  0  0  0  0  0  0  0  0  0  0  0
   -4.7667   -0.9225   -0.8762 C   0  0  0  0  0  0  0  0  0  0  0  0
   -5.6549   -1.3481   -1.8921 O   0  0  0  0  0  0  0  0  0  0  0  0
   -5.5024   -0.2257    0.2050 C   0  0  0  0  0  0  0  0  0  0  0  0
   -6.6655   -0.7214    0.6516 N   0  0  0  0  0  0  0  0  0  0  0  0
   -7.4018   -0.1678    1.6202 C   0  0  0  0  0  0  0  0  0  0  0  0
   -6.9213    0.9977    2.1951 C   0  0  0  0  0  0  0  0  0  0  0  0
   -5.7303    1.5359    1.7620 C   0  0  0  0  0  0  0  0  0  0  0  0
   -5.0032    0.9235    0.7536 C   0  0  0  0  0  0  0  0  0  0  0  0
   -3.8070    1.5062    0.3520 O   0  0  0  0  0  0  0  0  0  0  0  0
    1.6826   -1.3001    0.2606 H   0  0  0  0  0  0  0  0  0  0  0  0
    3.9259    0.7723    0.5264 H   0  0  0  0  0  0  0  0  0  0  0  0
    4.7198   -0.6601    2.4199 H   0  0  0  0  0  0  0  0  0  0  0  0
    3.2614   -1.7809    2.1755 H   0  0  0  0  0  0  0  0  0  0  0  0
    4.0281   -2.3306   -0.1247 H   0  0  0  0  0  0  0  0  0  0  0  0
    5.9320    0.8209    0.9573 H   0  0  0  0  0  0  0  0  0  0  0  0
    8.1435    1.3332    0.1791 H   0  0  0  0  0  0  0  0  0  0  0  0
    9.3491   -0.1436   -1.3856 H   0  0  0  0  0  0  0  0  0  0  0  0
    8.2284   -2.2189   -2.1703 H   0  0  0  0  0  0  0  0  0  0  0  0
    5.9980   -2.7656   -1.4048 H   0  0  0  0  0  0  0  0  0  0  0  0
   -0.8266    2.6157    0.2345 H   0  0  0  0  0  0  0  0  0  0  0  0
   -0.1122    2.5389   -1.3885 H   0  0  0  0  0  0  0  0  0  0  0  0
   -2.5790    2.7075   -1.4229 H   0  0  0  0  0  0  0  0  0  0  0  0
   -1.8850    1.3478   -2.3591 H   0  0  0  0  0  0  0  0  0  0  0  0
   -2.6695   -1.0693    0.5781 H   0  0  0  0  0  0  0  0  0  0  0  0
   -1.8667    0.3752    1.2360 H   0  0  0  0  0  0  0  0  0  0  0  0
   -0.3338   -1.3172    0.1172 H   0  0  0  0  0  0  0  0  0  0  0  0
   -1.0213   -0.7469   -1.4587 H   0  0  0  0  0  0  0  0  0  0  0  0
   -4.5437    0.8946   -1.9383 H   0  0  0  0  0  0  0  0  0  0  0  0
   -3.3238   -0.3078   -2.4008 H   0  0  0  0  0  0  0  0  0  0  0  0
   -4.2365   -1.8193   -0.5463 H   0  0  0  0  0  0  0  0  0  0  0  0
   -6.3436   -1.8960   -1.4318 H   0  0  0  0  0  0  0  0  0  0  0  0
   -8.3529   -0.6071    1.9587 H   0  0  0  0  0  0  0  0  0  0  0  0
   -7.5025    1.4654    2.9840 H   0  0  0  0  0  0  0  0  0  0  0  0
   -5.3456    2.4482    2.2057 H   0  0  0  0  0  0  0  0  0  0  0  0
  1  2  2  0
  2  3  1  0
  3  4  1  0
  4  5  1  0
  5  6  1  0
  6  7  1  0
  7  8  2  0
  8  9  1  0
  9 10  2  0
 10 11  1  0
 11 12  2  0
  2 13  1  0
 13 14  1  0
 14 15  1  0
 15 16  1  0
 16 17  1  0
 17 18  1  0
 16 19  1  0
 19 20  1  0
 20 21  1  0
 20 22  1  0
 22 23  2  0
 23 24  1  0
 24 25  2  0
 25 26  1  0
 26 27  2  0
 27 28  1  0
  6  4  1  0
 12  7  1  0
 18 13  1  0
 27 22  1  0
 28 16  1  0
  3 29  1  0
  4 30  1  1
  5 31  1  0
  5 32  1  0
  6 33  1  6
  8 34  1  0
  9 35  1  0
 10 36  1  0
 11 37  1  0
 12 38  1  0
 14 39  1  0
 14 40  1  0
 15 41  1  0
 15 42  1  0
 17 43  1  0
 17 44  1  0
 18 45  1  0
 18 46  1  0
 19 47  1  0
 19 48  1  0
 20 49  1  0
 21 50  1  0
 24 51  1  0
 25 52  1  0
 26 53  1  0
M  END
$$$$
