@<TRIPOS>MOLECULE
*****
 53 57 0 0 0
SMALL
GASTEIGER

@<TRIPOS>ATOM
      1 O           1.9497    1.9127   -0.0548 O.2     1  UNL1       -0.2526
      2 C           1.3395    0.8094   -0.0624 C.2     1  UNL1        0.3024
      3 N           2.0943   -0.3449    0.2418 N.am    1  UNL1       -0.2958
      4 C           3.5101   -0.2391    0.5472 C.3     1  UNL1        0.0320
      5 C           4.0145   -1.1143    1.6947 C.3     1  UNL1       -0.0254
      6 C           4.4169   -1.3844    0.2856 C.3     1  UNL1        0.0043
      7 C           5.7795   -1.0218   -0.1627 C.ar    1  UNL1       -0.0425
      8 C           6.4082    0.1292    0.2689 C.ar    1  UNL1       -0.0582
      9 C           7.6774    0.4227   -0.1780 C.ar    1  UNL1       -0.0615
     10 C           8.3409   -0.4155   -1.0557 C.ar    1  UNL1       -0.0617
     11 C           7.7254   -1.5575   -1.4881 C.ar    1  UNL1       -0.0615
     12 C           6.4472   -1.8477   -1.0345 C.ar    1  UNL1       -0.0582
     13 N          -0.0316    0.7520   -0.3629 N.am    1  UNL1       -0.2854
     14 C          -0.7392    1.9744   -0.6667 C.3     1  UNL1        0.0197
     15 C          -2.0694    1.7273   -1.3241 C.3     1  UNL1        0.0031
     16 C          -2.9477    0.7848   -0.5453 C.3     1  UNL1        0.1163
     17 C          -2.1360   -0.1443    0.2860 C.3     1  UNL1        0.0031
     18 C          -0.7965   -0.4721   -0.3884 C.3     1  UNL1        0.0197
     19 C          -3.8560    0.0951   -1.5321 C.3     1  UNL1        0.0190
     20 C          -4.7667   -0.9225   -0.8762 C.3     1  UNL1        0.1041
     21 O          -5.6549   -1.3481   -1.8921 O.3     1  UNL1       -0.3854
     22 C          -5.5024   -0.2257    0.2050 C.ar    1  UNL1        0.1112
     23 N          -6.6655   -0.7214    0.6516 N.ar    1  UNL1       -0.2536
     24 C          -7.4018   -0.1678    1.6202 C.ar    1  UNL1        0.0282
     25 C          -6.9213    0.9977    2.1951 C.ar    1  UNL1       -0.0401
     26 C          -5.7303    1.5359    1.7620 C.ar    1  UNL1       -0.0166
     27 C          -5.0032    0.9235    0.7536 C.ar    1  UNL1        0.1450
     28 O          -3.8070    1.5062    0.3520 O.3     1  UNL1       -0.4836
     29 H           1.6826   -1.3001    0.2606 H       1  UNL1        0.1505
     30 H           3.9259    0.7723    0.5264 H       1  UNL1        0.0505
     31 H           4.7198   -0.6601    2.4199 H       1  UNL1        0.0290
     32 H           3.2614   -1.7809    2.1755 H       1  UNL1        0.0290
     33 H           4.0281   -2.3306   -0.1247 H       1  UNL1        0.0367
     34 H           5.9320    0.8209    0.9573 H       1  UNL1        0.0620
     35 H           8.1435    1.3332    0.1791 H       1  UNL1        0.0618
     36 H           9.3491   -0.1436   -1.3856 H       1  UNL1        0.0618
     37 H           8.2284   -2.2189   -2.1703 H       1  UNL1        0.0618
     38 H           5.9980   -2.7656   -1.4048 H       1  UNL1        0.0620
     39 H          -0.8266    2.6157    0.2345 H       1  UNL1        0.0466
     40 H          -0.1122    2.5389   -1.3885 H       1  UNL1        0.0466
     41 H          -2.5790    2.7075   -1.4229 H       1  UNL1        0.0319
     42 H          -1.8850    1.3478   -2.3591 H       1  UNL1        0.0319
     43 H          -2.6695   -1.0693    0.5781 H       1  UNL1        0.0319
     44 H          -1.8667    0.3752    1.2360 H       1  UNL1        0.0319
     45 H          -0.3338   -1.3172    0.1172 H       1  UNL1        0.0466
     46 H          -1.0213   -0.7469   -1.4587 H       1  UNL1        0.0466
     47 H          -4.5437    0.8946   -1.9383 H       1  UNL1        0.0333
     48 H          -3.3238   -0.3078   -2.4008 H       1  UNL1        0.0333
     49 H          -4.2365   -1.8193   -0.5463 H       1  UNL1        0.0661
     50 H          -6.3436   -1.8960   -1.4318 H       1  UNL1        0.2103
     51 H          -8.3529   -0.6071    1.9587 H       1  UNL1        0.0829
     52 H          -7.5025    1.4654    2.9840 H       1  UNL1        0.0634
     53 H          -5.3456    2.4482    2.2057 H       1  UNL1        0.0655
@<TRIPOS>BOND
     1     1     2    2
     2     2     3   am
     3     3     4    1
     4     4     5    1
     5     5     6    1
     6     6     7    1
     7     7     8   ar
     8     8     9   ar
     9     9    10   ar
    10    10    11   ar
    11    11    12   ar
    12     2    13   am
    13    13    14    1
    14    14    15    1
    15    15    16    1
    16    16    17    1
    17    17    18    1
    18    16    19    1
    19    19    20    1
    20    20    21    1
    21    20    22    1
    22    22    23   ar
    23    23    24   ar
    24    24    25   ar
    25    25    26   ar
    26    26    27   ar
    27    27    28    1
    28     6     4    1
    29    12     7   ar
    30    18    13    1
    31    27    22   ar
    32    28    16    1
    33     3    29    1
    34     4    30    1
    35     5    31    1
    36     5    32    1
    37     6    33    1
    38     8    34    1
    39     9    35    1
    40    10    36    1
    41    11    37    1
    42    12    38    1
    43    14    39    1
    44    14    40    1
    45    15    41    1
    46    15    42    1
    47    17    43    1
    48    17    44    1
    49    18    45    1
    50    18    46    1
    51    19    47    1
    52    19    48    1
    53    20    49    1
    54    21    50    1
    55    24    51    1
    56    25    52    1
    57    26    53    1
