@<TRIPOS>MOLECULE
*****
 80 82 0 0 0
SMALL
GASTEIGER

@<TRIPOS>ATOM
      1 C          -2.5978   -1.9729    2.6612 C.3     1  UNL1       -0.0652
      2 C          -2.9723   -0.5391    2.3900 C.3     1  UNL1       -0.0540
      3 C          -2.2447    0.1778    1.3633 C.3     1  UNL1       -0.0293
      4 CA         -2.2268   -0.3035   -0.0629 C.3     1  UNL1        0.0856
      5 N          -3.4856   -0.3690   -0.6724 N.3     1  UNL1       -0.2935
      6 CA         -4.4939   -1.2683   -0.4552 C.3     1  UNL1        0.1066
      7 C          -5.8106   -0.4665   -0.8327 C.3     1  UNL1       -0.0232
      8 C          -5.8152    0.7070    0.1127 C.3     1  UNL1       -0.0258
      9 C          -6.9885    1.5938   -0.1186 C.ar    1  UNL1       -0.0473
     10 C          -6.8431    2.6253   -1.0215 C.ar    1  UNL1       -0.0586
     11 C          -7.8756    3.4978   -1.3010 C.ar    1  UNL1       -0.0615
     12 C          -9.0838    3.3243   -0.6530 C.ar    1  UNL1       -0.0617
     13 C          -9.2342    2.3060    0.2414 C.ar    1  UNL1       -0.0615
     14 C          -8.1977    1.4388    0.5149 C.ar    1  UNL1       -0.0586
     15 C          -4.5430   -2.3013   -1.5653 C.2     1  UNL1        0.3219
     16 O          -3.8577   -2.0911   -2.5778 O.2     1  UNL1       -0.2492
     17 OXT        -5.3082   -3.4454   -1.4911 O.3     1  UNL1       -0.4795
     18 C          -1.3414   -1.4749   -0.2373 C.2     1  UNL1        0.2333
     19 O          -1.8114   -2.5673   -0.6136 O.2     1  UNL1       -0.2739
     20 N           0.0642   -1.4634   -0.0104 N.am    1  UNL1       -0.2849
     21 C           0.8211   -0.2846    0.4369 C.3     1  UNL1        0.0341
     22 C           2.1965   -0.5673   -0.1739 C.3     1  UNL1        0.0411
     23 N           3.2182    0.2399    0.4151 N.am    1  UNL1       -0.3108
     24 C           4.0961    1.0450   -0.3455 C.2     1  UNL1        0.2148
     25 O           3.9166    1.0055   -1.6105 O.2     1  UNL1       -0.2758
     26 C           5.1599    1.8852    0.2628 C.3     1  UNL1        0.0394
     27 C           5.9296    2.5943   -0.8007 C.3     1  UNL1        0.0172
     28 N           5.0396    3.4377   -1.5616 N.3     1  UNL1       -0.3265
     29 C           6.7023    1.6831   -1.7006 C.3     1  UNL1       -0.0092
     30 C           7.6651    0.9238   -0.8588 C.ar    1  UNL1       -0.0078
     31 C           7.4044   -0.3914   -0.5484 C.ar    1  UNL1       -0.0176
     32 C           8.2827   -1.1405    0.2401 C.ar    1  UNL1        0.1588
     33 F           8.0379   -2.4355    0.5529 F       1  UNL1       -0.2025
     34 C           9.4411   -0.5676    0.7273 C.ar    1  UNL1        0.1611
     35 F          10.3327   -1.2447    1.4980 F       1  UNL1       -0.2024
     36 C           9.6867    0.7509    0.4067 C.ar    1  UNL1        0.0119
     37 C           8.8220    1.4922   -0.3709 C.ar    1  UNL1        0.1295
     38 F           9.0585    2.7970   -0.6921 F       1  UNL1       -0.2051
     39 C           2.3133   -2.0428    0.1993 C.3     1  UNL1       -0.0039
     40 CA          0.9677   -2.5711   -0.2139 C.3     1  UNL1        0.1246
     41 C           0.6067   -3.8037    0.4920 C.2     1  UNL1        0.3255
     42 O          -0.4194   -3.8378    1.2037 O.2     1  UNL1       -0.2489
     43 OXT         1.3616   -4.9579    0.4084 O.3     1  UNL1       -0.4793
     44 H          -3.2005   -2.2687    3.5748 H       1  UNL1        0.0230
     45 H          -2.9381   -2.6695    1.8796 H       1  UNL1        0.0230
     46 H          -1.5513   -2.0885    2.9795 H       1  UNL1        0.0230
     47 H          -2.7141   -0.0245    3.3881 H       1  UNL1        0.0263
     48 H          -4.0769   -0.4873    2.4110 H       1  UNL1        0.0263
     49 H          -2.7063    1.2178    1.2802 H       1  UNL1        0.0285
     50 H          -1.2210    0.3923    1.6974 H       1  UNL1        0.0285
     51 HA         -1.6791    0.5312   -0.6134 H       1  UNL1        0.0557
     52 H          -3.3735   -0.2101   -1.7187 H       1  UNL1        0.1234
     53 HA         -4.7309   -1.6870    0.5013 H       1  UNL1        0.0576
     54 H          -5.6182   -0.1196   -1.8486 H       1  UNL1        0.0289
     55 H          -6.6698   -1.1233   -0.7051 H       1  UNL1        0.0289
     56 H          -4.8999    1.2831    0.0259 H       1  UNL1        0.0314
     57 H          -5.8704    0.2740    1.1361 H       1  UNL1        0.0314
     58 H          -5.9081    2.7845   -1.5435 H       1  UNL1        0.0620
     59 H          -7.7260    4.2866   -2.0078 H       1  UNL1        0.0618
     60 H          -9.8758    4.0009   -0.8732 H       1  UNL1        0.0618
     61 H         -10.1873    2.1808    0.7434 H       1  UNL1        0.0618
     62 H          -8.3178    0.6193    1.2343 H       1  UNL1        0.0620
     63 HXT        -5.0887   -4.1900   -2.1395 H       1  UNL1        0.2951
     64 H           0.9695   -0.2698    1.5119 H       1  UNL1        0.0483
     65 H           0.3691    0.5945   -0.0185 H       1  UNL1        0.0483
     66 H           2.1210   -0.5125   -1.2587 H       1  UNL1        0.0514
     67 H           3.3242    0.2381    1.4505 H       1  UNL1        0.1490
     68 H           4.6461    2.6582    0.8790 H       1  UNL1        0.0374
     69 H           5.7938    1.3130    0.9642 H       1  UNL1        0.0374
     70 H           6.6887    3.2569   -0.2949 H       1  UNL1        0.0466
     71 H           5.6408    3.9899   -2.2228 H       1  UNL1        0.1185
     72 H           4.6289    4.1452   -0.8900 H       1  UNL1        0.1185
     73 H           7.3463    2.3311   -2.3635 H       1  UNL1        0.0329
     74 H           6.1168    1.0605   -2.3738 H       1  UNL1        0.0329
     75 H           6.5120   -0.8657   -0.9119 H       1  UNL1        0.0651
     76 H          10.5804    1.2426    0.7650 H       1  UNL1        0.0676
     77 H           3.1167   -2.5407   -0.3767 H       1  UNL1        0.0307
     78 H           2.4295   -2.1525    1.2916 H       1  UNL1        0.0307
     79 HA          1.0502   -2.7559   -1.3215 H       1  UNL1        0.0617
     80 HXT         1.0461   -5.8527    0.7991 H       1  UNL1        0.2951
@<TRIPOS>BOND
     1     1     2    1
     2     2     3    1
     3     3     4    1
     4     4     5    1
     5     5     6    1
     6     6     7    1
     7     7     8    1
     8     8     9    1
     9     9    10   ar
    10    10    11   ar
    11    11    12   ar
    12    12    13   ar
    13    13    14   ar
    14     6    15    1
    15    15    16    2
    16    15    17    1
    17     4    18    1
    18    18    19    2
    19    18    20   am
    20    20    21    1
    21    21    22    1
    22    22    23    1
    23    23    24   am
    24    24    25    2
    25    24    26    1
    26    26    27    1
    27    27    28    1
    28    27    29    1
    29    29    30    1
    30    30    31   ar
    31    31    32   ar
    32    32    33    1
    33    32    34   ar
    34    34    35    1
    35    34    36   ar
    36    36    37   ar
    37    37    38    1
    38    22    39    1
    39    39    40    1
    40    40    41    1
    41    41    42    2
    42    41    43    1
    43    14     9   ar
    44    40    20    1
    45    37    30   ar
    46     1    44    1
    47     1    45    1
    48     1    46    1
    49     2    47    1
    50     2    48    1
    51     3    49    1
    52     3    50    1
    53     4    51    1
    54     5    52    1
    55     6    53    1
    56     7    54    1
    57     7    55    1
    58     8    56    1
    59     8    57    1
    60    10    58    1
    61    11    59    1
    62    12    60    1
    63    13    61    1
    64    14    62    1
    65    17    63    1
    66    21    64    1
    67    21    65    1
    68    22    66    1
    69    23    67    1
    70    26    68    1
    71    26    69    1
    72    27    70    1
    73    28    71    1
    74    28    72    1
    75    29    73    1
    76    29    74    1
    77    31    75    1
    78    36    76    1
    79    39    77    1
    80    39    78    1
    81    40    79    1
    82    43    80    1
