@<TRIPOS>MOLECULE
*****
 52 55 0 0 0
SMALL
GASTEIGER

@<TRIPOS>ATOM
      1 O           7.7518   -0.8276    1.5791 O.3     1  UNL1       -0.3927
      2 C           6.8220   -0.4328    0.6072 C.3     1  UNL1        0.0676
      3 C           5.4770   -0.9862    0.9974 C.3     1  UNL1        0.0708
      4 O           4.5068   -0.6381    0.0758 O.3     1  UNL1       -0.3763
      5 C           4.3364    0.7215   -0.0914 C.3     1  UNL1        0.0605
      6 C           3.2366    1.0619   -1.0802 C.3     1  UNL1        0.0226
      7 N           1.9462    0.5906   -0.7295 N.3     1  UNL1       -0.2931
      8 C           1.7303   -0.8150   -0.7527 C.3     1  UNL1        0.0352
      9 C           0.3065   -1.2397   -0.6673 C.3     1  UNL1        0.0933
     10 N          -0.5900   -0.1303   -0.3570 N.pl3   1  UNL1       -0.2176
     11 C          -0.2166    1.2654   -0.0698 C.3     1  UNL1        0.0933
     12 C           1.2741    1.2989    0.3122 C.3     1  UNL1        0.0352
     13 C          -2.0089   -0.1785   -0.2609 C.2     1  UNL1        0.3223
     14 N          -2.3123   -0.2487    0.9774 N.2     1  UNL1       -0.0404
     15 C          -3.5109   -0.3200    1.6880 C.ar    1  UNL1        0.1900
     16 C          -3.3957   -0.2552    3.0835 C.ar    1  UNL1       -0.0097
     17 C          -4.4571   -0.3031    3.9582 C.ar    1  UNL1       -0.0576
     18 C          -5.7257   -0.4218    3.4778 C.ar    1  UNL1       -0.0604
     19 C          -5.8713   -0.4886    2.0931 C.ar    1  UNL1       -0.0438
     20 C          -4.7838   -0.4379    1.2354 C.ar    1  UNL1        0.0634
     21 S          -5.4735   -0.5613   -0.3931 S.3     1  UNL1       -0.0843
     22 C          -4.2022   -0.2840   -1.5801 C.ar    1  UNL1        0.0277
     23 C          -4.7970   -0.2170   -2.8151 C.ar    1  UNL1       -0.0472
     24 C          -4.0614   -0.0027   -3.9723 C.ar    1  UNL1       -0.0607
     25 C          -2.6838    0.1389   -3.7880 C.ar    1  UNL1       -0.0609
     26 C          -2.0983    0.0682   -2.5295 C.ar    1  UNL1       -0.0458
     27 C          -2.8664   -0.1470   -1.4019 C.ar    1  UNL1        0.0793
     28 H           7.8882   -0.1550    2.2850 H       1  UNL1        0.2095
     29 H           6.8187    0.6821    0.6170 H       1  UNL1        0.0580
     30 H           7.1366   -0.8428   -0.3540 H       1  UNL1        0.0580
     31 H           5.5750   -2.0905    1.0334 H       1  UNL1        0.0583
     32 H           5.1718   -0.6278    2.0053 H       1  UNL1        0.0583
     33 H           4.2382    1.2947    0.8369 H       1  UNL1        0.0572
     34 H           5.2803    1.1086   -0.5827 H       1  UNL1        0.0572
     35 H           3.5119    0.6041   -2.0565 H       1  UNL1        0.0449
     36 H           3.2090    2.1588   -1.2018 H       1  UNL1        0.0449
     37 H           2.1287   -1.1764   -1.7473 H       1  UNL1        0.0463
     38 H           2.3076   -1.3673    0.0207 H       1  UNL1        0.0463
     39 H          -0.0309   -1.7732   -1.5918 H       1  UNL1        0.0739
     40 H           0.1680   -1.9720    0.1789 H       1  UNL1        0.0739
     41 H          -0.4216    1.9261   -0.9192 H       1  UNL1        0.0739
     42 H          -0.7295    1.6698    0.8197 H       1  UNL1        0.0739
     43 H           1.3672    0.8182    1.3155 H       1  UNL1        0.0463
     44 H           1.5961    2.3492    0.2992 H       1  UNL1        0.0463
     45 H          -2.3714   -0.1590    3.4730 H       1  UNL1        0.0661
     46 H          -4.1975   -0.2412    5.0241 H       1  UNL1        0.0619
     47 H          -6.5026   -0.4533    4.2036 H       1  UNL1        0.0618
     48 H          -6.9218   -0.5832    1.7752 H       1  UNL1        0.0630
     49 H          -5.8688   -0.3253   -2.9636 H       1  UNL1        0.0629
     50 H          -4.5375    0.0479   -4.9342 H       1  UNL1        0.0618
     51 H          -2.1074    0.3043   -4.6689 H       1  UNL1        0.0618
     52 H          -1.0412    0.1887   -2.4638 H       1  UNL1        0.0626
@<TRIPOS>BOND
     1     1     2    1
     2     2     3    1
     3     3     4    1
     4     4     5    1
     5     5     6    1
     6     6     7    1
     7     7     8    1
     8     8     9    1
     9     9    10    1
    10    10    11    1
    11    11    12    1
    12    10    13    1
    13    13    14    2
    14    14    15    1
    15    15    16   ar
    16    16    17   ar
    17    17    18   ar
    18    18    19   ar
    19    19    20   ar
    20    20    21    1
    21    21    22    1
    22    22    23   ar
    23    23    24   ar
    24    24    25   ar
    25    25    26   ar
    26    26    27   ar
    27    12     7    1
    28    27    13    1
    29    20    15   ar
    30    27    22   ar
    31     1    28    1
    32     2    29    1
    33     2    30    1
    34     3    31    1
    35     3    32    1
    36     5    33    1
    37     5    34    1
    38     6    35    1
    39     6    36    1
    40     8    37    1
    41     8    38    1
    42     9    39    1
    43     9    40    1
    44    11    41    1
    45    11    42    1
    46    12    43    1
    47    12    44    1
    48    16    45    1
    49    17    46    1
    50    18    47    1
    51    19    48    1
    52    23    49    1
    53    24    50    1
    54    25    51    1
    55    26    52    1
