
     RDKit          3D

 61 64  0  0  0  0  0  0  0  0999 V2000
    4.6920   -4.9030   -0.1226 C   0  0  0  0  0  0  0  0  0  0  0  0
    3.8769   -3.7511   -0.1116 O   0  0  0  0  0  0  0  0  0  0  0  0
    4.4458   -2.4701    0.1044 C   0  0  0  0  0  0  0  0  0  0  0  0
    5.7993   -2.3484    0.3040 C   0  0  0  0  0  0  0  0  0  0  0  0
    6.3810   -1.1251    0.5157 C   0  0  0  0  0  0  0  0  0  0  0  0
    5.5800    0.0347    0.5299 C   0  0  0  0  0  0  0  0  0  0  0  0
    6.2720    1.2316    0.7623 N   0  0  0  0  0  0  0  0  0  0  0  0
    5.7538    2.3876    1.8979 S   0  0  0  0  0  6  0  0  0  0  0  0
    4.1733    3.0279    1.4733 C   0  0  0  0  0  0  0  0  0  0  0  0
    6.7776    3.5154    2.0052 O   0  0  0  0  0  0  0  0  0  0  0  0
    5.6737    1.6945    3.2500 O   0  0  0  0  0  0  0  0  0  0  0  0
    4.2298   -0.1160    0.3273 C   0  0  0  0  0  0  0  0  0  0  0  0
    3.6608   -1.3510    0.1163 C   0  0  0  0  0  0  0  0  0  0  0  0
    2.2064   -1.4936   -0.0998 C   0  0  0  0  0  0  0  0  0  0  0  0
    1.3106   -0.8236    0.7049 C   0  0  0  0  0  0  0  0  0  0  0  0
   -0.0594   -0.9318    0.5331 C   0  0  0  0  0  0  0  0  0  0  0  0
   -0.5782   -1.7322   -0.4722 C   0  0  0  0  0  0  0  0  0  0  0  0
   -2.0240   -1.8885   -0.7051 C   0  0  0  0  0  0  0  0  0  0  0  0
   -2.9921   -1.8470    0.4175 C   0  0  0  0  0  0  0  0  0  0  0  0
   -2.8464   -0.6210   -0.4587 C   0  0  0  0  0  0  0  0  0  0  0  0
   -3.8310   -0.3787   -1.4886 N   0  0  0  0  0  0  0  0  0  0  0  0
   -4.6069    0.8141   -1.2493 C   0  0  1  0  0  0  0  0  0  0  0  0
   -5.3508    0.6969    0.0716 C   0  0  0  0  0  0  0  0  0  0  0  0
   -5.1759    1.9558    0.8562 C   0  0  0  0  0  0  0  0  0  0  0  0
   -5.5612    3.1486    0.0294 C   0  0  2  0  0  0  0  0  0  0  0  0
   -6.9818    3.0080   -0.2901 N   0  0  0  0  0  0  0  0  0  0  0  0
   -4.8091    3.2376   -1.2626 C   0  0  0  0  0  0  0  0  0  0  0  0
   -3.8161    2.0782   -1.3478 C   0  0  0  0  0  0  0  0  0  0  0  0
    0.3179   -2.4021   -1.2768 C   0  0  0  0  0  0  0  0  0  0  0  0
    1.7010   -2.2916   -1.1016 C   0  0  0  0  0  0  0  0  0  0  0  0
    5.5947   -4.7878   -0.7656 H   0  0  0  0  0  0  0  0  0  0  0  0
    4.0679   -5.7602   -0.4318 H   0  0  0  0  0  0  0  0  0  0  0  0
    5.0812   -5.0599    0.9197 H   0  0  0  0  0  0  0  0  0  0  0  0
    6.4244   -3.2571    0.2927 H   0  0  0  0  0  0  0  0  0  0  0  0
    7.4474   -1.0547    0.6703 H   0  0  0  0  0  0  0  0  0  0  0  0
    7.1556    1.4215    0.2043 H   0  0  0  0  0  0  0  0  0  0  0  0
    3.3858    2.4311    1.9581 H   0  0  0  0  0  0  0  0  0  0  0  0
    3.9798    3.0689    0.3875 H   0  0  0  0  0  0  0  0  0  0  0  0
    4.1287    4.1008    1.8046 H   0  0  0  0  0  0  0  0  0  0  0  0
    3.5879    0.7661    0.3267 H   0  0  0  0  0  0  0  0  0  0  0  0
    1.7076   -0.1954    1.4935 H   0  0  0  0  0  0  0  0  0  0  0  0
   -0.7681   -0.4113    1.1581 H   0  0  0  0  0  0  0  0  0  0  0  0
   -2.3034   -2.5429   -1.5350 H   0  0  0  0  0  0  0  0  0  0  0  0
   -2.6327   -1.7927    1.4788 H   0  0  0  0  0  0  0  0  0  0  0  0
   -3.9344   -2.4228    0.3332 H   0  0  0  0  0  0  0  0  0  0  0  0
   -2.3533    0.2173    0.0418 H   0  0  0  0  0  0  0  0  0  0  0  0
   -4.5063   -1.1657   -1.5816 H   0  0  0  0  0  0  0  0  0  0  0  0
   -5.3883    0.8478   -2.0454 H   0  0  0  0  0  0  0  0  0  0  0  0
   -6.4261    0.4483   -0.0854 H   0  0  0  0  0  0  0  0  0  0  0  0
   -4.9282   -0.1755    0.6246 H   0  0  0  0  0  0  0  0  0  0  0  0
   -5.8299    1.9585    1.7567 H   0  0  0  0  0  0  0  0  0  0  0  0
   -4.1379    2.0013    1.2368 H   0  0  0  0  0  0  0  0  0  0  0  0
   -5.3821    4.0539    0.6601 H   0  0  0  0  0  0  0  0  0  0  0  0
   -7.1325    2.8330   -1.3084 H   0  0  0  0  0  0  0  0  0  0  0  0
   -7.4194    2.2040    0.2132 H   0  0  0  0  0  0  0  0  0  0  0  0
   -4.1662    4.1629   -1.2362 H   0  0  0  0  0  0  0  0  0  0  0  0
   -5.4333    3.3253   -2.1504 H   0  0  0  0  0  0  0  0  0  0  0  0
   -3.2741    2.0789   -2.2959 H   0  0  0  0  0  0  0  0  0  0  0  0
   -3.1080    2.2294   -0.5114 H   0  0  0  0  0  0  0  0  0  0  0  0
   -0.0342   -3.0479   -2.0863 H   0  0  0  0  0  0  0  0  0  0  0  0
    2.3781   -2.8309   -1.7509 H   0  0  0  0  0  0  0  0  0  0  0  0
  1  2  1  0
  2  3  1  0
  3  4  2  0
  4  5  1  0
  5  6  2  0
  6  7  1  0
  7  8  1  0
  8  9  1  0
  8 10  2  0
  8 11  2  0
  6 12  1  0
 12 13  2  0
 13 14  1  0
 14 15  2  0
 15 16  1  0
 16 17  2  0
 17 18  1  0
 18 19  1  0
 19 20  1  0
 20 21  1  0
 21 22  1  0
 22 23  1  0
 23 24  1  0
 24 25  1  0
 25 26  1  0
 25 27  1  0
 27 28  1  0
 17 29  1  0
 29 30  2  0
 13  3  1  0
 30 14  1  0
 20 18  1  0
 28 22  1  0
  1 31  1  0
  1 32  1  0
  1 33  1  0
  4 34  1  0
  5 35  1  0
  7 36  1  0
  9 37  1  0
  9 38  1  0
  9 39  1  0
 12 40  1  0
 15 41  1  0
 16 42  1  0
 18 43  1  0
 19 44  1  0
 19 45  1  0
 20 46  1  0
 21 47  1  0
 22 48  1  6
 23 49  1  0
 23 50  1  0
 24 51  1  0
 24 52  1  0
 25 53  1  1
 26 54  1  0
 26 55  1  0
 27 56  1  0
 27 57  1  0
 28 58  1  0
 28 59  1  0
 29 60  1  0
 30 61  1  0
M  END
$$$$
