@<TRIPOS>MOLECULE
*****
 61 64 0 0 0
SMALL
GASTEIGER

@<TRIPOS>ATOM
      1 C           4.6920   -4.9030   -0.1226 C.3     1  UNL1        0.0788
      2 O           3.8769   -3.7511   -0.1116 O.3     1  UNL1       -0.4945
      3 C           4.4458   -2.4701    0.1044 C.ar    1  UNL1        0.1279
      4 C           5.7993   -2.3484    0.3040 C.ar    1  UNL1       -0.0176
      5 C           6.3810   -1.1251    0.5157 C.ar    1  UNL1       -0.0358
      6 C           5.5800    0.0347    0.5299 C.ar    1  UNL1        0.0485
      7 N           6.2720    1.2316    0.7623 N.pl3   1  UNL1       -0.2209
      8 S           5.7538    2.3876    1.8979 S.O2    1  UNL1        0.0403
      9 C           4.1733    3.0279    1.4733 C.3     1  UNL1        0.0736
     10 O           6.7776    3.5154    2.0052 O.2     1  UNL1       -0.1555
     11 O           5.6737    1.6945    3.2500 O.2     1  UNL1       -0.1555
     12 C           4.2298   -0.1160    0.3273 C.ar    1  UNL1       -0.0281
     13 C           3.6608   -1.3510    0.1163 C.ar    1  UNL1        0.0256
     14 C           2.2064   -1.4936   -0.0998 C.ar    1  UNL1       -0.0143
     15 C           1.3106   -0.8236    0.7049 C.ar    1  UNL1       -0.0536
     16 C          -0.0594   -0.9318    0.5331 C.ar    1  UNL1       -0.0577
     17 C          -0.5782   -1.7322   -0.4722 C.ar    1  UNL1       -0.0427
     18 C          -2.0240   -1.8885   -0.7051 C.3     1  UNL1        0.0010
     19 C          -2.9921   -1.8470    0.4175 C.3     1  UNL1       -0.0287
     20 C          -2.8464   -0.6210   -0.4587 C.3     1  UNL1        0.0153
     21 N          -3.8310   -0.3787   -1.4886 N.3     1  UNL1       -0.3099
     22 C          -4.6069    0.8141   -1.2493 C.3     1  UNL1        0.0080
     23 C          -5.3508    0.6969    0.0716 C.3     1  UNL1       -0.0361
     24 C          -5.1759    1.9558    0.8562 C.3     1  UNL1       -0.0363
     25 C          -5.5612    3.1486    0.0294 C.3     1  UNL1        0.0049
     26 N          -6.9818    3.0080   -0.2901 N.3     1  UNL1       -0.3272
     27 C          -4.8091    3.2376   -1.2626 C.3     1  UNL1       -0.0363
     28 C          -3.8161    2.0782   -1.3478 C.3     1  UNL1       -0.0361
     29 C           0.3179   -2.4021   -1.2768 C.ar    1  UNL1       -0.0577
     30 C           1.7010   -2.2916   -1.1016 C.ar    1  UNL1       -0.0536
     31 H           5.5947   -4.7878   -0.7656 H       1  UNL1        0.0660
     32 H           4.0679   -5.7602   -0.4318 H       1  UNL1        0.0660
     33 H           5.0812   -5.0599    0.9197 H       1  UNL1        0.0660
     34 H           6.4244   -3.2571    0.2927 H       1  UNL1        0.0655
     35 H           7.4474   -1.0547    0.6703 H       1  UNL1        0.0638
     36 H           7.1556    1.4215    0.2043 H       1  UNL1        0.1733
     37 H           3.3858    2.4311    1.9581 H       1  UNL1        0.0482
     38 H           3.9798    3.0689    0.3875 H       1  UNL1        0.0482
     39 H           4.1287    4.1008    1.8046 H       1  UNL1        0.0482
     40 H           3.5879    0.7661    0.3267 H       1  UNL1        0.0644
     41 H           1.7076   -0.1954    1.4935 H       1  UNL1        0.0624
     42 H          -0.7681   -0.4113    1.1581 H       1  UNL1        0.0621
     43 H          -2.3034   -2.5429   -1.5350 H       1  UNL1        0.0364
     44 H          -2.6327   -1.7927    1.4788 H       1  UNL1        0.0287
     45 H          -3.9344   -2.4228    0.3332 H       1  UNL1        0.0287
     46 H          -2.3533    0.2173    0.0418 H       1  UNL1        0.0466
     47 H          -4.5063   -1.1657   -1.5816 H       1  UNL1        0.1225
     48 H          -5.3883    0.8478   -2.0454 H       1  UNL1        0.0460
     49 H          -6.4261    0.4483   -0.0854 H       1  UNL1        0.0281
     50 H          -4.9282   -0.1755    0.6246 H       1  UNL1        0.0281
     51 H          -5.8299    1.9585    1.7567 H       1  UNL1        0.0281
     52 H          -4.1379    2.0013    1.2368 H       1  UNL1        0.0281
     53 H          -5.3821    4.0539    0.6601 H       1  UNL1        0.0458
     54 H          -7.1325    2.8330   -1.3084 H       1  UNL1        0.1185
     55 H          -7.4194    2.2040    0.2132 H       1  UNL1        0.1185
     56 H          -4.1662    4.1629   -1.2362 H       1  UNL1        0.0281
     57 H          -5.4333    3.3253   -2.1504 H       1  UNL1        0.0281
     58 H          -3.2741    2.0789   -2.2959 H       1  UNL1        0.0281
     59 H          -3.1080    2.2294   -0.5114 H       1  UNL1        0.0281
     60 H          -0.0342   -3.0479   -2.0863 H       1  UNL1        0.0621
     61 H           2.3781   -2.8309   -1.7509 H       1  UNL1        0.0624
@<TRIPOS>BOND
     1     1     2    1
     2     2     3    1
     3     3     4   ar
     4     4     5   ar
     5     5     6   ar
     6     6     7    1
     7     7     8    1
     8     8     9    1
     9     8    10    2
    10     8    11    2
    11     6    12   ar
    12    12    13   ar
    13    13    14    1
    14    14    15   ar
    15    15    16   ar
    16    16    17   ar
    17    17    18    1
    18    18    19    1
    19    19    20    1
    20    20    21    1
    21    21    22    1
    22    22    23    1
    23    23    24    1
    24    24    25    1
    25    25    26    1
    26    25    27    1
    27    27    28    1
    28    17    29   ar
    29    29    30   ar
    30    13     3   ar
    31    30    14   ar
    32    20    18    1
    33    28    22    1
    34     1    31    1
    35     1    32    1
    36     1    33    1
    37     4    34    1
    38     5    35    1
    39     7    36    1
    40     9    37    1
    41     9    38    1
    42     9    39    1
    43    12    40    1
    44    15    41    1
    45    16    42    1
    46    18    43    1
    47    19    44    1
    48    19    45    1
    49    20    46    1
    50    21    47    1
    51    22    48    1
    52    23    49    1
    53    23    50    1
    54    24    51    1
    55    24    52    1
    56    25    53    1
    57    26    54    1
    58    26    55    1
    59    27    56    1
    60    27    57    1
    61    28    58    1
    62    28    59    1
    63    29    60    1
    64    30    61    1
