
     RDKit          3D

 68 72  0  0  0  0  0  0  0  0999 V2000
   -9.1694    0.2361   -4.5890 C   0  0  0  0  0  0  0  0  0  0  0  0
   -7.7988   -0.1305   -4.7322 O   0  0  0  0  0  0  0  0  0  0  0  0
   -6.9334   -0.0182   -3.6492 C   0  0  0  0  0  0  0  0  0  0  0  0
   -7.3213    0.4379   -2.4101 C   0  0  0  0  0  0  0  0  0  0  0  0
   -6.4785    0.5521   -1.3370 C   0  0  0  0  0  0  0  0  0  0  0  0
   -5.1483    0.1862   -1.5062 C   0  0  0  0  0  0  0  0  0  0  0  0
   -4.2526    0.2723   -0.4963 C   0  0  0  0  0  0  0  0  0  0  0  0
   -2.9149   -0.0951   -0.6727 C   0  0  0  0  0  0  0  0  0  0  0  0
   -1.9977    0.0042    0.4552 C   0  0  0  0  0  0  0  0  0  0  0  0
   -2.1936   -0.4997    1.7364 C   0  0  0  0  0  0  0  0  0  0  0  0
   -1.1107   -0.1794    2.5258 C   0  0  0  0  0  0  0  0  0  0  0  0
   -0.8386   -0.4801    3.9261 C   0  0  0  0  0  0  0  0  0  0  0  0
   -1.7407   -1.1927    4.6863 C   0  0  0  0  0  0  0  0  0  0  0  0
   -1.5121   -1.4934    6.0123 C   0  0  0  0  0  0  0  0  0  0  0  0
   -2.6621   -2.3949    6.9572 Cl  0  0  0  0  0  0  0  0  0  0  0  0
   -0.3382   -1.0766    6.6312 C   0  0  0  0  0  0  0  0  0  0  0  0
    0.5819   -0.3634    5.8971 C   0  0  0  0  0  0  0  0  0  0  0  0
    2.0704    0.1735    6.6532 Cl  0  0  0  0  0  0  0  0  0  0  0  0
    0.3204   -0.0736    4.5522 C   0  0  0  0  0  0  0  0  0  0  0  0
   -0.2924    0.4981    1.7350 N   0  0  0  0  0  0  0  0  0  0  0  0
   -0.8061    0.6178    0.4945 N   0  0  0  0  0  0  0  0  0  0  0  0
   -0.0738    1.3407   -0.5145 C   0  0  1  0  0  0  0  0  0  0  0  0
   -0.1918    2.8468   -0.3060 C   0  0  0  0  0  0  0  0  0  0  0  0
    1.3805    1.0036   -0.3425 C   0  0  0  0  0  0  0  0  0  0  0  0
    1.9037   -0.1178   -0.9471 C   0  0  0  0  0  0  0  0  0  0  0  0
    3.2401   -0.4938   -0.8357 C   0  0  0  0  0  0  0  0  0  0  0  0
    4.0892    0.2761   -0.0944 C   0  0  0  0  0  0  0  0  0  0  0  0
    5.4929   -0.0497    0.0633 C   0  0  0  0  0  0  0  0  0  0  0  0
    6.2086    0.7118    0.7621 O   0  0  0  0  0  0  0  0  0  0  0  0
    6.0835   -1.1797   -0.5331 N   0  0  0  0  0  0  0  0  0  0  0  0
    7.4856   -1.4859   -0.3680 C   0  0  0  0  0  0  0  0  0  0  0  0
    8.3432   -0.3809   -0.9051 C   0  0  0  0  0  0  0  0  0  0  0  0
    9.7958   -0.7246   -0.7232 C   0  0  0  0  0  0  0  0  0  0  0  0
   10.1223   -1.8110   -0.1823 O   0  0  0  0  0  0  0  0  0  0  0  0
   10.7682    0.1716   -1.1602 O   0  0  0  0  0  0  0  0  0  0  0  0
    3.5494    1.4189    0.5198 C   0  0  0  0  0  0  0  0  0  0  0  0
    2.2269    1.7732    0.3983 C   0  0  0  0  0  0  0  0  0  0  0  0
   -2.4848   -0.5564   -1.8903 C   0  0  0  0  0  0  0  0  0  0  0  0
   -3.3987   -0.6431   -2.9193 C   0  0  0  0  0  0  0  0  0  0  0  0
   -4.7156   -0.2760   -2.7306 C   0  0  0  0  0  0  0  0  0  0  0  0
   -5.6100   -0.3749   -3.7923 C   0  0  0  0  0  0  0  0  0  0  0  0
   -9.6749   -0.5053   -3.9365 H   0  0  0  0  0  0  0  0  0  0  0  0
   -9.6725    0.2349   -5.5776 H   0  0  0  0  0  0  0  0  0  0  0  0
   -9.2553    1.2198   -4.0750 H   0  0  0  0  0  0  0  0  0  0  0  0
   -8.3646    0.7185   -2.2993 H   0  0  0  0  0  0  0  0  0  0  0  0
   -6.7594    0.9014   -0.3668 H   0  0  0  0  0  0  0  0  0  0  0  0
   -4.5975    0.6408    0.4802 H   0  0  0  0  0  0  0  0  0  0  0  0
   -3.0621   -1.0596    2.0697 H   0  0  0  0  0  0  0  0  0  0  0  0
   -2.6606   -1.5146    4.1861 H   0  0  0  0  0  0  0  0  0  0  0  0
   -0.1107   -1.2847    7.6612 H   0  0  0  0  0  0  0  0  0  0  0  0
    1.0510    0.4875    3.9850 H   0  0  0  0  0  0  0  0  0  0  0  0
   -0.3153    1.1047   -1.5406 H   0  0  0  0  0  0  0  0  0  0  0  0
   -1.1047    3.2516   -0.7488 H   0  0  0  0  0  0  0  0  0  0  0  0
    0.6858    3.3038   -0.8016 H   0  0  0  0  0  0  0  0  0  0  0  0
   -0.1866    3.0808    0.7797 H   0  0  0  0  0  0  0  0  0  0  0  0
    1.2825   -0.7841   -1.5578 H   0  0  0  0  0  0  0  0  0  0  0  0
    3.5751   -1.4082   -1.3528 H   0  0  0  0  0  0  0  0  0  0  0  0
    5.5081   -1.8338   -1.1207 H   0  0  0  0  0  0  0  0  0  0  0  0
    7.7623   -2.4206   -0.9256 H   0  0  0  0  0  0  0  0  0  0  0  0
    7.7587   -1.6854    0.6909 H   0  0  0  0  0  0  0  0  0  0  0  0
    8.1526    0.5965   -0.4605 H   0  0  0  0  0  0  0  0  0  0  0  0
    8.2213   -0.2785   -2.0174 H   0  0  0  0  0  0  0  0  0  0  0  0
   11.7234    0.1389   -0.8081 H   0  0  0  0  0  0  0  0  0  0  0  0
    4.2164    2.0517    1.1211 H   0  0  0  0  0  0  0  0  0  0  0  0
    1.8328    2.6599    0.8827 H   0  0  0  0  0  0  0  0  0  0  0  0
   -1.4351   -0.8625   -2.0385 H   0  0  0  0  0  0  0  0  0  0  0  0
   -3.0426   -1.0093   -3.8737 H   0  0  0  0  0  0  0  0  0  0  0  0
   -5.2063   -0.7457   -4.7238 H   0  0  0  0  0  0  0  0  0  0  0  0
  1  2  1  0
  2  3  1  0
  3  4  2  0
  4  5  1  0
  5  6  2  0
  6  7  1  0
  7  8  2  0
  8  9  1  0
  9 10  2  0
 10 11  1  0
 11 12  1  0
 12 13  2  0
 13 14  1  0
 14 15  1  0
 14 16  2  0
 16 17  1  0
 17 18  1  0
 17 19  2  0
 11 20  2  0
 20 21  1  0
 21 22  1  0
 22 23  1  0
 22 24  1  0
 24 25  2  0
 25 26  1  0
 26 27  2  0
 27 28  1  0
 28 29  2  0
 28 30  1  0
 30 31  1  0
 31 32  1  0
 32 33  1  0
 33 34  2  0
 33 35  1  0
 27 36  1  0
 36 37  2  0
  8 38  1  0
 38 39  2  0
 39 40  1  0
 40 41  2  0
 41  3  1  0
 40  6  1  0
 21  9  1  0
 37 24  1  0
 19 12  1  0
  1 42  1  0
  1 43  1  0
  1 44  1  0
  4 45  1  0
  5 46  1  0
  7 47  1  0
 10 48  1  0
 13 49  1  0
 16 50  1  0
 19 51  1  0
 22 52  1  6
 23 53  1  0
 23 54  1  0
 23 55  1  0
 25 56  1  0
 26 57  1  0
 30 58  1  0
 31 59  1  0
 31 60  1  0
 32 61  1  0
 32 62  1  0
 35 63  1  0
 36 64  1  0
 37 65  1  0
 38 66  1  0
 39 67  1  0
 41 68  1  0
M  END
$$$$
