@<TRIPOS>MOLECULE
*****
 68 72 0 0 0
SMALL
GASTEIGER

@<TRIPOS>ATOM
      1 C          -9.1694    0.2361   -4.5890 C.3     1  UNL1        0.0788
      2 O          -7.7988   -0.1305   -4.7322 O.3     1  UNL1       -0.4951
      3 C          -6.9334   -0.0182   -3.6492 C.ar    1  UNL1        0.1207
      4 C          -7.3213    0.4379   -2.4101 C.ar    1  UNL1       -0.0194
      5 C          -6.4785    0.5521   -1.3370 C.ar    1  UNL1       -0.0506
      6 C          -5.1483    0.1862   -1.5062 C.ar    1  UNL1       -0.0170
      7 C          -4.2526    0.2723   -0.4963 C.ar    1  UNL1       -0.0448
      8 C          -2.9149   -0.0951   -0.6727 C.ar    1  UNL1        0.0007
      9 C          -1.9977    0.0042    0.4552 C.ar    1  UNL1        0.0702
     10 C          -2.1936   -0.4997    1.7364 C.ar    1  UNL1       -0.0084
     11 C          -1.1107   -0.1794    2.5258 C.ar    1  UNL1        0.0934
     12 C          -0.8386   -0.4801    3.9261 C.ar    1  UNL1        0.0049
     13 C          -1.7407   -1.1927    4.6863 C.ar    1  UNL1       -0.0341
     14 C          -1.5121   -1.4934    6.0123 C.ar    1  UNL1        0.0430
     15 CL         -2.6621   -2.3949    6.9572 Cl      1  UNL1       -0.0835
     16 C          -0.3382   -1.0766    6.6312 C.ar    1  UNL1       -0.0250
     17 C           0.5819   -0.3634    5.8971 C.ar    1  UNL1        0.0430
     18 CL          2.0704    0.1735    6.6532 Cl      1  UNL1       -0.0835
     19 C           0.3204   -0.0736    4.5522 C.ar    1  UNL1       -0.0341
     20 N          -0.2924    0.4981    1.7350 N.ar    1  UNL1       -0.1701
     21 N          -0.8061    0.6178    0.4945 N.ar    1  UNL1       -0.2560
     22 C          -0.0738    1.3407   -0.5145 C.3     1  UNL1        0.0754
     23 C          -0.1918    2.8468   -0.3060 C.3     1  UNL1       -0.0384
     24 C           1.3805    1.0036   -0.3425 C.ar    1  UNL1       -0.0233
     25 C           1.9037   -0.1178   -0.9471 C.ar    1  UNL1       -0.0558
     26 C           3.2401   -0.4938   -0.8357 C.ar    1  UNL1       -0.0493
     27 C           4.0892    0.2761   -0.0944 C.ar    1  UNL1        0.0367
     28 C           5.4929   -0.0497    0.0633 C.2     1  UNL1        0.2441
     29 O           6.2086    0.7118    0.7621 O.2     1  UNL1       -0.2702
     30 N           6.0835   -1.1797   -0.5331 N.am    1  UNL1       -0.3108
     31 C           7.4856   -1.4859   -0.3680 C.3     1  UNL1        0.0220
     32 C           8.3432   -0.3809   -0.9051 C.3     1  UNL1        0.0603
     33 C           9.7958   -0.7246   -0.7232 C.2     1  UNL1        0.3062
     34 O          10.1223   -1.8110   -0.1823 O.2     1  UNL1       -0.2510
     35 O          10.7682    0.1716   -1.1602 O.3     1  UNL1       -0.4806
     36 C           3.5494    1.4189    0.5198 C.ar    1  UNL1       -0.0493
     37 C           2.2269    1.7732    0.3983 C.ar    1  UNL1       -0.0558
     38 C          -2.4848   -0.5564   -1.8903 C.ar    1  UNL1       -0.0520
     39 C          -3.3987   -0.6431   -2.9193 C.ar    1  UNL1       -0.0533
     40 C          -4.7156   -0.2760   -2.7306 C.ar    1  UNL1       -0.0144
     41 C          -5.6100   -0.3749   -3.7923 C.ar    1  UNL1       -0.0122
     42 H          -9.6749   -0.5053   -3.9365 H       1  UNL1        0.0660
     43 H          -9.6725    0.2349   -5.5776 H       1  UNL1        0.0660
     44 H          -9.2553    1.2198   -4.0750 H       1  UNL1        0.0660
     45 H          -8.3646    0.7185   -2.2993 H       1  UNL1        0.0654
     46 H          -6.7594    0.9014   -0.3668 H       1  UNL1        0.0625
     47 H          -4.5975    0.6408    0.4802 H       1  UNL1        0.0630
     48 H          -3.0621   -1.0596    2.0697 H       1  UNL1        0.0661
     49 H          -2.6606   -1.5146    4.1861 H       1  UNL1        0.0639
     50 H          -0.1107   -1.2847    7.6612 H       1  UNL1        0.0647
     51 H           1.0510    0.4875    3.9850 H       1  UNL1        0.0639
     52 H          -0.3153    1.1047   -1.5406 H       1  UNL1        0.0592
     53 H          -1.1047    3.2516   -0.7488 H       1  UNL1        0.0253
     54 H           0.6858    3.3038   -0.8016 H       1  UNL1        0.0253
     55 H          -0.1866    3.0808    0.7797 H       1  UNL1        0.0253
     56 H           1.2825   -0.7841   -1.5578 H       1  UNL1        0.0621
     57 H           3.5751   -1.4082   -1.3528 H       1  UNL1        0.0625
     58 H           5.5081   -1.8338   -1.1207 H       1  UNL1        0.1490
     59 H           7.7623   -2.4206   -0.9256 H       1  UNL1        0.0467
     60 H           7.7587   -1.6854    0.6909 H       1  UNL1        0.0467
     61 H           8.1526    0.5965   -0.4605 H       1  UNL1        0.0393
     62 H           8.2213   -0.2785   -2.0174 H       1  UNL1        0.0393
     63 H          11.7234    0.1389   -0.8081 H       1  UNL1        0.2951
     64 H           4.2164    2.0517    1.1211 H       1  UNL1        0.0625
     65 H           1.8328    2.6599    0.8827 H       1  UNL1        0.0621
     66 H          -1.4351   -0.8625   -2.0385 H       1  UNL1        0.0624
     67 H          -3.0426   -1.0093   -3.8737 H       1  UNL1        0.0624
     68 H          -5.2063   -0.7457   -4.7238 H       1  UNL1        0.0660
@<TRIPOS>BOND
     1     1     2    1
     2     2     3    1
     3     3     4   ar
     4     4     5   ar
     5     5     6   ar
     6     6     7   ar
     7     7     8   ar
     8     8     9    1
     9     9    10   ar
    10    10    11   ar
    11    11    12    1
    12    12    13   ar
    13    13    14   ar
    14    14    15    1
    15    14    16   ar
    16    16    17   ar
    17    17    18    1
    18    17    19   ar
    19    11    20   ar
    20    20    21   ar
    21    21    22    1
    22    22    23    1
    23    22    24    1
    24    24    25   ar
    25    25    26   ar
    26    26    27   ar
    27    27    28    1
    28    28    29    2
    29    28    30   am
    30    30    31    1
    31    31    32    1
    32    32    33    1
    33    33    34    2
    34    33    35    1
    35    27    36   ar
    36    36    37   ar
    37     8    38   ar
    38    38    39   ar
    39    39    40   ar
    40    40    41   ar
    41    41     3   ar
    42    40     6   ar
    43    21     9   ar
    44    37    24   ar
    45    19    12   ar
    46     1    42    1
    47     1    43    1
    48     1    44    1
    49     4    45    1
    50     5    46    1
    51     7    47    1
    52    10    48    1
    53    13    49    1
    54    16    50    1
    55    19    51    1
    56    22    52    1
    57    23    53    1
    58    23    54    1
    59    23    55    1
    60    25    56    1
    61    26    57    1
    62    30    58    1
    63    31    59    1
    64    31    60    1
    65    32    61    1
    66    32    62    1
    67    35    63    1
    68    36    64    1
    69    37    65    1
    70    38    66    1
    71    39    67    1
    72    41    68    1
