@<TRIPOS>MOLECULE
*****
 73 77 0 0 0
SMALL
GASTEIGER

@<TRIPOS>ATOM
      1 C          -3.9838    2.4201    2.8077 C.3     1  UNL1       -0.0634
      2 C          -4.8297    2.0538    1.5815 C.3     1  UNL1       -0.0317
      3 C          -4.4664    0.6748    1.1783 C.3     1  UNL1        0.0874
      4 C          -3.0405    0.6007    0.8292 C.2     1  UNL1        0.2345
      5 O          -2.2056    1.1590    1.6286 O.2     1  UNL1       -0.2737
      6 N          -2.4629   -0.0177   -0.2887 N.am    1  UNL1       -0.2825
      7 C          -1.0633   -0.0434   -0.5379 C.ar    1  UNL1        0.0576
      8 C          -0.4818    0.9957   -1.2255 C.ar    1  UNL1       -0.0384
      9 C           0.8949    1.0078   -1.4852 C.ar    1  UNL1       -0.0593
     10 C           1.6855   -0.0347   -1.0483 C.ar    1  UNL1       -0.0518
     11 C           1.0786   -1.0619   -0.3635 C.ar    1  UNL1        0.0107
     12 C           1.6334   -2.2247    0.1736 C.ar    1  UNL1        0.0258
     13 C           3.0607   -2.5650    0.1271 C.ar    1  UNL1        0.0809
     14 N           3.9797   -1.7260    0.6841 N.ar    1  UNL1       -0.2139
     15 C           5.3041   -2.0019    0.6440 C.ar    1  UNL1        0.2202
     16 N           6.2571   -1.1240    1.2411 N.pl3   1  UNL1       -0.2782
     17 C           6.8305   -0.0064    0.5873 C.ar    1  UNL1        0.1152
     18 C           6.6378    0.5038   -0.6774 C.ar    1  UNL1        0.0503
     19 N           7.4132    1.5874   -0.8406 N.ar    1  UNL1       -0.2692
     20 C           7.5285    2.4435   -2.0313 C.3     1  UNL1        0.0304
     21 N           8.0893    1.7826    0.2736 N.ar    1  UNL1       -0.1317
     22 C           7.7766    0.8449    1.1777 C.ar    1  UNL1        0.2552
     23 O           8.3018    0.7576    2.4431 O.3     1  UNL1       -0.4774
     24 C           9.2507    1.7017    2.8849 C.3     1  UNL1        0.0805
     25 N           5.6680   -3.1403    0.0296 N.ar    1  UNL1       -0.2224
     26 C           4.8110   -4.0059   -0.5369 C.ar    1  UNL1        0.0361
     27 C           3.4440   -3.7263   -0.4981 C.ar    1  UNL1       -0.0062
     28 C           2.4657   -4.6501   -1.1237 C.3     1  UNL1       -0.0362
     29 C           0.5763   -2.9006    0.7387 C.ar    1  UNL1        0.0120
     30 N          -0.5652   -2.1771    0.5512 N.ar    1  UNL1       -0.3586
     31 C          -0.2698   -1.0696   -0.1114 C.ar    1  UNL1        0.0686
     32 N          -5.2575    0.0712    0.1505 N.3     1  UNL1       -0.2891
     33 C          -6.6376   -0.1332    0.5703 C.3     1  UNL1        0.0124
     34 C          -7.5253   -0.4955   -0.5828 C.3     1  UNL1        0.0114
     35 N          -7.6893    0.6486   -1.4195 N.3     1  UNL1       -0.3029
     36 C          -8.9540    1.3010   -1.3293 C.3     1  UNL1       -0.0127
     37 C          -6.5621    1.5219   -1.3384 C.3     1  UNL1        0.0114
     38 C          -5.2616    0.7880   -1.1022 C.3     1  UNL1        0.0124
     39 H          -3.1441    3.0808    2.5644 H       1  UNL1        0.0230
     40 H          -3.6917    1.4962    3.3632 H       1  UNL1        0.0230
     41 H          -4.6110    2.9891    3.5536 H       1  UNL1        0.0230
     42 H          -5.8673    2.2269    1.8555 H       1  UNL1        0.0282
     43 H          -4.4816    2.7589    0.7687 H       1  UNL1        0.0282
     44 H          -4.5976    0.0304    2.0963 H       1  UNL1        0.0558
     45 H          -3.0845   -0.4903   -0.9743 H       1  UNL1        0.1549
     46 H          -1.0292    1.8544   -1.6054 H       1  UNL1        0.0637
     47 H           1.3622    1.8212   -2.0262 H       1  UNL1        0.0618
     48 H           2.7637   -0.0278   -1.2500 H       1  UNL1        0.0624
     49 H           6.5443   -1.3377    2.2408 H       1  UNL1        0.1552
     50 H           5.9546    0.0735   -1.4118 H       1  UNL1        0.0846
     51 H           8.4202    2.1654   -2.5972 H       1  UNL1        0.0473
     52 H           7.6921    3.5122   -1.7152 H       1  UNL1        0.0473
     53 H           6.6452    2.3341   -2.6940 H       1  UNL1        0.0473
     54 H          10.0189    1.9337    2.0925 H       1  UNL1        0.0660
     55 H           8.7818    2.6792    3.1381 H       1  UNL1        0.0660
     56 H           9.8528    1.3053    3.7532 H       1  UNL1        0.0660
     57 H           5.1013   -4.9205   -1.0303 H       1  UNL1        0.0834
     58 H           1.7990   -5.0956   -0.3883 H       1  UNL1        0.0279
     59 H           1.9580   -4.1832   -2.0009 H       1  UNL1        0.0279
     60 H           3.0394   -5.5125   -1.5795 H       1  UNL1        0.0279
     61 H           0.6272   -3.8462    1.2517 H       1  UNL1        0.0814
     62 H          -1.5289   -2.4439    0.8745 H       1  UNL1        0.1654
     63 H          -7.0345    0.7812    1.0471 H       1  UNL1        0.0439
     64 H          -6.6092   -0.9215    1.3633 H       1  UNL1        0.0439
     65 H          -8.4638   -0.9161   -0.1773 H       1  UNL1        0.0439
     66 H          -7.0482   -1.3021   -1.2140 H       1  UNL1        0.0439
     67 H          -9.3547    1.4365   -2.3762 H       1  UNL1        0.0391
     68 H          -9.6694    0.6207   -0.8222 H       1  UNL1        0.0391
     69 H          -8.9255    2.3138   -0.8893 H       1  UNL1        0.0391
     70 H          -6.7647    2.3287   -0.6398 H       1  UNL1        0.0439
     71 H          -6.4640    1.9912   -2.3629 H       1  UNL1        0.0439
     72 H          -5.1973    0.0318   -1.9106 H       1  UNL1        0.0439
     73 H          -4.4249    1.4727   -1.2070 H       1  UNL1        0.0439
@<TRIPOS>BOND
     1     1     2    1
     2     2     3    1
     3     3     4    1
     4     4     5    2
     5     4     6   am
     6     6     7    1
     7     7     8   ar
     8     8     9   ar
     9     9    10   ar
    10    10    11   ar
    11    11    12   ar
    12    12    13    1
    13    13    14   ar
    14    14    15   ar
    15    15    16    1
    16    16    17    1
    17    17    18   ar
    18    18    19   ar
    19    19    20    1
    20    19    21   ar
    21    21    22   ar
    22    22    23    1
    23    23    24    1
    24    15    25   ar
    25    25    26   ar
    26    26    27   ar
    27    27    28    1
    28    12    29   ar
    29    29    30   ar
    30    30    31   ar
    31     3    32    1
    32    32    33    1
    33    33    34    1
    34    34    35    1
    35    35    36    1
    36    35    37    1
    37    37    38    1
    38    31     7   ar
    39    38    32    1
    40    31    11   ar
    41    27    13   ar
    42    22    17   ar
    43     1    39    1
    44     1    40    1
    45     1    41    1
    46     2    42    1
    47     2    43    1
    48     3    44    1
    49     6    45    1
    50     8    46    1
    51     9    47    1
    52    10    48    1
    53    16    49    1
    54    18    50    1
    55    20    51    1
    56    20    52    1
    57    20    53    1
    58    24    54    1
    59    24    55    1
    60    24    56    1
    61    26    57    1
    62    28    58    1
    63    28    59    1
    64    28    60    1
    65    29    61    1
    66    30    62    1
    67    33    63    1
    68    33    64    1
    69    34    65    1
    70    34    66    1
    71    36    67    1
    72    36    68    1
    73    36    69    1
    74    37    70    1
    75    37    71    1
    76    38    72    1
    77    38    73    1
