
     RDKit          3D

 73 77  0  0  0  0  0  0  0  0999 V2000
   -3.9838    2.4201    2.8077 C   0  0  0  0  0  0  0  0  0  0  0  0
   -4.8297    2.0538    1.5815 C   0  0  0  0  0  0  0  0  0  0  0  0
   -4.4664    0.6748    1.1783 C   0  0  2  0  0  0  0  0  0  0  0  0
   -3.0405    0.6007    0.8292 C   0  0  0  0  0  0  0  0  0  0  0  0
   -2.2056    1.1590    1.6286 O   0  0  0  0  0  0  0  0  0  0  0  0
   -2.4629   -0.0177   -0.2887 N   0  0  0  0  0  0  0  0  0  0  0  0
   -1.0633   -0.0434   -0.5379 C   0  0  0  0  0  0  0  0  0  0  0  0
   -0.4818    0.9957   -1.2255 C   0  0  0  0  0  0  0  0  0  0  0  0
    0.8949    1.0078   -1.4852 C   0  0  0  0  0  0  0  0  0  0  0  0
    1.6855   -0.0347   -1.0483 C   0  0  0  0  0  0  0  0  0  0  0  0
    1.0786   -1.0619   -0.3635 C   0  0  0  0  0  0  0  0  0  0  0  0
    1.6334   -2.2247    0.1736 C   0  0  0  0  0  0  0  0  0  0  0  0
    3.0607   -2.5650    0.1271 C   0  0  0  0  0  0  0  0  0  0  0  0
    3.9797   -1.7260    0.6841 N   0  0  0  0  0  0  0  0  0  0  0  0
    5.3041   -2.0019    0.6440 C   0  0  0  0  0  0  0  0  0  0  0  0
    6.2571   -1.1240    1.2411 N   0  0  0  0  0  0  0  0  0  0  0  0
    6.8305   -0.0064    0.5873 C   0  0  0  0  0  0  0  0  0  0  0  0
    6.6378    0.5038   -0.6774 C   0  0  0  0  0  0  0  0  0  0  0  0
    7.4132    1.5874   -0.8406 N   0  0  0  0  0  0  0  0  0  0  0  0
    7.5285    2.4435   -2.0313 C   0  0  0  0  0  0  0  0  0  0  0  0
    8.0893    1.7826    0.2736 N   0  0  0  0  0  0  0  0  0  0  0  0
    7.7766    0.8449    1.1777 C   0  0  0  0  0  0  0  0  0  0  0  0
    8.3018    0.7576    2.4431 O   0  0  0  0  0  0  0  0  0  0  0  0
    9.2507    1.7017    2.8849 C   0  0  0  0  0  0  0  0  0  0  0  0
    5.6680   -3.1403    0.0296 N   0  0  0  0  0  0  0  0  0  0  0  0
    4.8110   -4.0059   -0.5369 C   0  0  0  0  0  0  0  0  0  0  0  0
    3.4440   -3.7263   -0.4981 C   0  0  0  0  0  0  0  0  0  0  0  0
    2.4657   -4.6501   -1.1237 C   0  0  0  0  0  0  0  0  0  0  0  0
    0.5763   -2.9006    0.7387 C   0  0  0  0  0  0  0  0  0  0  0  0
   -0.5652   -2.1771    0.5512 N   0  0  0  0  0  0  0  0  0  0  0  0
   -0.2698   -1.0696   -0.1114 C   0  0  0  0  0  0  0  0  0  0  0  0
   -5.2575    0.0712    0.1505 N   0  0  0  0  0  0  0  0  0  0  0  0
   -6.6376   -0.1332    0.5703 C   0  0  0  0  0  0  0  0  0  0  0  0
   -7.5253   -0.4955   -0.5828 C   0  0  0  0  0  0  0  0  0  0  0  0
   -7.6893    0.6486   -1.4195 N   0  0  0  0  0  0  0  0  0  0  0  0
   -8.9540    1.3010   -1.3293 C   0  0  0  0  0  0  0  0  0  0  0  0
   -6.5621    1.5219   -1.3384 C   0  0  0  0  0  0  0  0  0  0  0  0
   -5.2616    0.7880   -1.1022 C   0  0  0  0  0  0  0  0  0  0  0  0
   -3.1441    3.0808    2.5644 H   0  0  0  0  0  0  0  0  0  0  0  0
   -3.6917    1.4962    3.3632 H   0  0  0  0  0  0  0  0  0  0  0  0
   -4.6110    2.9891    3.5536 H   0  0  0  0  0  0  0  0  0  0  0  0
   -5.8673    2.2269    1.8555 H   0  0  0  0  0  0  0  0  0  0  0  0
   -4.4816    2.7589    0.7687 H   0  0  0  0  0  0  0  0  0  0  0  0
   -4.5976    0.0304    2.0963 H   0  0  0  0  0  0  0  0  0  0  0  0
   -3.0845   -0.4903   -0.9743 H   0  0  0  0  0  0  0  0  0  0  0  0
   -1.0292    1.8544   -1.6054 H   0  0  0  0  0  0  0  0  0  0  0  0
    1.3622    1.8212   -2.0262 H   0  0  0  0  0  0  0  0  0  0  0  0
    2.7637   -0.0278   -1.2500 H   0  0  0  0  0  0  0  0  0  0  0  0
    6.5443   -1.3377    2.2408 H   0  0  0  0  0  0  0  0  0  0  0  0
    5.9546    0.0735   -1.4118 H   0  0  0  0  0  0  0  0  0  0  0  0
    8.4202    2.1654   -2.5972 H   0  0  0  0  0  0  0  0  0  0  0  0
    7.6921    3.5122   -1.7152 H   0  0  0  0  0  0  0  0  0  0  0  0
    6.6452    2.3341   -2.6940 H   0  0  0  0  0  0  0  0  0  0  0  0
   10.0189    1.9337    2.0925 H   0  0  0  0  0  0  0  0  0  0  0  0
    8.7818    2.6792    3.1381 H   0  0  0  0  0  0  0  0  0  0  0  0
    9.8528    1.3053    3.7532 H   0  0  0  0  0  0  0  0  0  0  0  0
    5.1013   -4.9205   -1.0303 H   0  0  0  0  0  0  0  0  0  0  0  0
    1.7990   -5.0956   -0.3883 H   0  0  0  0  0  0  0  0  0  0  0  0
    1.9580   -4.1832   -2.0009 H   0  0  0  0  0  0  0  0  0  0  0  0
    3.0394   -5.5125   -1.5795 H   0  0  0  0  0  0  0  0  0  0  0  0
    0.6272   -3.8462    1.2517 H   0  0  0  0  0  0  0  0  0  0  0  0
   -1.5289   -2.4439    0.8745 H   0  0  0  0  0  0  0  0  0  0  0  0
   -7.0345    0.7812    1.0471 H   0  0  0  0  0  0  0  0  0  0  0  0
   -6.6092   -0.9215    1.3633 H   0  0  0  0  0  0  0  0  0  0  0  0
   -8.4638   -0.9161   -0.1773 H   0  0  0  0  0  0  0  0  0  0  0  0
   -7.0482   -1.3021   -1.2140 H   0  0  0  0  0  0  0  0  0  0  0  0
   -9.3547    1.4365   -2.3762 H   0  0  0  0  0  0  0  0  0  0  0  0
   -9.6694    0.6207   -0.8222 H   0  0  0  0  0  0  0  0  0  0  0  0
   -8.9255    2.3138   -0.8893 H   0  0  0  0  0  0  0  0  0  0  0  0
   -6.7647    2.3287   -0.6398 H   0  0  0  0  0  0  0  0  0  0  0  0
   -6.4640    1.9912   -2.3629 H   0  0  0  0  0  0  0  0  0  0  0  0
   -5.1973    0.0318   -1.9106 H   0  0  0  0  0  0  0  0  0  0  0  0
   -4.4249    1.4727   -1.2070 H   0  0  0  0  0  0  0  0  0  0  0  0
  1  2  1  0
  2  3  1  0
  3  4  1  0
  4  5  2  0
  4  6  1  0
  6  7  1  0
  7  8  2  0
  8  9  1  0
  9 10  2  0
 10 11  1  0
 11 12  1  0
 12 13  1  0
 13 14  2  0
 14 15  1  0
 15 16  1  0
 16 17  1  0
 17 18  2  0
 18 19  1  0
 19 20  1  0
 19 21  1  0
 21 22  2  0
 22 23  1  0
 23 24  1  0
 15 25  2  0
 25 26  1  0
 26 27  2  0
 27 28  1  0
 12 29  2  0
 29 30  1  0
 30 31  1  0
  3 32  1  0
 32 33  1  0
 33 34  1  0
 34 35  1  0
 35 36  1  0
 35 37  1  0
 37 38  1  0
 31  7  1  0
 38 32  1  0
 31 11  2  0
 27 13  1  0
 22 17  1  0
  1 39  1  0
  1 40  1  0
  1 41  1  0
  2 42  1  0
  2 43  1  0
  3 44  1  1
  6 45  1  0
  8 46  1  0
  9 47  1  0
 10 48  1  0
 16 49  1  0
 18 50  1  0
 20 51  1  0
 20 52  1  0
 20 53  1  0
 24 54  1  0
 24 55  1  0
 24 56  1  0
 26 57  1  0
 28 58  1  0
 28 59  1  0
 28 60  1  0
 29 61  1  0
 30 62  1  0
 33 63  1  0
 33 64  1  0
 34 65  1  0
 34 66  1  0
 36 67  1  0
 36 68  1  0
 36 69  1  0
 37 70  1  0
 37 71  1  0
 38 72  1  0
 38 73  1  0
M  END
$$$$
