@<TRIPOS>MOLECULE
*****
 38 38 0 0 0
SMALL
GASTEIGER

@<TRIPOS>ATOM
      1 O           5.0906    1.1932   -0.8751 O.3     1  UNL1       -0.4806
      2 C           4.5282   -0.0725   -0.8685 C.2     1  UNL1        0.3047
      3 O           4.6153   -0.5291   -2.0477 O.2     1  UNL1       -0.2510
      4 C           3.8739   -1.0848   -0.0299 C.3     1  UNL1        0.0451
      5 C           3.6934   -0.5979    1.3867 C.3     1  UNL1       -0.0390
      6 C           2.8438    0.6289    1.4950 C.3     1  UNL1       -0.0272
      7 C           1.4672    0.4343    0.9795 C.ar    1  UNL1       -0.0472
      8 C           1.0916    0.6909   -0.3201 C.ar    1  UNL1       -0.0568
      9 C          -0.2027    0.4827   -0.7265 C.ar    1  UNL1       -0.0404
     10 C          -1.2132    0.0174    0.0830 C.ar    1  UNL1        0.0298
     11 C          -0.7653   -0.2151    1.3601 C.ar    1  UNL1       -0.0404
     12 C           0.5067   -0.0349    1.8511 C.ar    1  UNL1       -0.0568
     13 N          -2.5289   -0.1821   -0.4107 N.pl3   1  UNL1       -0.3276
     14 C          -3.7778   -0.5852    0.0834 C.3     1  UNL1        0.0257
     15 C          -3.8994   -0.9972    1.5260 C.3     1  UNL1        0.0383
     16 CL         -5.6135   -1.4498    1.8552 Cl      1  UNL1       -0.1238
     17 C          -2.7616    0.0734   -1.8201 C.3     1  UNL1        0.0257
     18 C          -3.5799    1.3014   -2.1014 C.3     1  UNL1        0.0383
     19 CL         -2.7856    2.7598   -1.4238 Cl      1  UNL1       -0.1238
     20 H           6.0292    1.3543   -1.2227 H       1  UNL1        0.2951
     21 H           2.8522   -1.2871   -0.4508 H       1  UNL1        0.0378
     22 H           4.4058   -2.0588   -0.0380 H       1  UNL1        0.0378
     23 H           3.2218   -1.3961    2.0157 H       1  UNL1        0.0274
     24 H           4.7036   -0.4524    1.8227 H       1  UNL1        0.0274
     25 H           2.8710    0.9533    2.5613 H       1  UNL1        0.0313
     26 H           3.3827    1.4343    0.9468 H       1  UNL1        0.0313
     27 H           1.8828    1.0561   -0.9471 H       1  UNL1        0.0621
     28 H          -0.2916    0.7485   -1.7564 H       1  UNL1        0.0636
     29 H          -1.4276   -0.5789    2.1204 H       1  UNL1        0.0636
     30 H           0.7914   -0.2389    2.8707 H       1  UNL1        0.0621
     31 H          -4.6257    0.1478   -0.1093 H       1  UNL1        0.0475
     32 H          -4.1606   -1.4970   -0.4966 H       1  UNL1        0.0475
     33 H          -3.2441   -1.8549    1.7540 H       1  UNL1        0.0445
     34 H          -3.6426   -0.1357    2.1615 H       1  UNL1        0.0445
     35 H          -3.2705   -0.8405   -2.2656 H       1  UNL1        0.0475
     36 H          -1.8435    0.1483   -2.4250 H       1  UNL1        0.0475
     37 H          -3.6430    1.4381   -3.2193 H       1  UNL1        0.0445
     38 H          -4.5740    1.2262   -1.6587 H       1  UNL1        0.0445
@<TRIPOS>BOND
     1     1     2    1
     2     2     3    2
     3     2     4    1
     4     4     5    1
     5     5     6    1
     6     6     7    1
     7     7     8   ar
     8     8     9   ar
     9     9    10   ar
    10    10    11   ar
    11    11    12   ar
    12    10    13    1
    13    13    14    1
    14    14    15    1
    15    15    16    1
    16    13    17    1
    17    17    18    1
    18    18    19    1
    19    12     7   ar
    20     1    20    1
    21     4    21    1
    22     4    22    1
    23     5    23    1
    24     5    24    1
    25     6    25    1
    26     6    26    1
    27     8    27    1
    28     9    28    1
    29    11    29    1
    30    12    30    1
    31    14    31    1
    32    14    32    1
    33    15    33    1
    34    15    34    1
    35    17    35    1
    36    17    36    1
    37    18    37    1
    38    18    38    1
