@<TRIPOS>MOLECULE
*****
 22 22 0 0 0
SMALL
GASTEIGER

@<TRIPOS>ATOM
      1 N           3.4942    0.6684   -0.5307 N.3     1  UNL1       -0.2705
      2 N           3.0495   -0.2306    0.4339 N.3     1  UNL1       -0.2589
      3 C           1.6393   -0.0755    0.7220 C.3     1  UNL1        0.0144
      4 C           0.8348   -0.3053   -0.5254 C.3     1  UNL1       -0.0138
      5 C          -0.6130   -0.1489   -0.2423 C.ar    1  UNL1       -0.0461
      6 C          -1.3688   -1.2278    0.1510 C.ar    1  UNL1       -0.0585
      7 C          -2.7160   -1.0804    0.4141 C.ar    1  UNL1       -0.0615
      8 C          -3.3300    0.1497    0.2881 C.ar    1  UNL1       -0.0617
      9 C          -2.5640    1.2497   -0.1118 C.ar    1  UNL1       -0.0615
     10 C          -1.2175    1.1032   -0.3750 C.ar    1  UNL1       -0.0585
     11 H           2.9748    1.5508   -0.5628 H       1  UNL1        0.1368
     12 H           3.7831    0.2644   -1.4244 H       1  UNL1        0.1368
     13 H           3.2444   -1.1881    0.0565 H       1  UNL1        0.1403
     14 H           1.4713    0.8825    1.2157 H       1  UNL1        0.0441
     15 H           1.4000   -0.8860    1.4638 H       1  UNL1        0.0441
     16 H           1.1833    0.3683   -1.3185 H       1  UNL1        0.0326
     17 H           1.0628   -1.3505   -0.8589 H       1  UNL1        0.0326
     18 H          -0.8986   -2.1841    0.2505 H       1  UNL1        0.0620
     19 H          -3.3072   -1.9421    0.7255 H       1  UNL1        0.0618
     20 H          -4.3851    0.2010    0.5077 H       1  UNL1        0.0618
     21 H          -3.0939    2.2026   -0.1976 H       1  UNL1        0.0618
     22 H          -0.6433    1.9786   -0.6855 H       1  UNL1        0.0620
@<TRIPOS>BOND
     1     1     2    1
     2     2     3    1
     3     3     4    1
     4     4     5    1
     5     5     6   ar
     6     6     7   ar
     7     7     8   ar
     8     8     9   ar
     9     9    10   ar
    10    10     5   ar
    11     1    11    1
    12     1    12    1
    13     2    13    1
    14     3    14    1
    15     3    15    1
    16     4    16    1
    17     4    17    1
    18     6    18    1
    19     7    19    1
    20     8    20    1
    21     9    21    1
    22    10    22    1
