@<TRIPOS>MOLECULE
*****
 25 28 0 0 0
SMALL
GASTEIGER

@<TRIPOS>ATOM
      1 O          -0.0734    2.8622    0.2828 O.2     1  UNL1       -0.2866
      2 C           0.0077    1.6373    0.1603 C.2     1  UNL1        0.1945
      3 C           1.3170    0.9733    0.0567 C.ar    1  UNL1        0.0315
      4 C           2.5035    1.6667    0.0899 C.ar    1  UNL1       -0.0503
      5 C           3.7148    1.0163   -0.0095 C.ar    1  UNL1       -0.0610
      6 C           3.7573   -0.3724   -0.1469 C.ar    1  UNL1       -0.0611
      7 C           2.5457   -1.0589   -0.1786 C.ar    1  UNL1       -0.0518
      8 C           1.3470   -0.4016   -0.0789 C.ar    1  UNL1        0.0135
      9 C           0.0879   -1.1679   -0.1171 C.ar    1  UNL1        0.1016
     10 N          -0.2644   -2.4586   -0.2333 N.ar    1  UNL1       -0.1727
     11 N          -1.6063   -2.5739   -0.2052 N.ar    1  UNL1       -0.2764
     12 C          -2.1763   -1.3626   -0.0697 C.ar    1  UNL1        0.0670
     13 C          -3.4482   -0.8233    0.0206 C.ar    1  UNL1       -0.0362
     14 C          -3.6088    0.5362    0.1586 C.ar    1  UNL1       -0.0591
     15 C          -2.4981    1.3925    0.2099 C.ar    1  UNL1       -0.0502
     16 C          -1.2343    0.8632    0.1209 C.ar    1  UNL1        0.0335
     17 C          -1.1028   -0.4890   -0.0156 C.ar    1  UNL1        0.0382
     18 H           2.4715    2.7246    0.1946 H       1  UNL1        0.0625
     19 H           4.6654    1.5400    0.0139 H       1  UNL1        0.0618
     20 H           4.7122   -0.8760   -0.2244 H       1  UNL1        0.0618
     21 H           2.5327   -2.1271   -0.2830 H       1  UNL1        0.0624
     22 H          -2.1519   -3.4545   -0.2755 H       1  UNL1        0.1889
     23 H          -4.2837   -1.4769   -0.0189 H       1  UNL1        0.0639
     24 H          -4.6047    0.9779    0.2312 H       1  UNL1        0.0618
     25 H          -2.6100    2.4527    0.3172 H       1  UNL1        0.0625
@<TRIPOS>BOND
     1     1     2    2
     2     2     3    1
     3     3     4   ar
     4     4     5   ar
     5     5     6   ar
     6     6     7   ar
     7     7     8   ar
     8     8     9    1
     9     9    10   ar
    10    10    11   ar
    11    11    12   ar
    12    12    13   ar
    13    13    14   ar
    14    14    15   ar
    15    15    16   ar
    16    16    17   ar
    17    16     2    1
    18     8     3   ar
    19    17     9   ar
    20    17    12   ar
    21     4    18    1
    22     5    19    1
    23     6    20    1
    24     7    21    1
    25    11    22    1
    26    13    23    1
    27    14    24    1
    28    15    25    1
