
     RDKit          3D

 25 28  0  0  0  0  0  0  0  0999 V2000
   -0.0734    2.8622    0.2828 O   0  0  0  0  0  0  0  0  0  0  0  0
    0.0077    1.6373    0.1603 C   0  0  0  0  0  0  0  0  0  0  0  0
    1.3170    0.9733    0.0567 C   0  0  0  0  0  0  0  0  0  0  0  0
    2.5035    1.6667    0.0899 C   0  0  0  0  0  0  0  0  0  0  0  0
    3.7148    1.0163   -0.0095 C   0  0  0  0  0  0  0  0  0  0  0  0
    3.7573   -0.3724   -0.1469 C   0  0  0  0  0  0  0  0  0  0  0  0
    2.5457   -1.0589   -0.1786 C   0  0  0  0  0  0  0  0  0  0  0  0
    1.3470   -0.4016   -0.0789 C   0  0  0  0  0  0  0  0  0  0  0  0
    0.0879   -1.1679   -0.1171 C   0  0  0  0  0  0  0  0  0  0  0  0
   -0.2644   -2.4586   -0.2333 N   0  0  0  0  0  0  0  0  0  0  0  0
   -1.6063   -2.5739   -0.2052 N   0  0  0  0  0  0  0  0  0  0  0  0
   -2.1763   -1.3626   -0.0697 C   0  0  0  0  0  0  0  0  0  0  0  0
   -3.4482   -0.8233    0.0206 C   0  0  0  0  0  0  0  0  0  0  0  0
   -3.6088    0.5362    0.1586 C   0  0  0  0  0  0  0  0  0  0  0  0
   -2.4981    1.3925    0.2099 C   0  0  0  0  0  0  0  0  0  0  0  0
   -1.2343    0.8632    0.1209 C   0  0  0  0  0  0  0  0  0  0  0  0
   -1.1028   -0.4890   -0.0156 C   0  0  0  0  0  0  0  0  0  0  0  0
    2.4715    2.7246    0.1946 H   0  0  0  0  0  0  0  0  0  0  0  0
    4.6654    1.5400    0.0139 H   0  0  0  0  0  0  0  0  0  0  0  0
    4.7122   -0.8760   -0.2244 H   0  0  0  0  0  0  0  0  0  0  0  0
    2.5327   -2.1271   -0.2830 H   0  0  0  0  0  0  0  0  0  0  0  0
   -2.1519   -3.4545   -0.2755 H   0  0  0  0  0  0  0  0  0  0  0  0
   -4.2837   -1.4769   -0.0189 H   0  0  0  0  0  0  0  0  0  0  0  0
   -4.6047    0.9779    0.2312 H   0  0  0  0  0  0  0  0  0  0  0  0
   -2.6100    2.4527    0.3172 H   0  0  0  0  0  0  0  0  0  0  0  0
  1  2  2  0
  2  3  1  0
  3  4  2  0
  4  5  1  0
  5  6  2  0
  6  7  1  0
  7  8  2  0
  8  9  1  0
  9 10  2  0
 10 11  1  0
 11 12  1  0
 12 13  1  0
 13 14  2  0
 14 15  1  0
 15 16  2  0
 16 17  1  0
 16  2  1  0
  8  3  1  0
 17  9  1  0
 17 12  2  0
  4 18  1  0
  5 19  1  0
  6 20  1  0
  7 21  1  0
 11 22  1  0
 13 23  1  0
 14 24  1  0
 15 25  1  0
M  END
$$$$
