
     RDKit          3D

 66 69  0  0  0  0  0  0  0  0999 V2000
    3.0241    4.7239    0.9692 C   0  0  0  0  0  0  0  0  0  0  0  0
    1.6509    4.7173    0.3218 C   0  0  0  0  0  0  0  0  0  0  0  0
    0.9266    5.9637    0.7476 C   0  0  0  0  0  0  0  0  0  0  0  0
    0.9582    3.5451    0.8800 N   0  0  0  0  0  0  0  0  0  0  0  0
    0.4379    2.5458   -0.0129 C   0  0  0  0  0  0  0  0  0  0  0  0
    0.5918    2.7843   -1.2576 O   0  0  0  0  0  0  0  0  0  0  0  0
   -0.2002    1.3536    0.3798 N   0  0  0  0  0  0  0  0  0  0  0  0
   -0.3559    1.0682    1.8298 C   0  0  0  0  0  0  0  0  0  0  0  0
    0.8677    0.3581    2.2775 C   0  0  0  0  0  0  0  0  0  0  0  0
    1.0765   -0.0297    3.5765 C   0  0  0  0  0  0  0  0  0  0  0  0
    2.2695   -0.7036    3.9069 C   0  0  0  0  0  0  0  0  0  0  0  0
    3.2236   -0.9637    2.9143 C   0  0  0  0  0  0  0  0  0  0  0  0
    3.0043   -0.5802    1.6655 C   0  0  0  0  0  0  0  0  0  0  0  0
    3.8653   -0.8198    0.4795 C   0  0  0  0  0  0  0  0  0  0  0  0
    4.5676   -0.9962   -0.4650 C   0  0  0  0  0  0  0  0  0  0  0  0
    5.4184   -1.2064   -1.5676 C   0  0  0  0  0  0  0  0  0  0  0  0
    6.2927   -2.3010   -1.6093 C   0  0  0  0  0  0  0  0  0  0  0  0
    7.1736   -2.5046   -2.6324 C   0  0  0  0  0  0  0  0  0  0  0  0
    7.2258   -1.6142   -3.6790 C   0  0  0  0  0  0  0  0  0  0  0  0
    8.3592   -1.8772   -5.0150 Cl  0  0  0  0  0  0  0  0  0  0  0  0
    6.3868   -0.5265   -3.6812 C   0  0  0  0  0  0  0  0  0  0  0  0
    5.4957   -0.3325   -2.6336 C   0  0  0  0  0  0  0  0  0  0  0  0
    1.8216    0.0868    1.3257 C   0  0  0  0  0  0  0  0  0  0  0  0
   -0.6296    0.3534   -0.5394 C   0  0  0  0  0  0  0  0  0  0  0  0
   -1.9683    0.3831   -1.0989 C   0  0  0  0  0  0  0  0  0  0  0  0
   -2.3982    1.1368   -2.1074 C   0  0  0  0  0  0  0  0  0  0  0  0
   -3.6205    1.0837   -2.7143 C   0  0  0  0  0  0  0  0  0  0  0  0
   -4.5389    0.1227   -2.2110 C   0  0  0  0  0  0  0  0  0  0  0  0
   -4.1730   -0.6864   -1.1739 C   0  0  0  0  0  0  0  0  0  0  0  0
   -5.0371   -1.7929   -0.6845 C   0  0  0  0  0  0  0  0  0  0  0  0
   -5.7419   -2.6954   -0.2975 C   0  0  0  0  0  0  0  0  0  0  0  0
   -6.5350   -3.7244    0.1636 C   0  0  0  0  0  0  0  0  0  0  0  0
   -7.7478   -4.0059   -0.3416 C   0  0  0  0  0  0  0  0  0  0  0  0
   -8.6389   -4.9498    0.0042 C   0  0  0  0  0  0  0  0  0  0  0  0
   -8.1829   -5.8032    1.1295 C   0  0  0  0  0  0  0  0  0  0  0  0
   -7.0295   -5.4894    1.5630 N   0  0  0  0  0  0  0  0  0  0  0  0
   -6.1334   -4.5920    1.2658 C   0  0  0  0  0  0  0  0  0  0  0  0
   -2.9101   -0.5626   -0.6216 C   0  0  0  0  0  0  0  0  0  0  0  0
    3.8040    5.0476    0.2483 H   0  0  0  0  0  0  0  0  0  0  0  0
    3.2923    3.6708    1.2946 H   0  0  0  0  0  0  0  0  0  0  0  0
    3.0586    5.2993    1.9217 H   0  0  0  0  0  0  0  0  0  0  0  0
    1.7358    4.6290   -0.7806 H   0  0  0  0  0  0  0  0  0  0  0  0
    0.2770    6.3482   -0.0673 H   0  0  0  0  0  0  0  0  0  0  0  0
    1.6778    6.7713    1.0156 H   0  0  0  0  0  0  0  0  0  0  0  0
    0.2913    5.8049    1.6396 H   0  0  0  0  0  0  0  0  0  0  0  0
    0.8086    3.3935    1.8964 H   0  0  0  0  0  0  0  0  0  0  0  0
   -0.5658    2.0071    2.3617 H   0  0  0  0  0  0  0  0  0  0  0  0
   -1.2408    0.4021    1.9396 H   0  0  0  0  0  0  0  0  0  0  0  0
    0.3724    0.1692    4.3709 H   0  0  0  0  0  0  0  0  0  0  0  0
    2.4017   -1.0118    4.9277 H   0  0  0  0  0  0  0  0  0  0  0  0
    4.1329   -1.4865    3.1913 H   0  0  0  0  0  0  0  0  0  0  0  0
    6.2566   -3.0043   -0.7793 H   0  0  0  0  0  0  0  0  0  0  0  0
    7.8546   -3.3675   -2.6513 H   0  0  0  0  0  0  0  0  0  0  0  0
    6.4215    0.1871   -4.4964 H   0  0  0  0  0  0  0  0  0  0  0  0
    4.8256    0.5517   -2.6110 H   0  0  0  0  0  0  0  0  0  0  0  0
    1.6593    0.3846    0.3092 H   0  0  0  0  0  0  0  0  0  0  0  0
   -0.4625   -0.6858   -0.0765 H   0  0  0  0  0  0  0  0  0  0  0  0
    0.0845    0.4309   -1.4304 H   0  0  0  0  0  0  0  0  0  0  0  0
   -1.6856    1.9342   -2.5380 H   0  0  0  0  0  0  0  0  0  0  0  0
   -3.9259    1.6954   -3.5232 H   0  0  0  0  0  0  0  0  0  0  0  0
   -5.5259    0.0213   -2.6360 H   0  0  0  0  0  0  0  0  0  0  0  0
   -8.0432   -3.3213   -1.2055 H   0  0  0  0  0  0  0  0  0  0  0  0
   -9.5894   -5.1803   -0.3783 H   0  0  0  0  0  0  0  0  0  0  0  0
   -8.8757   -6.5595    1.4163 H   0  0  0  0  0  0  0  0  0  0  0  0
   -5.1749   -4.3921    1.6805 H   0  0  0  0  0  0  0  0  0  0  0  0
   -2.6615   -1.2081    0.2060 H   0  0  0  0  0  0  0  0  0  0  0  0
  1  2  1  0
  2  3  1  0
  2  4  1  0
  4  5  1  0
  5  6  2  0
  5  7  1  0
  7  8  1  0
  8  9  1  0
  9 10  2  0
 10 11  1  0
 11 12  2  0
 12 13  1  0
 13 14  1  0
 14 15  3  0
 15 16  1  0
 16 17  2  0
 17 18  1  0
 18 19  2  0
 19 20  1  0
 19 21  1  0
 21 22  2  0
 13 23  2  0
  7 24  1  0
 24 25  1  0
 25 26  2  0
 26 27  1  0
 27 28  2  0
 28 29  1  0
 29 30  1  0
 30 31  3  0
 31 32  1  0
 32 33  2  0
 33 34  1  0
 34 35  2  0
 35 36  1  0
 36 37  2  0
 29 38  2  0
 23  9  1  0
 38 25  1  0
 22 16  1  0
 37 32  1  0
  1 39  1  0
  1 40  1  0
  1 41  1  0
  2 42  1  0
  3 43  1  0
  3 44  1  0
  3 45  1  0
  4 46  1  0
  8 47  1  0
  8 48  1  0
 10 49  1  0
 11 50  1  0
 12 51  1  0
 17 52  1  0
 18 53  1  0
 21 54  1  0
 22 55  1  0
 23 56  1  0
 24 57  1  0
 24 58  1  0
 26 59  1  0
 27 60  1  0
 28 61  1  0
 33 62  1  0
 34 63  1  0
 35 64  1  0
 37 65  1  0
 38 66  1  0
M  END
$$$$
