@<TRIPOS>MOLECULE
*****
 66 69 0 0 0
SMALL
GASTEIGER

@<TRIPOS>ATOM
      1 C           3.0241    4.7239    0.9692 C.3     1  UNL1       -0.0468
      2 C           1.6509    4.7173    0.3218 C.3     1  UNL1        0.0189
      3 C           0.9266    5.9637    0.7476 C.3     1  UNL1       -0.0468
      4 N           0.9582    3.5451    0.8800 N.am    1  UNL1       -0.2969
      5 C           0.4379    2.5458   -0.0129 C.2     1  UNL1        0.3030
      6 O           0.5918    2.7843   -1.2576 O.2     1  UNL1       -0.2526
      7 N          -0.2002    1.3536    0.3798 N.am    1  UNL1       -0.2770
      8 C          -0.3559    1.0682    1.8298 C.3     1  UNL1        0.0416
      9 C           0.8677    0.3581    2.2775 C.ar    1  UNL1       -0.0289
     10 C           1.0765   -0.0297    3.5765 C.ar    1  UNL1       -0.0570
     11 C           2.2695   -0.7036    3.9069 C.ar    1  UNL1       -0.0603
     12 C           3.2236   -0.9637    2.9143 C.ar    1  UNL1       -0.0463
     13 C           3.0043   -0.5802    1.6655 C.ar    1  UNL1        0.0256
     14 C           3.8653   -0.8198    0.4795 C.1     1  UNL1       -0.0610
     15 C           4.5676   -0.9962   -0.4650 C.1     1  UNL1       -0.0610
     16 C           5.4184   -1.2064   -1.5676 C.ar    1  UNL1        0.0254
     17 C           6.2927   -2.3010   -1.6093 C.ar    1  UNL1       -0.0449
     18 C           7.1736   -2.5046   -2.6324 C.ar    1  UNL1       -0.0422
     19 C           7.2258   -1.6142   -3.6790 C.ar    1  UNL1        0.0410
     20 CL          8.3592   -1.8772   -5.0150 Cl      1  UNL1       -0.0835
     21 C           6.3868   -0.5265   -3.6812 C.ar    1  UNL1       -0.0422
     22 C           5.4957   -0.3325   -2.6336 C.ar    1  UNL1       -0.0449
     23 C           1.8216    0.0868    1.3257 C.ar    1  UNL1       -0.0416
     24 C          -0.6296    0.3534   -0.5394 C.3     1  UNL1        0.0416
     25 C          -1.9683    0.3831   -1.0989 C.ar    1  UNL1       -0.0289
     26 C          -2.3982    1.1368   -2.1074 C.ar    1  UNL1       -0.0570
     27 C          -3.6205    1.0837   -2.7143 C.ar    1  UNL1       -0.0603
     28 C          -4.5389    0.1227   -2.2110 C.ar    1  UNL1       -0.0463
     29 C          -4.1730   -0.6864   -1.1739 C.ar    1  UNL1        0.0256
     30 C          -5.0371   -1.7929   -0.6845 C.1     1  UNL1       -0.0610
     31 C          -5.7419   -2.6954   -0.2975 C.1     1  UNL1       -0.0595
     32 C          -6.5350   -3.7244    0.1636 C.ar    1  UNL1        0.0433
     33 C          -7.7478   -4.0059   -0.3416 C.ar    1  UNL1       -0.0434
     34 C          -8.6389   -4.9498    0.0042 C.ar    1  UNL1       -0.0424
     35 C          -8.1829   -5.8032    1.1295 C.ar    1  UNL1        0.0276
     36 N          -7.0295   -5.4894    1.5630 N.ar    1  UNL1       -0.2620
     37 C          -6.1334   -4.5920    1.2658 C.ar    1  UNL1        0.0429
     38 C          -2.9101   -0.5626   -0.6216 C.ar    1  UNL1       -0.0416
     39 H           3.8040    5.0476    0.2483 H       1  UNL1        0.0247
     40 H           3.2923    3.6708    1.2946 H       1  UNL1        0.0247
     41 H           3.0586    5.2993    1.9217 H       1  UNL1        0.0247
     42 H           1.7358    4.6290   -0.7806 H       1  UNL1        0.0493
     43 H           0.2770    6.3482   -0.0673 H       1  UNL1        0.0247
     44 H           1.6778    6.7713    1.0156 H       1  UNL1        0.0247
     45 H           0.2913    5.8049    1.6396 H       1  UNL1        0.0247
     46 H           0.8086    3.3935    1.8964 H       1  UNL1        0.1505
     47 H          -0.5658    2.0071    2.3617 H       1  UNL1        0.0514
     48 H          -1.2408    0.4021    1.9396 H       1  UNL1        0.0514
     49 H           0.3724    0.1692    4.3709 H       1  UNL1        0.0621
     50 H           2.4017   -1.0118    4.9277 H       1  UNL1        0.0618
     51 H           4.1329   -1.4865    3.1913 H       1  UNL1        0.0630
     52 H           6.2566   -3.0043   -0.7793 H       1  UNL1        0.0630
     53 H           7.8546   -3.3675   -2.6513 H       1  UNL1        0.0632
     54 H           6.4215    0.1871   -4.4964 H       1  UNL1        0.0632
     55 H           4.8256    0.5517   -2.6110 H       1  UNL1        0.0630
     56 H           1.6593    0.3846    0.3092 H       1  UNL1        0.0633
     57 H          -0.4625   -0.6858   -0.0765 H       1  UNL1        0.0514
     58 H           0.0845    0.4309   -1.4304 H       1  UNL1        0.0514
     59 H          -1.6856    1.9342   -2.5380 H       1  UNL1        0.0621
     60 H          -3.9259    1.6954   -3.5232 H       1  UNL1        0.0618
     61 H          -5.5259    0.0213   -2.6360 H       1  UNL1        0.0630
     62 H          -8.0432   -3.3213   -1.2055 H       1  UNL1        0.0631
     63 H          -9.5894   -5.1803   -0.3783 H       1  UNL1        0.0633
     64 H          -8.8757   -6.5595    1.4163 H       1  UNL1        0.0829
     65 H          -5.1749   -4.3921    1.6805 H       1  UNL1        0.0842
     66 H          -2.6615   -1.2081    0.2060 H       1  UNL1        0.0633
@<TRIPOS>BOND
     1     1     2    1
     2     2     3    1
     3     2     4    1
     4     4     5   am
     5     5     6    2
     6     5     7   am
     7     7     8    1
     8     8     9    1
     9     9    10   ar
    10    10    11   ar
    11    11    12   ar
    12    12    13   ar
    13    13    14    1
    14    14    15    3
    15    15    16    1
    16    16    17   ar
    17    17    18   ar
    18    18    19   ar
    19    19    20    1
    20    19    21   ar
    21    21    22   ar
    22    13    23   ar
    23     7    24    1
    24    24    25    1
    25    25    26   ar
    26    26    27   ar
    27    27    28   ar
    28    28    29   ar
    29    29    30    1
    30    30    31    3
    31    31    32    1
    32    32    33   ar
    33    33    34   ar
    34    34    35   ar
    35    35    36   ar
    36    36    37   ar
    37    29    38   ar
    38    23     9   ar
    39    38    25   ar
    40    22    16   ar
    41    37    32   ar
    42     1    39    1
    43     1    40    1
    44     1    41    1
    45     2    42    1
    46     3    43    1
    47     3    44    1
    48     3    45    1
    49     4    46    1
    50     8    47    1
    51     8    48    1
    52    10    49    1
    53    11    50    1
    54    12    51    1
    55    17    52    1
    56    18    53    1
    57    21    54    1
    58    22    55    1
    59    23    56    1
    60    24    57    1
    61    24    58    1
    62    26    59    1
    63    27    60    1
    64    28    61    1
    65    33    62    1
    66    34    63    1
    67    35    64    1
    68    37    65    1
    69    38    66    1
