@<TRIPOS>MOLECULE
*****
 57 61 0 0 0
SMALL
GASTEIGER

@<TRIPOS>ATOM
      1 C           5.1067   -1.6685   -1.0149 C.3     1  UNL1       -0.0216
      2 C           5.3754   -0.4519   -0.2143 C.ar    1  UNL1        0.0525
      3 C           4.4471    0.4209    0.3381 C.ar    1  UNL1        0.1473
      4 C           2.9918    0.3028    0.2324 C.2     1  UNL1        0.2684
      5 O           2.4899   -0.6380   -0.3923 O.2     1  UNL1       -0.2681
      6 N           2.1742    1.2663    0.8462 N.am    1  UNL1       -0.2802
      7 C           0.7715    1.3176    0.8523 C.ar    1  UNL1        0.0343
      8 C           0.1782    2.3847    1.5381 C.ar    1  UNL1       -0.0377
      9 C          -1.1805    2.5531    1.6221 C.ar    1  UNL1       -0.0243
     10 C          -1.9798    1.6329    1.0056 C.ar    1  UNL1        0.1311
     11 F          -3.3330    1.7557    1.0602 F       1  UNL1       -0.2050
     12 C          -1.4789    0.5482    0.3066 C.ar    1  UNL1        0.0420
     13 C          -2.3784   -0.4333   -0.3502 C.3     1  UNL1        0.1959
     14 C          -1.4700   -1.5316   -0.9334 C.3     1  UNL1       -0.0112
     15 C          -3.0387    0.2536   -1.5085 C.3     1  UNL1        0.1183
     16 S          -4.5866   -0.5864   -1.8935 S.O2    1  UNL1       -0.0094
     17 O          -4.2844   -1.8859   -2.5906 O.2     1  UNL1       -0.1731
     18 O          -5.3672    0.3336   -2.7832 O.2     1  UNL1       -0.1731
     19 C          -5.3496   -0.8307   -0.3415 C.3     1  UNL1        0.1938
     20 C          -6.0640    0.4555    0.0980 C.3     1  UNL1        0.0149
     21 C          -7.3455   -0.1558   -0.4197 C.3     1  UNL1        0.1061
     22 F          -7.7019    0.2783   -1.6718 F       1  UNL1       -0.2453
     23 C          -6.6753   -1.5057   -0.3550 C.3     1  UNL1        0.0149
     24 C          -4.4251   -1.2474    0.7065 C.2     1  UNL1        0.3074
     25 N          -4.9460   -1.9255    1.8907 N.pl3   1  UNL1       -0.2488
     26 N          -3.1984   -1.0267    0.5931 N.2     1  UNL1       -0.0727
     27 C          -0.0891    0.4319    0.2571 C.ar    1  UNL1       -0.0301
     28 N           5.1670    1.3612    0.9669 N.ar    1  UNL1       -0.2229
     29 C           6.4865    1.1332    0.8436 C.ar    1  UNL1        0.1387
     30 C           7.5972    1.8112    1.3085 C.ar    1  UNL1       -0.0174
     31 C           8.8737    1.3598    1.0384 C.ar    1  UNL1       -0.0385
     32 C           8.9823    0.2074    0.2872 C.ar    1  UNL1        0.0576
     33 CL         10.5965   -0.3946   -0.0748 Cl      1  UNL1       -0.0820
     34 C           7.8498   -0.4338   -0.1541 C.ar    1  UNL1        0.0298
     35 N           6.6025    0.0104    0.1119 N.ar    1  UNL1       -0.3017
     36 H           4.2160   -2.1965   -0.6614 H       1  UNL1        0.0293
     37 H           5.9763   -2.3634   -0.9603 H       1  UNL1        0.0293
     38 H           4.9534   -1.4496   -2.0895 H       1  UNL1        0.0293
     39 H           2.7128    2.0354    1.3594 H       1  UNL1        0.1552
     40 H           0.7949    3.1380    2.0420 H       1  UNL1        0.0637
     41 H          -1.6102    3.3826    2.1558 H       1  UNL1        0.0647
     42 H          -0.8635   -2.0234   -0.1767 H       1  UNL1        0.0279
     43 H          -2.1171   -2.3055   -1.4437 H       1  UNL1        0.0279
     44 H          -0.8768   -1.0906   -1.7422 H       1  UNL1        0.0279
     45 H          -3.2013    1.3395   -1.3696 H       1  UNL1        0.0550
     46 H          -2.4016    0.1284   -2.4034 H       1  UNL1        0.0550
     47 H          -6.0175    0.6429    1.1793 H       1  UNL1        0.0320
     48 H          -5.7180    1.3534   -0.4530 H       1  UNL1        0.0320
     49 H          -8.1297   -0.0475    0.3584 H       1  UNL1        0.0652
     50 H          -6.9458   -2.1491    0.4782 H       1  UNL1        0.0320
     51 H          -6.8371   -2.0322   -1.3310 H       1  UNL1        0.0320
     52 H          -4.3705   -2.5823    2.4362 H       1  UNL1        0.2881
     53 H          -5.9206   -1.7447    2.1952 H       1  UNL1        0.2881
     54 H           0.3141   -0.3902   -0.2729 H       1  UNL1        0.0641
     55 H           7.5078    2.7171    1.8991 H       1  UNL1        0.0655
     56 H           9.7660    1.8746    1.3924 H       1  UNL1        0.0634
     57 H           7.9705   -1.3395   -0.7438 H       1  UNL1        0.0828
@<TRIPOS>BOND
     1     1     2    1
     2     2     3   ar
     3     3     4    1
     4     4     5    2
     5     4     6   am
     6     6     7    1
     7     7     8   ar
     8     8     9   ar
     9     9    10   ar
    10    10    11    1
    11    10    12   ar
    12    12    13    1
    13    13    14    1
    14    13    15    1
    15    15    16    1
    16    16    17    2
    17    16    18    2
    18    16    19    1
    19    19    20    1
    20    20    21    1
    21    21    22    1
    22    21    23    1
    23    19    24    1
    24    24    25    1
    25    24    26    2
    26    12    27   ar
    27     3    28   ar
    28    28    29   ar
    29    29    30   ar
    30    30    31   ar
    31    31    32   ar
    32    32    33    1
    33    32    34   ar
    34    34    35   ar
    35    35     2   ar
    36    27     7   ar
    37    35    29   ar
    38    26    13    1
    39    23    19    1
    40     1    36    1
    41     1    37    1
    42     1    38    1
    43     6    39    1
    44     8    40    1
    45     9    41    1
    46    14    42    1
    47    14    43    1
    48    14    44    1
    49    15    45    1
    50    15    46    1
    51    20    47    1
    52    20    48    1
    53    21    49    1
    54    23    50    1
    55    23    51    1
    56    25    52    1
    57    25    53    1
    58    27    54    1
    59    30    55    1
    60    31    56    1
    61    34    57    1
