@<TRIPOS>MOLECULE
*****
 51 54 0 0 0
SMALL
GASTEIGER

@<TRIPOS>ATOM
      1 O           5.7503    2.6745    1.5303 O.3     1  UNL1       -0.4771
      2 C           6.5601    1.8453    0.8056 C.2     1  UNL1        0.3386
      3 O           7.5556    2.5990    1.0589 O.2     1  UNL1       -0.2451
      4 C           6.5760    0.6192    0.0104 C.ar    1  UNL1        0.0800
      5 C           5.4559   -0.1438   -0.2197 C.ar    1  UNL1        0.0477
      6 N           4.2101    0.2455    0.3236 N.am    1  UNL1       -0.2808
      7 C           2.9461   -0.3663    0.2247 C.2     1  UNL1        0.2483
      8 O           2.8674   -1.4268   -0.4417 O.2     1  UNL1       -0.2699
      9 C           1.7359    0.1489    0.8409 C.ar    1  UNL1        0.0389
     10 C           1.6314    1.2948    1.6052 C.ar    1  UNL1       -0.0495
     11 C           0.4808    1.7490    2.1681 C.ar    1  UNL1       -0.0592
     12 C          -0.6918    1.0465    1.9895 C.ar    1  UNL1       -0.0353
     13 C          -0.6572   -0.1127    1.2331 C.ar    1  UNL1        0.1062
     14 C           0.5363   -0.5151    0.6935 C.ar    1  UNL1       -0.0232
     15 S          -2.0924   -1.0618    0.9568 S.O2    1  UNL1        0.0612
     16 O          -3.0030   -0.9447    2.1641 O.2     1  UNL1       -0.1528
     17 O          -1.7355   -2.5082    0.8258 O.2     1  UNL1       -0.1528
     18 N          -2.9318   -0.5621   -0.4639 N.3     1  UNL1       -0.1720
     19 C          -3.3842    0.7976   -0.3857 C.3     1  UNL1        0.0248
     20 C          -4.4734    1.0232   -1.4218 C.3     1  UNL1       -0.0129
     21 C          -5.6687    0.2874   -0.8750 C.ar    1  UNL1       -0.0416
     22 C          -6.9360    0.8088   -0.6855 C.ar    1  UNL1       -0.0582
     23 C          -7.8921   -0.0545   -0.1657 C.ar    1  UNL1       -0.0615
     24 C          -7.5830   -1.3523    0.1391 C.ar    1  UNL1       -0.0614
     25 C          -6.3204   -1.8629   -0.0524 C.ar    1  UNL1       -0.0570
     26 C          -5.3373   -1.0185   -0.5739 C.ar    1  UNL1       -0.0285
     27 C          -3.9555   -1.4962   -0.8078 C.3     1  UNL1        0.0458
     28 C           5.6954   -1.2536   -0.9922 C.ar    1  UNL1       -0.0397
     29 C           6.9274   -1.5894   -1.4976 C.ar    1  UNL1       -0.0600
     30 C           8.0194   -0.7935   -1.2398 C.ar    1  UNL1       -0.0609
     31 C           7.8245    0.3196   -0.4755 C.ar    1  UNL1       -0.0460
     32 H           5.5714    2.5173    2.4974 H       1  UNL1        0.2954
     33 H           4.1739    1.1158    0.8941 H       1  UNL1        0.1552
     34 H           2.5226    1.8762    1.7716 H       1  UNL1        0.0625
     35 H           0.4391    2.6447    2.7561 H       1  UNL1        0.0618
     36 H          -1.6606    1.3129    2.3886 H       1  UNL1        0.0637
     37 H           0.5383   -1.4380    0.0973 H       1  UNL1        0.0644
     38 H          -3.8438    0.9399    0.6094 H       1  UNL1        0.0447
     39 H          -2.5772    1.5136   -0.6019 H       1  UNL1        0.0447
     40 H          -4.1649    0.5066   -2.3398 H       1  UNL1        0.0326
     41 H          -4.6816    2.1019   -1.5650 H       1  UNL1        0.0326
     42 H          -7.0526    1.8473   -0.9651 H       1  UNL1        0.0620
     43 H          -8.8734    0.3787   -0.0278 H       1  UNL1        0.0618
     44 H          -8.3718   -1.9919    0.5462 H       1  UNL1        0.0618
     45 H          -6.0880   -2.9013    0.1956 H       1  UNL1        0.0621
     46 H          -3.8785   -1.8647   -1.8562 H       1  UNL1        0.0493
     47 H          -3.8351   -2.4179   -0.1831 H       1  UNL1        0.0493
     48 H           4.9118   -1.9234   -1.2410 H       1  UNL1        0.0636
     49 H           7.0759   -2.4676   -2.0993 H       1  UNL1        0.0618
     50 H           8.9843   -1.0668   -1.6422 H       1  UNL1        0.0618
     51 H           8.7000    0.9197   -0.2933 H       1  UNL1        0.0626
@<TRIPOS>BOND
     1     1     2    1
     2     2     3    2
     3     2     4    1
     4     4     5   ar
     5     5     6    1
     6     6     7   am
     7     7     8    2
     8     7     9    1
     9     9    10   ar
    10    10    11   ar
    11    11    12   ar
    12    12    13   ar
    13    13    14   ar
    14    13    15    1
    15    15    16    2
    16    15    17    2
    17    15    18    1
    18    18    19    1
    19    19    20    1
    20    20    21    1
    21    21    22   ar
    22    22    23   ar
    23    23    24   ar
    24    24    25   ar
    25    25    26   ar
    26    26    27    1
    27     5    28   ar
    28    28    29   ar
    29    29    30   ar
    30    30    31   ar
    31    31     4   ar
    32    14     9   ar
    33    27    18    1
    34    26    21   ar
    35     1    32    1
    36     6    33    1
    37    10    34    1
    38    11    35    1
    39    12    36    1
    40    14    37    1
    41    19    38    1
    42    19    39    1
    43    20    40    1
    44    20    41    1
    45    22    42    1
    46    23    43    1
    47    24    44    1
    48    25    45    1
    49    27    46    1
    50    27    47    1
    51    28    48    1
    52    29    49    1
    53    30    50    1
    54    31    51    1
