
     RDKit          3D

 29 30  0  0  0  0  0  0  0  0999 V2000
   -1.4683   -2.2521    0.9560 O   0  0  0  0  0  0  0  0  0  0  0  0
   -2.5220   -1.6719    0.6889 C   0  0  0  0  0  0  0  0  0  0  0  0
   -3.6801   -2.4163    1.0077 O   0  0  0  0  0  0  0  0  0  0  0  0
   -2.7079   -0.3648    0.1080 C   0  0  0  0  0  0  0  0  0  0  0  0
   -4.0121    0.0906   -0.1062 C   0  0  0  0  0  0  0  0  0  0  0  0
   -4.2682    1.3255   -0.6558 C   0  0  0  0  0  0  0  0  0  0  0  0
   -3.2297    2.1067   -0.9920 N   0  0  0  0  0  0  0  0  0  0  0  0
   -1.9618    1.7434   -0.8191 C   0  0  0  0  0  0  0  0  0  0  0  0
   -1.7066    0.4953   -0.2636 C   0  0  0  0  0  0  0  0  0  0  0  0
   -0.3653    0.1368   -0.0921 N   0  0  0  0  0  0  0  0  0  0  0  0
    0.7375    1.0240   -0.4747 C   0  0  0  0  0  0  0  0  0  0  0  0
    2.0667    0.4268   -0.1976 C   0  0  0  0  0  0  0  0  0  0  0  0
    2.7278    0.5949    1.0024 C   0  0  0  0  0  0  0  0  0  0  0  0
    3.9704    0.0272    1.2398 C   0  0  0  0  0  0  0  0  0  0  0  0
    4.5827   -0.7300    0.2666 C   0  0  0  0  0  0  0  0  0  0  0  0
    3.9426   -0.9123   -0.9397 C   0  0  0  0  0  0  0  0  0  0  0  0
    2.7035   -0.3375   -1.1568 C   0  0  0  0  0  0  0  0  0  0  0  0
   -3.6332   -3.3838    1.3088 H   0  0  0  0  0  0  0  0  0  0  0  0
   -4.8667   -0.5381    0.1642 H   0  0  0  0  0  0  0  0  0  0  0  0
   -5.2974    1.6713   -0.8188 H   0  0  0  0  0  0  0  0  0  0  0  0
   -1.1414    2.3990   -1.1017 H   0  0  0  0  0  0  0  0  0  0  0  0
   -0.0574   -0.7601    0.3081 H   0  0  0  0  0  0  0  0  0  0  0  0
    0.6430    1.1435   -1.5819 H   0  0  0  0  0  0  0  0  0  0  0  0
    0.6904    1.9859    0.0391 H   0  0  0  0  0  0  0  0  0  0  0  0
    2.2418    1.1865    1.7533 H   0  0  0  0  0  0  0  0  0  0  0  0
    4.4758    0.1685    2.1866 H   0  0  0  0  0  0  0  0  0  0  0  0
    5.5482   -1.1851    0.4194 H   0  0  0  0  0  0  0  0  0  0  0  0
    4.4065   -1.5068   -1.7245 H   0  0  0  0  0  0  0  0  0  0  0  0
    2.1813   -0.4673   -2.0977 H   0  0  0  0  0  0  0  0  0  0  0  0
  1  2  2  0
  2  3  1  0
  2  4  1  0
  4  5  2  0
  5  6  1  0
  6  7  2  0
  7  8  1  0
  8  9  2  0
  9 10  1  0
 10 11  1  0
 11 12  1  0
 12 13  2  0
 13 14  1  0
 14 15  2  0
 15 16  1  0
 16 17  2  0
  9  4  1  0
 17 12  1  0
  3 18  1  0
  5 19  1  0
  6 20  1  0
  8 21  1  0
 10 22  1  0
 11 23  1  0
 11 24  1  0
 13 25  1  0
 14 26  1  0
 15 27  1  0
 16 28  1  0
 17 29  1  0
M  END
$$$$
