@<TRIPOS>MOLECULE
*****
 29 30 0 0 0
SMALL
GASTEIGER

@<TRIPOS>ATOM
      1 O          -1.4683   -2.2521    0.9560 O.2     1  UNL1       -0.2451
      2 C          -2.5220   -1.6719    0.6889 C.2     1  UNL1        0.3387
      3 O          -3.6801   -2.4163    1.0077 O.3     1  UNL1       -0.4771
      4 C          -2.7079   -0.3648    0.1080 C.ar    1  UNL1        0.0825
      5 C          -4.0121    0.0906   -0.1062 C.ar    1  UNL1       -0.0278
      6 C          -4.2682    1.3255   -0.6558 C.ar    1  UNL1        0.0285
      7 N          -3.2297    2.1067   -0.9920 N.ar    1  UNL1       -0.2614
      8 C          -1.9618    1.7434   -0.8191 C.ar    1  UNL1        0.0492
      9 C          -1.7066    0.4953   -0.2636 C.ar    1  UNL1        0.0598
     10 N          -0.3653    0.1368   -0.0921 N.pl3   1  UNL1       -0.3379
     11 C           0.7375    1.0240   -0.4747 C.3     1  UNL1        0.0344
     12 C           2.0667    0.4268   -0.1976 C.ar    1  UNL1       -0.0304
     13 C           2.7278    0.5949    1.0024 C.ar    1  UNL1       -0.0571
     14 C           3.9704    0.0272    1.2398 C.ar    1  UNL1       -0.0615
     15 C           4.5827   -0.7300    0.2666 C.ar    1  UNL1       -0.0617
     16 C           3.9426   -0.9123   -0.9397 C.ar    1  UNL1       -0.0615
     17 C           2.7035   -0.3375   -1.1568 C.ar    1  UNL1       -0.0571
     18 H          -3.6332   -3.3838    1.3088 H       1  UNL1        0.2954
     19 H          -4.8667   -0.5381    0.1642 H       1  UNL1        0.0641
     20 H          -5.2974    1.6713   -0.8188 H       1  UNL1        0.0830
     21 H          -1.1414    2.3990   -1.1017 H       1  UNL1        0.0848
     22 H          -0.0574   -0.7601    0.3081 H       1  UNL1        0.1465
     23 H           0.6430    1.1435   -1.5819 H       1  UNL1        0.0511
     24 H           0.6904    1.9859    0.0391 H       1  UNL1        0.0511
     25 H           2.2418    1.1865    1.7533 H       1  UNL1        0.0621
     26 H           4.4758    0.1685    2.1866 H       1  UNL1        0.0618
     27 H           5.5482   -1.1851    0.4194 H       1  UNL1        0.0618
     28 H           4.4065   -1.5068   -1.7245 H       1  UNL1        0.0618
     29 H           2.1813   -0.4673   -2.0977 H       1  UNL1        0.0621
@<TRIPOS>BOND
     1     1     2    2
     2     2     3    1
     3     2     4    1
     4     4     5   ar
     5     5     6   ar
     6     6     7   ar
     7     7     8   ar
     8     8     9   ar
     9     9    10    1
    10    10    11    1
    11    11    12    1
    12    12    13   ar
    13    13    14   ar
    14    14    15   ar
    15    15    16   ar
    16    16    17   ar
    17     9     4   ar
    18    17    12   ar
    19     3    18    1
    20     5    19    1
    21     6    20    1
    22     8    21    1
    23    10    22    1
    24    11    23    1
    25    11    24    1
    26    13    25    1
    27    14    26    1
    28    15    27    1
    29    16    28    1
    30    17    29    1
