@<TRIPOS>MOLECULE
*****
 54 56 0 0 0
SMALL
GASTEIGER

@<TRIPOS>ATOM
      1 C          -4.4821   -6.3171   -0.7131 C.3     1  UNL1        0.0788
      2 O          -4.5849   -4.9623   -0.3870 O.3     1  UNL1       -0.4951
      3 C          -3.5301   -4.0866   -0.5689 C.ar    1  UNL1        0.1209
      4 C          -2.3537   -4.5463   -1.0793 C.ar    1  UNL1       -0.0182
      5 C          -1.3275   -3.6335   -1.2432 C.ar    1  UNL1       -0.0363
      6 C          -1.4883   -2.3061   -0.9026 C.ar    1  UNL1        0.0461
      7 N          -0.4050   -1.3715   -1.0819 N.am    1  UNL1       -0.2808
      8 C           0.5348   -1.1445   -0.0415 C.2     1  UNL1        0.2483
      9 O           0.3456   -1.8105    1.0200 O.2     1  UNL1       -0.2699
     10 C           1.6453   -0.2238   -0.1486 C.ar    1  UNL1        0.0371
     11 C           2.5093   -0.0653    0.9099 C.ar    1  UNL1       -0.0488
     12 C           3.5876    0.8075    0.8494 C.ar    1  UNL1       -0.0462
     13 C           3.8131    1.5347   -0.2788 C.ar    1  UNL1        0.0650
     14 C           4.9345    2.4632   -0.3847 C.2     1  UNL1        0.3118
     15 N           4.8236    3.5055   -1.1332 N.2     1  UNL1       -0.0992
     16 N           6.1320    2.2157    0.3315 N.pl3   1  UNL1       -0.2260
     17 C           7.2471    1.6545   -0.3934 C.3     1  UNL1        0.0693
     18 C           6.2534    2.5083    1.7408 C.3     1  UNL1        0.0693
     19 C           2.9643    1.3965   -1.3546 C.ar    1  UNL1       -0.0462
     20 C           1.8802    0.5130   -1.2814 C.ar    1  UNL1       -0.0488
     21 C          -2.6876   -1.8273   -0.3801 C.ar    1  UNL1        0.0617
     22 C          -2.8256   -0.4126   -0.0289 C.2     1  UNL1        0.2512
     23 O          -1.8250    0.3275   -0.2209 O.2     1  UNL1       -0.2697
     24 N          -3.9925    0.1590    0.5022 N.am    1  UNL1       -0.2663
     25 C          -4.2009    1.5169    0.8660 C.ar    1  UNL1        0.1252
     26 C          -3.2926    2.5284    0.7645 C.ar    1  UNL1       -0.0201
     27 C          -3.5573    3.8538    1.1409 C.ar    1  UNL1       -0.0387
     28 C          -4.7890    4.1489    1.6354 C.ar    1  UNL1        0.0592
     29 CL         -5.2767    5.7512    2.1493 Cl      1  UNL1       -0.0820
     30 C          -5.7030    3.1335    1.7382 C.ar    1  UNL1        0.0480
     31 N          -5.4211    1.8829    1.3717 N.ar    1  UNL1       -0.2387
     32 C          -3.6885   -2.7492   -0.2270 C.ar    1  UNL1       -0.0060
     33 H          -5.3398   -6.8782   -0.2486 H       1  UNL1        0.0660
     34 H          -3.5705   -6.8038   -0.3467 H       1  UNL1        0.0660
     35 H          -4.5616   -6.4708   -1.8052 H       1  UNL1        0.0660
     36 H          -2.2024   -5.5821   -1.3541 H       1  UNL1        0.0655
     37 H          -0.3944   -4.0013   -1.6487 H       1  UNL1        0.0637
     38 H          -0.2880   -0.8455   -1.9721 H       1  UNL1        0.1552
     39 H           2.3884   -0.6120    1.8359 H       1  UNL1        0.0625
     40 H           4.2498    0.9066    1.7066 H       1  UNL1        0.0626
     41 H           3.9823    3.7310   -1.6709 H       1  UNL1        0.3633
     42 H           6.8270    0.9142   -1.1132 H       1  UNL1        0.0689
     43 H           7.7838    2.4392   -0.9961 H       1  UNL1        0.0689
     44 H           7.9228    1.1810    0.3348 H       1  UNL1        0.0689
     45 H           5.3384    3.0076    2.1171 H       1  UNL1        0.0689
     46 H           7.0753    3.2475    1.8450 H       1  UNL1        0.0689
     47 H           6.4555    1.5978    2.3534 H       1  UNL1        0.0689
     48 H           3.1348    1.9704   -2.2569 H       1  UNL1        0.0626
     49 H           1.2615    0.4585   -2.1602 H       1  UNL1        0.0625
     50 H          -4.7945   -0.5398    0.6335 H       1  UNL1        0.1566
     51 H          -2.3139    2.3457    0.3826 H       1  UNL1        0.0652
     52 H          -2.8284    4.6220    1.0501 H       1  UNL1        0.0634
     53 H          -6.7162    3.3122    2.1313 H       1  UNL1        0.0845
     54 H          -4.6493   -2.4445    0.1747 H       1  UNL1        0.0662
@<TRIPOS>BOND
     1     1     2    1
     2     2     3    1
     3     3     4   ar
     4     4     5   ar
     5     5     6   ar
     6     6     7    1
     7     7     8   am
     8     8     9    2
     9     8    10    1
    10    10    11   ar
    11    11    12   ar
    12    12    13   ar
    13    13    14    1
    14    14    15    2
    15    14    16    1
    16    16    17    1
    17    16    18    1
    18    13    19   ar
    19    19    20   ar
    20     6    21   ar
    21    21    22    1
    22    22    23    2
    23    22    24   am
    24    24    25    1
    25    25    26   ar
    26    26    27   ar
    27    27    28   ar
    28    28    29    1
    29    28    30   ar
    30    30    31   ar
    31    21    32   ar
    32    32     3   ar
    33    20    10   ar
    34    31    25   ar
    35     1    33    1
    36     1    34    1
    37     1    35    1
    38     4    36    1
    39     5    37    1
    40     7    38    1
    41    11    39    1
    42    12    40    1
    43    15    41    1
    44    17    42    1
    45    17    43    1
    46    17    44    1
    47    18    45    1
    48    18    46    1
    49    18    47    1
    50    19    48    1
    51    20    49    1
    52    24    50    1
    53    26    51    1
    54    27    52    1
    55    30    53    1
    56    32    54    1
