@<TRIPOS>MOLECULE
*****
 39 42 0 0 0
SMALL
GASTEIGER

@<TRIPOS>ATOM
      1 N           6.1174    3.1080   -0.7298 N.1     1  UNL1       -0.1909
      2 C           5.2458    2.2307   -0.6734 C.1     1  UNL1        0.0992
      3 C           4.2828    1.2306   -0.6208 C.ar    1  UNL1        0.0525
      4 C           3.1589    1.2554   -1.4258 C.ar    1  UNL1       -0.0424
      5 C           2.1611    0.3487   -1.4642 C.ar    1  UNL1       -0.0363
      6 C           2.2785   -0.7317   -0.5931 C.ar    1  UNL1        0.0526
      7 C           3.3718   -0.8191    0.2377 C.ar    1  UNL1       -0.0000
      8 C           3.4518   -1.9096    1.1774 C.ar    1  UNL1       -0.0475
      9 C           2.3941   -2.7420    1.1277 C.ar    1  UNL1        0.0036
     10 C           1.2923   -2.6348    0.2773 C.ar    1  UNL1        0.2522
     11 O           0.4081   -3.5199    0.3830 O.2     1  UNL1       -0.2677
     12 N           1.2489   -1.6303   -0.5726 N.ar    1  UNL1       -0.2993
     13 C           0.1318   -1.3548   -1.4457 C.3     1  UNL1        0.1032
     14 C          -0.7482   -0.2968   -0.8722 C.2     1  UNL1        0.2375
     15 O          -1.2448    0.5660   -1.6560 O.2     1  UNL1       -0.2735
     16 N          -1.0627   -0.1817    0.4794 N.am    1  UNL1       -0.2779
     17 C          -1.8435    0.8438    1.1149 C.ar    1  UNL1        0.0836
     18 S          -0.9714    1.8261    2.4303 S.2     1  UNL1       -0.0801
     19 C          -2.4407    2.9234    2.6235 C.ar    1  UNL1       -0.0078
     20 C          -3.3613    2.4737    1.7461 C.ar    1  UNL1        0.0374
     21 BR         -5.0849    3.4218    1.6475 Br      1  UNL1       -0.0490
     22 C          -3.0375    1.4017    0.9843 C.ar    1  UNL1        0.0614
     23 C          -4.0421    0.7558    0.0862 C.ar    1  UNL1        0.1648
     24 N          -5.3012    1.2730   -0.1318 N.ar    1  UNL1       -0.1295
     25 N          -5.9675    0.4657   -0.9164 N.ar    1  UNL1       -0.1377
     26 C          -5.2338   -0.5735   -1.2467 C.ar    1  UNL1        0.1175
     27 N          -4.0309   -0.3651   -0.5992 N.ar    1  UNL1       -0.3276
     28 C           4.3725    0.1160    0.2529 C.ar    1  UNL1       -0.0352
     29 H           3.1125    2.1340   -2.1076 H       1  UNL1        0.0631
     30 H           1.3318    0.4359   -2.1312 H       1  UNL1        0.0639
     31 H           4.3039   -1.9366    1.7835 H       1  UNL1        0.0626
     32 H           2.3814   -3.5974    1.8628 H       1  UNL1        0.0672
     33 H           0.3578   -1.2639   -2.4968 H       1  UNL1        0.0589
     34 H          -0.5213   -2.2910   -1.3899 H       1  UNL1        0.0589
     35 H          -0.6750   -0.9322    1.1301 H       1  UNL1        0.1554
     36 H          -2.4104    3.7882    3.3462 H       1  UNL1        0.0705
     37 H          -5.4227   -1.4334   -1.8727 H       1  UNL1        0.1046
     38 H          -3.2375   -1.0260   -0.6427 H       1  UNL1        0.1683
     39 H           5.2345    0.0599    0.8979 H       1  UNL1        0.0637
@<TRIPOS>BOND
     1     1     2    3
     2     2     3    1
     3     3     4   ar
     4     4     5   ar
     5     5     6   ar
     6     6     7   ar
     7     7     8   ar
     8     8     9   ar
     9     9    10   ar
    10    10    11    2
    11    10    12   ar
    12    12    13    1
    13    13    14    1
    14    14    15    2
    15    14    16   am
    16    16    17    1
    17    17    18   ar
    18    18    19   ar
    19    19    20   ar
    20    20    21    1
    21    20    22   ar
    22    22    23    1
    23    23    24   ar
    24    24    25   ar
    25    25    26   ar
    26    26    27   ar
    27     7    28   ar
    28    28     3   ar
    29    12     6   ar
    30    22    17   ar
    31    27    23   ar
    32     4    29    1
    33     5    30    1
    34     8    31    1
    35     9    32    1
    36    13    33    1
    37    13    34    1
    38    16    35    1
    39    19    36    1
    40    26    37    1
    41    27    38    1
    42    28    39    1
