@<TRIPOS>MOLECULE
*****
 36 38 0 0 0
SMALL
GASTEIGER

@<TRIPOS>ATOM
      1 N           5.7605   -1.1007    0.0664 N.pl3   1  UNL1       -0.3580
      2 C           4.4913   -0.4746    0.2743 C.ar    1  UNL1        0.0247
      3 C           3.4174   -1.3051    0.4588 C.ar    1  UNL1       -0.0392
      4 C           2.1666   -0.7260    0.6640 C.ar    1  UNL1       -0.0333
      5 C           1.9909    0.6358    0.6848 C.ar    1  UNL1        0.1087
      6 S           0.3933    1.2740    0.9475 S.O2    1  UNL1        0.0735
      7 O           0.4310    2.5791    1.6977 O.2     1  UNL1       -0.1499
      8 O          -0.4316    0.3280    1.8050 O.2     1  UNL1       -0.1499
      9 N          -0.4493    1.4948   -0.5424 N.pl3   1  UNL1       -0.1994
     10 C          -0.7271    0.4017   -1.3828 C.ar    1  UNL1        0.1413
     11 C           0.1251   -0.0435   -2.3960 C.ar    1  UNL1       -0.0006
     12 C          -0.5342   -1.1193   -2.9550 C.ar    1  UNL1        0.0517
     13 N          -1.6907   -1.2675   -2.2914 N.ar    1  UNL1       -0.1730
     14 N          -1.8240   -0.3674   -1.3477 N.ar    1  UNL1       -0.2173
     15 C          -2.9309   -0.2436   -0.4613 C.ar    1  UNL1        0.0675
     16 C          -3.4848    0.9757   -0.1402 C.ar    1  UNL1       -0.0362
     17 C          -4.5590    1.1183    0.7176 C.ar    1  UNL1       -0.0598
     18 C          -5.0965   -0.0028    1.2730 C.ar    1  UNL1       -0.0616
     19 C          -4.5858   -1.2680    0.9918 C.ar    1  UNL1       -0.0598
     20 C          -3.5168   -1.3577    0.1326 C.ar    1  UNL1       -0.0362
     21 C           3.0911    1.4359    0.4961 C.ar    1  UNL1       -0.0333
     22 C           4.3564    0.9010    0.2882 C.ar    1  UNL1       -0.0392
     23 H           6.3210   -0.9688   -0.8079 H       1  UNL1        0.1423
     24 H           6.1456   -1.7167    0.8192 H       1  UNL1        0.1423
     25 H           3.5113   -2.3909    0.4500 H       1  UNL1        0.0636
     26 H           1.3454   -1.3853    0.8052 H       1  UNL1        0.0638
     27 H          -0.7587    2.4447   -0.8292 H       1  UNL1        0.1752
     28 H           1.0918    0.3710   -2.6760 H       1  UNL1        0.0668
     29 H          -0.1323   -1.6993   -3.7827 H       1  UNL1        0.0848
     30 H          -3.0726    1.8581   -0.5685 H       1  UNL1        0.0639
     31 H          -4.9945    2.0782    0.9700 H       1  UNL1        0.0618
     32 H          -5.9360    0.0305    1.9517 H       1  UNL1        0.0618
     33 H          -5.0439   -2.1432    1.4567 H       1  UNL1        0.0618
     34 H          -3.0941   -2.3413   -0.1068 H       1  UNL1        0.0639
     35 H           2.9849    2.4985    0.5071 H       1  UNL1        0.0638
     36 H           5.2389    1.4962    0.1371 H       1  UNL1        0.0636
@<TRIPOS>BOND
     1     1     2    1
     2     2     3   ar
     3     3     4   ar
     4     4     5   ar
     5     5     6    1
     6     6     7    2
     7     6     8    2
     8     6     9    1
     9     9    10    1
    10    10    11   ar
    11    11    12   ar
    12    12    13   ar
    13    13    14   ar
    14    14    15    1
    15    15    16   ar
    16    16    17   ar
    17    17    18   ar
    18    18    19   ar
    19    19    20   ar
    20     5    21   ar
    21    21    22   ar
    22    22     2   ar
    23    14    10   ar
    24    20    15   ar
    25     1    23    1
    26     1    24    1
    27     3    25    1
    28     4    26    1
    29     9    27    1
    30    11    28    1
    31    12    29    1
    32    16    30    1
    33    17    31    1
    34    18    32    1
    35    19    33    1
    36    20    34    1
    37    21    35    1
    38    22    36    1
