
     RDKit          3D

 36 38  0  0  0  0  0  0  0  0999 V2000
    5.7605   -1.1007    0.0664 N   0  0  0  0  0  0  0  0  0  0  0  0
    4.4913   -0.4746    0.2743 C   0  0  0  0  0  0  0  0  0  0  0  0
    3.4174   -1.3051    0.4588 C   0  0  0  0  0  0  0  0  0  0  0  0
    2.1666   -0.7260    0.6640 C   0  0  0  0  0  0  0  0  0  0  0  0
    1.9909    0.6358    0.6848 C   0  0  0  0  0  0  0  0  0  0  0  0
    0.3933    1.2740    0.9475 S   0  0  0  0  0  6  0  0  0  0  0  0
    0.4310    2.5791    1.6977 O   0  0  0  0  0  0  0  0  0  0  0  0
   -0.4316    0.3280    1.8050 O   0  0  0  0  0  0  0  0  0  0  0  0
   -0.4493    1.4948   -0.5424 N   0  0  0  0  0  0  0  0  0  0  0  0
   -0.7271    0.4017   -1.3828 C   0  0  0  0  0  0  0  0  0  0  0  0
    0.1251   -0.0435   -2.3960 C   0  0  0  0  0  0  0  0  0  0  0  0
   -0.5342   -1.1193   -2.9550 C   0  0  0  0  0  0  0  0  0  0  0  0
   -1.6907   -1.2675   -2.2914 N   0  0  0  0  0  0  0  0  0  0  0  0
   -1.8240   -0.3674   -1.3477 N   0  0  0  0  0  0  0  0  0  0  0  0
   -2.9309   -0.2436   -0.4613 C   0  0  0  0  0  0  0  0  0  0  0  0
   -3.4848    0.9757   -0.1402 C   0  0  0  0  0  0  0  0  0  0  0  0
   -4.5590    1.1183    0.7176 C   0  0  0  0  0  0  0  0  0  0  0  0
   -5.0965   -0.0028    1.2730 C   0  0  0  0  0  0  0  0  0  0  0  0
   -4.5858   -1.2680    0.9918 C   0  0  0  0  0  0  0  0  0  0  0  0
   -3.5168   -1.3577    0.1326 C   0  0  0  0  0  0  0  0  0  0  0  0
    3.0911    1.4359    0.4961 C   0  0  0  0  0  0  0  0  0  0  0  0
    4.3564    0.9010    0.2882 C   0  0  0  0  0  0  0  0  0  0  0  0
    6.3210   -0.9688   -0.8079 H   0  0  0  0  0  0  0  0  0  0  0  0
    6.1456   -1.7167    0.8192 H   0  0  0  0  0  0  0  0  0  0  0  0
    3.5113   -2.3909    0.4500 H   0  0  0  0  0  0  0  0  0  0  0  0
    1.3454   -1.3853    0.8052 H   0  0  0  0  0  0  0  0  0  0  0  0
   -0.7587    2.4447   -0.8292 H   0  0  0  0  0  0  0  0  0  0  0  0
    1.0918    0.3710   -2.6760 H   0  0  0  0  0  0  0  0  0  0  0  0
   -0.1323   -1.6993   -3.7827 H   0  0  0  0  0  0  0  0  0  0  0  0
   -3.0726    1.8581   -0.5685 H   0  0  0  0  0  0  0  0  0  0  0  0
   -4.9945    2.0782    0.9700 H   0  0  0  0  0  0  0  0  0  0  0  0
   -5.9360    0.0305    1.9517 H   0  0  0  0  0  0  0  0  0  0  0  0
   -5.0439   -2.1432    1.4567 H   0  0  0  0  0  0  0  0  0  0  0  0
   -3.0941   -2.3413   -0.1068 H   0  0  0  0  0  0  0  0  0  0  0  0
    2.9849    2.4985    0.5071 H   0  0  0  0  0  0  0  0  0  0  0  0
    5.2389    1.4962    0.1371 H   0  0  0  0  0  0  0  0  0  0  0  0
  1  2  1  0
  2  3  2  0
  3  4  1  0
  4  5  2  0
  5  6  1  0
  6  7  2  0
  6  8  2  0
  6  9  1  0
  9 10  1  0
 10 11  2  0
 11 12  1  0
 12 13  2  0
 13 14  1  0
 14 15  1  0
 15 16  2  0
 16 17  1  0
 17 18  2  0
 18 19  1  0
 19 20  2  0
  5 21  1  0
 21 22  2  0
 22  2  1  0
 14 10  1  0
 20 15  1  0
  1 23  1  0
  1 24  1  0
  3 25  1  0
  4 26  1  0
  9 27  1  0
 11 28  1  0
 12 29  1  0
 16 30  1  0
 17 31  1  0
 18 32  1  0
 19 33  1  0
 20 34  1  0
 21 35  1  0
 22 36  1  0
M  END
$$$$
