@<TRIPOS>MOLECULE
*****
 74 77 0 0 0
SMALL
GASTEIGER

@<TRIPOS>ATOM
      1 C           5.0551    3.9001   -3.3072 C.3     1  UNL1        0.0741
      2 S           5.6940    2.2774   -2.9908 S.O2    1  UNL1        0.0467
      3 O           5.1340    1.3484   -4.0265 O.2     1  UNL1       -0.1549
      4 O           7.2011    2.2620   -3.1107 O.2     1  UNL1       -0.1549
      5 N           5.2517    1.6992   -1.4386 N.pl3   1  UNL1       -0.1762
      6 C           5.6747    2.3895   -0.2764 C.ar    1  UNL1        0.0594
      7 C           4.8969    3.3852    0.2639 C.ar    1  UNL1       -0.0205
      8 C           5.3029    4.0574    1.3971 C.ar    1  UNL1        0.0294
      9 N           6.4653    3.7353    1.9733 N.ar    1  UNL1       -0.2631
     10 C           7.2410    2.7671    1.4644 C.ar    1  UNL1        0.0294
     11 C           6.8723    2.0635    0.3252 C.ar    1  UNL1       -0.0205
     12 C           4.4570    0.5363   -1.3262 C.ar    1  UNL1        0.0572
     13 C           5.0351   -0.7088   -1.2335 C.ar    1  UNL1       -0.0386
     14 C           4.2690   -1.8525   -1.1175 C.ar    1  UNL1       -0.0592
     15 C           2.8727   -1.7354   -1.0937 C.ar    1  UNL1       -0.0495
     16 C           2.2735   -0.5049   -1.1844 C.ar    1  UNL1        0.0385
     17 C           0.8286   -0.3807   -1.1500 C.2     1  UNL1        0.2444
     18 O           0.2777    0.7662   -1.2928 O.2     1  UNL1       -0.2702
     19 N          -0.0709   -1.4617   -0.9630 N.am    1  UNL1       -0.3057
     20 C          -1.4986   -1.2669   -0.9380 C.3     1  UNL1        0.0545
     21 C          -2.2323   -2.0778   -1.9422 C.3     1  UNL1       -0.0067
     22 C          -2.0732   -3.5224   -1.8166 C.ar    1  UNL1       -0.0455
     23 C          -1.0442   -4.1575   -2.4709 C.ar    1  UNL1       -0.0585
     24 C          -0.9103   -5.5327   -2.3430 C.ar    1  UNL1       -0.0615
     25 C          -1.7907   -6.2891   -1.5686 C.ar    1  UNL1       -0.0617
     26 C          -2.8097   -5.6462   -0.9228 C.ar    1  UNL1       -0.0615
     27 C          -2.9414   -4.2664   -1.0534 C.ar    1  UNL1       -0.0585
     28 C          -1.9523   -1.4637    0.4892 C.3     1  UNL1        0.0862
     29 O          -1.6962   -2.7107    1.0046 O.3     1  UNL1       -0.3887
     30 C          -3.3407   -0.9898    0.7687 C.3     1  UNL1        0.0240
     31 N          -3.5237    0.3257    0.1800 N.3     1  UNL1       -0.3095
     32 C          -4.8215    0.8908    0.4107 C.3     1  UNL1        0.0213
     33 C          -5.0716    1.0950    1.8660 C.ar    1  UNL1       -0.0330
     34 C          -5.6449    0.1426    2.6538 C.ar    1  UNL1       -0.0573
     35 C          -5.8638    0.3657    3.9918 C.ar    1  UNL1       -0.0609
     36 C          -5.5115    1.5519    4.5697 C.ar    1  UNL1       -0.0501
     37 C          -4.9224    2.5574    3.8099 C.ar    1  UNL1        0.0551
     38 C          -4.5339    3.8541    4.4311 C.3     1  UNL1        0.4174
     39 F          -4.7894    3.8345    5.7735 F       1  UNL1       -0.1659
     40 F          -3.1567    3.9579    4.2681 F       1  UNL1       -0.1659
     41 F          -5.1168    4.9221    3.7781 F       1  UNL1       -0.1659
     42 C          -4.7161    2.3060    2.4756 C.ar    1  UNL1       -0.0457
     43 C           3.0616    0.5959   -1.2977 C.ar    1  UNL1       -0.0266
     44 H           4.9295    4.4032   -2.3353 H       1  UNL1        0.0482
     45 H           4.0238    3.7617   -3.7355 H       1  UNL1        0.0482
     46 H           5.6452    4.4403   -4.0454 H       1  UNL1        0.0482
     47 H           3.9475    3.6238   -0.2359 H       1  UNL1        0.0652
     48 H           4.6680    4.8436    1.8049 H       1  UNL1        0.0830
     49 H           8.1953    2.4819    1.9114 H       1  UNL1        0.0830
     50 H           7.5225    1.2757   -0.0746 H       1  UNL1        0.0652
     51 H           6.1157   -0.7921   -1.2532 H       1  UNL1        0.0637
     52 H           4.7578   -2.8133   -1.0478 H       1  UNL1        0.0618
     53 H           2.3394   -2.6515   -1.0016 H       1  UNL1        0.0625
     54 H           0.3246   -2.4161   -0.8413 H       1  UNL1        0.1494
     55 H          -1.6916   -0.1885   -1.1561 H       1  UNL1        0.0527
     56 H          -3.3026   -1.7911   -1.9245 H       1  UNL1        0.0332
     57 H          -1.8643   -1.7748   -2.9531 H       1  UNL1        0.0332
     58 H          -0.3155   -3.6444   -3.0910 H       1  UNL1        0.0620
     59 H          -0.1044   -6.0554   -2.8507 H       1  UNL1        0.0618
     60 H          -1.6730   -7.3804   -1.4757 H       1  UNL1        0.0618
     61 H          -3.4857   -6.2427   -0.3249 H       1  UNL1        0.0618
     62 H          -3.7669   -3.8220   -0.5175 H       1  UNL1        0.0620
     63 H          -1.2802   -0.7603    1.0870 H       1  UNL1        0.0624
     64 H          -2.4662   -3.0457    1.5361 H       1  UNL1        0.2099
     65 H          -4.1406   -1.6854    0.5036 H       1  UNL1        0.0450
     66 H          -3.4105   -0.8275    1.8821 H       1  UNL1        0.0450
     67 H          -2.7292    0.9518    0.3410 H       1  UNL1        0.1223
     68 H          -5.5649    0.1336    0.0369 H       1  UNL1        0.0473
     69 H          -4.9401    1.8334   -0.1323 H       1  UNL1        0.0473
     70 H          -5.9332   -0.8121    2.2104 H       1  UNL1        0.0621
     71 H          -6.3184   -0.4019    4.5923 H       1  UNL1        0.0618
     72 H          -5.6867    1.7164    5.6119 H       1  UNL1        0.0623
     73 H          -4.2648    3.0348    1.8210 H       1  UNL1        0.0626
     74 H           2.6380    1.5848   -1.3722 H       1  UNL1        0.0644
@<TRIPOS>BOND
     1     1     2    1
     2     2     3    2
     3     2     4    2
     4     2     5    1
     5     5     6    1
     6     6     7   ar
     7     7     8   ar
     8     8     9   ar
     9     9    10   ar
    10    10    11   ar
    11     5    12    1
    12    12    13   ar
    13    13    14   ar
    14    14    15   ar
    15    15    16   ar
    16    16    17    1
    17    17    18    2
    18    17    19   am
    19    19    20    1
    20    20    21    1
    21    21    22    1
    22    22    23   ar
    23    23    24   ar
    24    24    25   ar
    25    25    26   ar
    26    26    27   ar
    27    20    28    1
    28    28    29    1
    29    28    30    1
    30    30    31    1
    31    31    32    1
    32    32    33    1
    33    33    34   ar
    34    34    35   ar
    35    35    36   ar
    36    36    37   ar
    37    37    38    1
    38    38    39    1
    39    38    40    1
    40    38    41    1
    41    37    42   ar
    42    16    43   ar
    43    11     6   ar
    44    43    12   ar
    45    27    22   ar
    46    42    33   ar
    47     1    44    1
    48     1    45    1
    49     1    46    1
    50     7    47    1
    51     8    48    1
    52    10    49    1
    53    11    50    1
    54    13    51    1
    55    14    52    1
    56    15    53    1
    57    19    54    1
    58    20    55    1
    59    21    56    1
    60    21    57    1
    61    23    58    1
    62    24    59    1
    63    25    60    1
    64    26    61    1
    65    27    62    1
    66    28    63    1
    67    29    64    1
    68    30    65    1
    69    30    66    1
    70    31    67    1
    71    32    68    1
    72    32    69    1
    73    34    70    1
    74    35    71    1
    75    36    72    1
    76    42    73    1
    77    43    74    1
