
     RDKit          3D

 74 77  0  0  0  0  0  0  0  0999 V2000
    5.0551    3.9001   -3.3072 C   0  0  0  0  0  0  0  0  0  0  0  0
    5.6940    2.2774   -2.9908 S   0  0  0  0  0  6  0  0  0  0  0  0
    5.1340    1.3484   -4.0265 O   0  0  0  0  0  0  0  0  0  0  0  0
    7.2011    2.2620   -3.1107 O   0  0  0  0  0  0  0  0  0  0  0  0
    5.2517    1.6992   -1.4386 N   0  0  0  0  0  0  0  0  0  0  0  0
    5.6747    2.3895   -0.2764 C   0  0  0  0  0  0  0  0  0  0  0  0
    4.8969    3.3852    0.2639 C   0  0  0  0  0  0  0  0  0  0  0  0
    5.3029    4.0574    1.3971 C   0  0  0  0  0  0  0  0  0  0  0  0
    6.4653    3.7353    1.9733 N   0  0  0  0  0  0  0  0  0  0  0  0
    7.2410    2.7671    1.4644 C   0  0  0  0  0  0  0  0  0  0  0  0
    6.8723    2.0635    0.3252 C   0  0  0  0  0  0  0  0  0  0  0  0
    4.4570    0.5363   -1.3262 C   0  0  0  0  0  0  0  0  0  0  0  0
    5.0351   -0.7088   -1.2335 C   0  0  0  0  0  0  0  0  0  0  0  0
    4.2690   -1.8525   -1.1175 C   0  0  0  0  0  0  0  0  0  0  0  0
    2.8727   -1.7354   -1.0937 C   0  0  0  0  0  0  0  0  0  0  0  0
    2.2735   -0.5049   -1.1844 C   0  0  0  0  0  0  0  0  0  0  0  0
    0.8286   -0.3807   -1.1500 C   0  0  0  0  0  0  0  0  0  0  0  0
    0.2777    0.7662   -1.2928 O   0  0  0  0  0  0  0  0  0  0  0  0
   -0.0709   -1.4617   -0.9630 N   0  0  0  0  0  0  0  0  0  0  0  0
   -1.4986   -1.2669   -0.9380 C   0  0  1  0  0  0  0  0  0  0  0  0
   -2.2323   -2.0778   -1.9422 C   0  0  0  0  0  0  0  0  0  0  0  0
   -2.0732   -3.5224   -1.8166 C   0  0  0  0  0  0  0  0  0  0  0  0
   -1.0442   -4.1575   -2.4709 C   0  0  0  0  0  0  0  0  0  0  0  0
   -0.9103   -5.5327   -2.3430 C   0  0  0  0  0  0  0  0  0  0  0  0
   -1.7907   -6.2891   -1.5686 C   0  0  0  0  0  0  0  0  0  0  0  0
   -2.8097   -5.6462   -0.9228 C   0  0  0  0  0  0  0  0  0  0  0  0
   -2.9414   -4.2664   -1.0534 C   0  0  0  0  0  0  0  0  0  0  0  0
   -1.9523   -1.4637    0.4892 C   0  0  2  0  0  0  0  0  0  0  0  0
   -1.6962   -2.7107    1.0046 O   0  0  0  0  0  0  0  0  0  0  0  0
   -3.3407   -0.9898    0.7687 C   0  0  0  0  0  0  0  0  0  0  0  0
   -3.5237    0.3257    0.1800 N   0  0  0  0  0  0  0  0  0  0  0  0
   -4.8215    0.8908    0.4107 C   0  0  0  0  0  0  0  0  0  0  0  0
   -5.0716    1.0950    1.8660 C   0  0  0  0  0  0  0  0  0  0  0  0
   -5.6449    0.1426    2.6538 C   0  0  0  0  0  0  0  0  0  0  0  0
   -5.8638    0.3657    3.9918 C   0  0  0  0  0  0  0  0  0  0  0  0
   -5.5115    1.5519    4.5697 C   0  0  0  0  0  0  0  0  0  0  0  0
   -4.9224    2.5574    3.8099 C   0  0  0  0  0  0  0  0  0  0  0  0
   -4.5339    3.8541    4.4311 C   0  0  0  0  0  0  0  0  0  0  0  0
   -4.7894    3.8345    5.7735 F   0  0  0  0  0  0  0  0  0  0  0  0
   -3.1567    3.9579    4.2681 F   0  0  0  0  0  0  0  0  0  0  0  0
   -5.1168    4.9221    3.7781 F   0  0  0  0  0  0  0  0  0  0  0  0
   -4.7161    2.3060    2.4756 C   0  0  0  0  0  0  0  0  0  0  0  0
    3.0616    0.5959   -1.2977 C   0  0  0  0  0  0  0  0  0  0  0  0
    4.9295    4.4032   -2.3353 H   0  0  0  0  0  0  0  0  0  0  0  0
    4.0238    3.7617   -3.7355 H   0  0  0  0  0  0  0  0  0  0  0  0
    5.6452    4.4403   -4.0454 H   0  0  0  0  0  0  0  0  0  0  0  0
    3.9475    3.6238   -0.2359 H   0  0  0  0  0  0  0  0  0  0  0  0
    4.6680    4.8436    1.8049 H   0  0  0  0  0  0  0  0  0  0  0  0
    8.1953    2.4819    1.9114 H   0  0  0  0  0  0  0  0  0  0  0  0
    7.5225    1.2757   -0.0746 H   0  0  0  0  0  0  0  0  0  0  0  0
    6.1157   -0.7921   -1.2532 H   0  0  0  0  0  0  0  0  0  0  0  0
    4.7578   -2.8133   -1.0478 H   0  0  0  0  0  0  0  0  0  0  0  0
    2.3394   -2.6515   -1.0016 H   0  0  0  0  0  0  0  0  0  0  0  0
    0.3246   -2.4161   -0.8413 H   0  0  0  0  0  0  0  0  0  0  0  0
   -1.6916   -0.1885   -1.1561 H   0  0  0  0  0  0  0  0  0  0  0  0
   -3.3026   -1.7911   -1.9245 H   0  0  0  0  0  0  0  0  0  0  0  0
   -1.8643   -1.7748   -2.9531 H   0  0  0  0  0  0  0  0  0  0  0  0
   -0.3155   -3.6444   -3.0910 H   0  0  0  0  0  0  0  0  0  0  0  0
   -0.1044   -6.0554   -2.8507 H   0  0  0  0  0  0  0  0  0  0  0  0
   -1.6730   -7.3804   -1.4757 H   0  0  0  0  0  0  0  0  0  0  0  0
   -3.4857   -6.2427   -0.3249 H   0  0  0  0  0  0  0  0  0  0  0  0
   -3.7669   -3.8220   -0.5175 H   0  0  0  0  0  0  0  0  0  0  0  0
   -1.2802   -0.7603    1.0870 H   0  0  0  0  0  0  0  0  0  0  0  0
   -2.4662   -3.0457    1.5361 H   0  0  0  0  0  0  0  0  0  0  0  0
   -4.1406   -1.6854    0.5036 H   0  0  0  0  0  0  0  0  0  0  0  0
   -3.4105   -0.8275    1.8821 H   0  0  0  0  0  0  0  0  0  0  0  0
   -2.7292    0.9518    0.3410 H   0  0  0  0  0  0  0  0  0  0  0  0
   -5.5649    0.1336    0.0369 H   0  0  0  0  0  0  0  0  0  0  0  0
   -4.9401    1.8334   -0.1323 H   0  0  0  0  0  0  0  0  0  0  0  0
   -5.9332   -0.8121    2.2104 H   0  0  0  0  0  0  0  0  0  0  0  0
   -6.3184   -0.4019    4.5923 H   0  0  0  0  0  0  0  0  0  0  0  0
   -5.6867    1.7164    5.6119 H   0  0  0  0  0  0  0  0  0  0  0  0
   -4.2648    3.0348    1.8210 H   0  0  0  0  0  0  0  0  0  0  0  0
    2.6380    1.5848   -1.3722 H   0  0  0  0  0  0  0  0  0  0  0  0
  1  2  1  0
  2  3  2  0
  2  4  2  0
  2  5  1  0
  5  6  1  0
  6  7  2  0
  7  8  1  0
  8  9  2  0
  9 10  1  0
 10 11  2  0
  5 12  1  0
 12 13  2  0
 13 14  1  0
 14 15  2  0
 15 16  1  0
 16 17  1  0
 17 18  2  0
 17 19  1  0
 19 20  1  0
 20 21  1  0
 21 22  1  0
 22 23  2  0
 23 24  1  0
 24 25  2  0
 25 26  1  0
 26 27  2  0
 20 28  1  0
 28 29  1  0
 28 30  1  0
 30 31  1  0
 31 32  1  0
 32 33  1  0
 33 34  2  0
 34 35  1  0
 35 36  2  0
 36 37  1  0
 37 38  1  0
 38 39  1  0
 38 40  1  0
 38 41  1  0
 37 42  2  0
 16 43  2  0
 11  6  1  0
 43 12  1  0
 27 22  1  0
 42 33  1  0
  1 44  1  0
  1 45  1  0
  1 46  1  0
  7 47  1  0
  8 48  1  0
 10 49  1  0
 11 50  1  0
 13 51  1  0
 14 52  1  0
 15 53  1  0
 19 54  1  0
 20 55  1  6
 21 56  1  0
 21 57  1  0
 23 58  1  0
 24 59  1  0
 25 60  1  0
 26 61  1  0
 27 62  1  0
 28 63  1  1
 29 64  1  0
 30 65  1  0
 30 66  1  0
 31 67  1  0
 32 68  1  0
 32 69  1  0
 34 70  1  0
 35 71  1  0
 36 72  1  0
 42 73  1  0
 43 74  1  0
M  END
$$$$
