@<TRIPOS>MOLECULE
*****
 104 108 0 0 0
SMALL
GASTEIGER

@<TRIPOS>ATOM
      1 C          -8.4823   -1.2004   -6.0087 C.3     1  UNL1        0.0364
      2 O          -7.6720   -0.6699   -5.0341 O.3     1  UNL1       -0.3830
      3 C          -6.3418   -0.6406   -5.3622 C.3     1  UNL1        0.0476
      4 C          -5.4825   -0.0635   -4.2541 C.3     1  UNL1       -0.0255
      5 C          -5.5953   -0.8663   -2.9903 C.3     1  UNL1       -0.0255
      6 C          -4.7500   -0.3010   -1.8860 C.ar    1  UNL1       -0.0435
      7 C          -3.4565   -0.6781   -1.6899 C.ar    1  UNL1       -0.0537
      8 C          -2.6462   -0.1725   -0.6466 C.ar    1  UNL1       -0.0264
      9 C          -1.2804   -0.6722   -0.4931 C.3     1  UNL1        0.0401
     10 N          -0.9654   -1.4633    0.6465 N.am    1  UNL1       -0.2938
     11 C           0.0092   -1.0315    1.5873 C.2     1  UNL1        0.2210
     12 O           0.0854   -1.7957    2.6444 O.2     1  UNL1       -0.2752
     13 C           0.9297    0.1282    1.5166 C.3     1  UNL1        0.0550
     14 C           0.3454    1.4741    1.5880 C.3     1  UNL1        0.0076
     15 N           0.4265    2.1048    2.9096 N.3     1  UNL1       -0.3152
     16 C           1.8523    2.2720    3.1424 C.3     1  UNL1       -0.0035
     17 C           2.4015    0.9048    3.4145 C.3     1  UNL1       -0.0329
     18 C           2.1193   -0.1312    2.4225 C.3     1  UNL1       -0.0024
     19 C           3.3509   -0.5005    1.6853 C.ar    1  UNL1       -0.0432
     20 C           4.2851    0.4567    1.4076 C.ar    1  UNL1       -0.0548
     21 C           5.4365    0.0958    0.7284 C.ar    1  UNL1       -0.0197
     22 C           5.6968   -1.1986    0.3117 C.ar    1  UNL1        0.1207
     23 O           6.7354   -1.6509   -0.3173 O.3     1  UNL1       -0.4886
     24 C           7.7953   -2.0575   -0.9453 C.3     1  UNL1        0.1235
     25 C           8.1983   -1.3445   -2.2036 C.3     1  UNL1        0.1236
     26 O           8.5814   -0.0277   -2.1132 O.3     1  UNL1       -0.4857
     27 C           9.7933    0.3515   -1.5752 C.ar    1  UNL1        0.1571
     28 C          10.0871    0.6090   -0.2863 C.ar    1  UNL1        0.0842
     29 CL          8.8716    0.4610    0.9712 Cl      1  UNL1       -0.0797
     30 C          11.3804    0.9982    0.1461 C.ar    1  UNL1       -0.0368
     31 C          12.4012    1.1294   -0.7499 C.ar    1  UNL1       -0.0475
     32 C          13.7589    1.5371   -0.3108 C.3     1  UNL1       -0.0396
     33 C          12.1282    0.8714   -2.0747 C.ar    1  UNL1       -0.0368
     34 C          10.8819    0.4963   -2.4891 C.ar    1  UNL1        0.0842
     35 CL         10.5259    0.1622   -4.1760 Cl      1  UNL1       -0.0797
     36 C           4.6740   -2.1425    0.6364 C.ar    1  UNL1       -0.0197
     37 C           3.5538   -1.8157    1.2909 C.ar    1  UNL1       -0.0548
     38 C          -1.5322   -2.7859    0.9339 C.3     1  UNL1        0.0265
     39 C          -1.7136   -3.6504   -0.2790 C.3     1  UNL1       -0.0326
     40 C          -2.8680   -3.2281    0.5545 C.3     1  UNL1       -0.0326
     41 C          -3.2751    0.7343    0.1561 C.ar    1  UNL1       -0.0152
     42 C          -4.6118    1.1404   -0.0257 C.ar    1  UNL1        0.1211
     43 O          -5.1502    2.0656    0.8451 O.3     1  UNL1       -0.4919
     44 C          -6.3889    2.6178    0.9382 C.3     1  UNL1        0.0906
     45 C          -7.5612    1.7677    1.2620 C.3     1  UNL1       -0.0034
     46 C          -7.5749    1.1028    2.6028 C.3     1  UNL1        0.0651
     47 C          -7.5368    2.1707    3.6998 C.3     1  UNL1       -0.0496
     48 C          -8.9180    0.3746    2.7097 C.3     1  UNL1       -0.0496
     49 C          -6.5104    0.1235    2.8005 C.2     1  UNL1        0.3105
     50 O          -6.7704   -1.1184    2.8331 O.2     1  UNL1       -0.2504
     51 O          -5.1718    0.4751    2.9674 O.3     1  UNL1       -0.4802
     52 C          -5.3493    0.6260   -1.0444 C.ar    1  UNL1       -0.0167
     53 H          -8.2216   -2.2513   -6.2551 H       1  UNL1        0.0523
     54 H          -8.5243   -0.5784   -6.9289 H       1  UNL1        0.0523
     55 H          -9.5382   -1.2463   -5.6217 H       1  UNL1        0.0523
     56 H          -6.0333   -1.6519   -5.6332 H       1  UNL1        0.0560
     57 H          -6.2419    0.0414   -6.2402 H       1  UNL1        0.0560
     58 H          -5.6557    1.0013   -4.0798 H       1  UNL1        0.0290
     59 H          -4.4296   -0.1690   -4.6201 H       1  UNL1        0.0290
     60 H          -5.3046   -1.9198   -3.0980 H       1  UNL1        0.0314
     61 H          -6.6577   -0.8794   -2.6100 H       1  UNL1        0.0314
     62 H          -2.9990   -1.4015   -2.3519 H       1  UNL1        0.0624
     63 H          -1.0574   -1.3383   -1.3902 H       1  UNL1        0.0514
     64 H          -0.5205    0.1555   -0.6578 H       1  UNL1        0.0514
     65 H           1.3255    0.0409    0.4288 H       1  UNL1        0.0413
     66 H          -0.6497    1.5377    1.1933 H       1  UNL1        0.0432
     67 H           1.0046    2.1589    0.9477 H       1  UNL1        0.0432
     68 H           0.0136    1.5206    3.6414 H       1  UNL1        0.1220
     69 H           2.0341    2.8897    4.0609 H       1  UNL1        0.0424
     70 H           2.3292    2.7812    2.3080 H       1  UNL1        0.0424
     71 H           3.5082    1.0683    3.5905 H       1  UNL1        0.0283
     72 H           2.0434    0.6474    4.4538 H       1  UNL1        0.0283
     73 H           1.8344   -1.0770    3.0026 H       1  UNL1        0.0357
     74 H           4.2007    1.5164    1.6898 H       1  UNL1        0.0622
     75 H           6.1514    0.8859    0.4983 H       1  UNL1        0.0654
     76 H           7.6412   -3.1538   -1.3001 H       1  UNL1        0.0731
     77 H           8.7378   -2.2138   -0.3117 H       1  UNL1        0.0731
     78 H           7.4004   -1.5360   -2.9688 H       1  UNL1        0.0731
     79 H           9.0811   -1.9249   -2.6045 H       1  UNL1        0.0731
     80 H          11.5423    1.1909    1.2128 H       1  UNL1        0.0636
     81 H          14.4662    1.5942   -1.1713 H       1  UNL1        0.0278
     82 H          13.7375    2.5099    0.2234 H       1  UNL1        0.0278
     83 H          14.1986    0.7759    0.3767 H       1  UNL1        0.0278
     84 H          12.9458    0.9809   -2.7771 H       1  UNL1        0.0636
     85 H           4.8049   -3.1936    0.3367 H       1  UNL1        0.0654
     86 H           2.7523   -2.5218    1.5525 H       1  UNL1        0.0622
     87 H          -1.0566   -3.2758    1.8270 H       1  UNL1        0.0500
     88 H          -1.4602   -4.7345   -0.2181 H       1  UNL1        0.0284
     89 H          -1.6983   -3.2493   -1.2999 H       1  UNL1        0.0284
     90 H          -3.6479   -2.6158    0.1530 H       1  UNL1        0.0284
     91 H          -3.3048   -4.0119    1.2675 H       1  UNL1        0.0284
     92 H          -2.7589    1.1680    0.9911 H       1  UNL1        0.0657
     93 H          -6.3497    3.4022    1.7553 H       1  UNL1        0.0697
     94 H          -6.6657    3.2346    0.0252 H       1  UNL1        0.0697
     95 H          -7.8177    0.9849    0.5182 H       1  UNL1        0.0308
     96 H          -8.5041    2.4196    1.2629 H       1  UNL1        0.0308
     97 H          -8.1879    1.7870    4.5326 H       1  UNL1        0.0240
     98 H          -6.5205    2.2079    4.1157 H       1  UNL1        0.0240
     99 H          -7.9562    3.1211    3.3691 H       1  UNL1        0.0240
    100 H          -9.7555    1.0978    2.6323 H       1  UNL1        0.0240
    101 H          -8.9642   -0.3006    1.8354 H       1  UNL1        0.0240
    102 H          -8.9814   -0.1766    3.6719 H       1  UNL1        0.0240
    103 H          -4.5985   -0.1680    3.5090 H       1  UNL1        0.2951
    104 H          -6.3919    0.9216   -1.2422 H       1  UNL1        0.0657
@<TRIPOS>BOND
     1     1     2    1
     2     2     3    1
     3     3     4    1
     4     4     5    1
     5     5     6    1
     6     6     7   ar
     7     7     8   ar
     8     8     9    1
     9     9    10    1
    10    10    11   am
    11    11    12    2
    12    11    13    1
    13    13    14    1
    14    14    15    1
    15    15    16    1
    16    16    17    1
    17    17    18    1
    18    18    19    1
    19    19    20   ar
    20    20    21   ar
    21    21    22   ar
    22    22    23    1
    23    23    24    1
    24    24    25    1
    25    25    26    1
    26    26    27    1
    27    27    28   ar
    28    28    29    1
    29    28    30   ar
    30    30    31   ar
    31    31    32    1
    32    31    33   ar
    33    33    34   ar
    34    34    35    1
    35    22    36   ar
    36    36    37   ar
    37    10    38    1
    38    38    39    1
    39    39    40    1
    40     8    41   ar
    41    41    42   ar
    42    42    43    1
    43    43    44    1
    44    44    45    1
    45    45    46    1
    46    46    47    1
    47    46    48    1
    48    46    49    1
    49    49    50    2
    50    49    51    1
    51    42    52   ar
    52    52     6   ar
    53    18    13    1
    54    37    19   ar
    55    40    38    1
    56    34    27   ar
    57     1    53    1
    58     1    54    1
    59     1    55    1
    60     3    56    1
    61     3    57    1
    62     4    58    1
    63     4    59    1
    64     5    60    1
    65     5    61    1
    66     7    62    1
    67     9    63    1
    68     9    64    1
    69    13    65    1
    70    14    66    1
    71    14    67    1
    72    15    68    1
    73    16    69    1
    74    16    70    1
    75    17    71    1
    76    17    72    1
    77    18    73    1
    78    20    74    1
    79    21    75    1
    80    24    76    1
    81    24    77    1
    82    25    78    1
    83    25    79    1
    84    30    80    1
    85    32    81    1
    86    32    82    1
    87    32    83    1
    88    33    84    1
    89    36    85    1
    90    37    86    1
    91    38    87    1
    92    39    88    1
    93    39    89    1
    94    40    90    1
    95    40    91    1
    96    41    92    1
    97    44    93    1
    98    44    94    1
    99    45    95    1
   100    45    96    1
   101    47    97    1
   102    47    98    1
   103    47    99    1
   104    48   100    1
   105    48   101    1
   106    48   102    1
   107    51   103    1
   108    52   104    1
