@<TRIPOS>MOLECULE
*****
 29 31 0 0 0
SMALL
GASTEIGER

@<TRIPOS>ATOM
      1 N          -0.5115    2.4305    0.9308 N.1     1  UNL1       -0.1908
      2 C          -0.3624    1.3754    0.4188 C.1     1  UNL1        0.0998
      3 C          -0.1896    0.0960   -0.1809 C.2     1  UNL1        0.0616
      4 C          -1.2586   -0.6568   -0.3602 C.2     1  UNL1       -0.0351
      5 C          -2.5794   -0.2484    0.0171 C.ar    1  UNL1       -0.0057
      6 C          -3.3920   -1.1772    0.6753 C.ar    1  UNL1       -0.0517
      7 C          -4.6666   -0.8642    1.0460 C.ar    1  UNL1       -0.0430
      8 C          -5.1565    0.3807    0.7678 C.ar    1  UNL1        0.0276
      9 N          -4.3690    1.2737    0.1319 N.ar    1  UNL1       -0.2627
     10 C          -3.1020    0.9934   -0.2480 C.ar    1  UNL1        0.0347
     11 C           1.1046   -0.4194   -0.6037 C.ar    1  UNL1        0.0189
     12 C           1.3441   -1.6648   -1.1989 C.ar    1  UNL1        0.0125
     13 N           2.6344   -1.8063   -1.4542 N.ar    1  UNL1       -0.3452
     14 C           3.2743   -0.7088   -1.0551 C.ar    1  UNL1        0.1387
     15 N           4.5870   -0.4342   -1.1261 N.ar    1  UNL1       -0.2375
     16 C           5.0299    0.7377   -0.6647 C.ar    1  UNL1        0.0299
     17 C           4.1645    1.6484   -0.1268 C.ar    1  UNL1       -0.0429
     18 C           2.8003    1.3830   -0.0436 C.ar    1  UNL1       -0.0490
     19 C           2.3398    0.1668   -0.5229 C.ar    1  UNL1        0.0270
     20 H          -1.1199   -1.6494   -0.8244 H       1  UNL1        0.0637
     21 H          -3.0127   -2.1750    0.9030 H       1  UNL1        0.0624
     22 H          -5.2829   -1.6113    1.5613 H       1  UNL1        0.0633
     23 H          -6.1583    0.6733    1.0418 H       1  UNL1        0.0829
     24 H          -2.5445    1.7615   -0.7619 H       1  UNL1        0.0835
     25 H           0.6047   -2.4243   -1.4303 H       1  UNL1        0.0814
     26 H           3.0622   -2.6506   -1.8994 H       1  UNL1        0.1668
     27 H           6.1121    0.9085   -0.7496 H       1  UNL1        0.0830
     28 H           4.5430    2.5896    0.2391 H       1  UNL1        0.0633
     29 H           2.1052    2.0725    0.3705 H       1  UNL1        0.0625
@<TRIPOS>BOND
     1     1     2    3
     2     2     3    1
     3     3     4    2
     4     4     5    1
     5     5     6   ar
     6     6     7   ar
     7     7     8   ar
     8     8     9   ar
     9     9    10   ar
    10     3    11    1
    11    11    12   ar
    12    12    13   ar
    13    13    14   ar
    14    14    15   ar
    15    15    16   ar
    16    16    17   ar
    17    17    18   ar
    18    18    19   ar
    19    10     5   ar
    20    19    11   ar
    21    19    14   ar
    22     4    20    1
    23     6    21    1
    24     7    22    1
    25     8    23    1
    26    10    24    1
    27    12    25    1
    28    13    26    1
    29    16    27    1
    30    17    28    1
    31    18    29    1
