
     RDKit          3D

 43 45  0  0  0  0  0  0  0  0999 V2000
   -0.7995   -5.4921    0.2324 C   0  0  0  0  0  0  0  0  0  0  0  0
   -0.2736   -4.5482   -1.2153 S   0  0  0  0  0  0  0  0  0  0  0  0
   -0.0193   -2.8434   -0.7727 C   0  0  0  0  0  0  0  0  0  0  0  0
    1.1502   -2.3491   -0.3377 N   0  0  0  0  0  0  0  0  0  0  0  0
    0.9950   -1.0361   -0.0950 C   0  0  0  0  0  0  0  0  0  0  0  0
    2.0558   -0.1315    0.3988 C   0  0  0  0  0  0  0  0  0  0  0  0
    2.6463    0.7861   -0.4439 C   0  0  0  0  0  0  0  0  0  0  0  0
    3.6477    1.6493   -0.0039 C   0  0  0  0  0  0  0  0  0  0  0  0
    4.0703    1.5995    1.2987 C   0  0  0  0  0  0  0  0  0  0  0  0
    5.0740    2.4659    1.7362 O   0  0  0  0  0  0  0  0  0  0  0  0
    4.6111    3.7223    2.2526 C   0  0  0  0  0  0  0  0  0  0  0  0
    5.6520    4.5156    2.6607 F   0  0  0  0  0  0  0  0  0  0  0  0
    3.7216    3.4272    3.2615 F   0  0  0  0  0  0  0  0  0  0  0  0
    3.9419    4.3294    1.1822 F   0  0  0  0  0  0  0  0  0  0  0  0
    3.4945    0.6901    2.1602 C   0  0  0  0  0  0  0  0  0  0  0  0
    2.5007   -0.1592    1.7037 C   0  0  0  0  0  0  0  0  0  0  0  0
   -0.2677   -0.7408   -0.3841 N   0  0  0  0  0  0  0  0  0  0  0  0
   -0.8894   -1.8258   -0.7945 N   0  0  0  0  0  0  0  0  0  0  0  0
   -2.2538   -1.9666   -1.2071 C   0  0  0  0  0  0  0  0  0  0  0  0
   -2.6931   -3.0845   -1.5738 O   0  0  0  0  0  0  0  0  0  0  0  0
   -3.1389   -0.8603   -1.2136 N   0  0  0  0  0  0  0  0  0  0  0  0
   -4.5037   -1.0557   -1.6390 C   0  0  0  0  0  0  0  0  0  0  0  0
   -2.6736    0.4250   -0.8025 C   0  0  0  0  0  0  0  0  0  0  0  0
   -2.7632    0.8056    0.5251 C   0  0  0  0  0  0  0  0  0  0  0  0
   -2.3163    2.0457    0.9340 C   0  0  0  0  0  0  0  0  0  0  0  0
   -1.7843    2.8757   -0.0272 C   0  0  0  0  0  0  0  0  0  0  0  0
   -1.6952    2.4922   -1.3585 C   0  0  0  0  0  0  0  0  0  0  0  0
   -2.1426    1.2514   -1.7663 C   0  0  0  0  0  0  0  0  0  0  0  0
   -1.8901   -5.7000    0.1065 H   0  0  0  0  0  0  0  0  0  0  0  0
   -0.2422   -6.4556    0.3235 H   0  0  0  0  0  0  0  0  0  0  0  0
   -0.6516   -4.9492    1.1718 H   0  0  0  0  0  0  0  0  0  0  0  0
    2.3550    0.8703   -1.4763 H   0  0  0  0  0  0  0  0  0  0  0  0
    4.1096    2.3728   -0.6789 H   0  0  0  0  0  0  0  0  0  0  0  0
    3.8514    0.6775    3.1810 H   0  0  0  0  0  0  0  0  0  0  0  0
    2.0565   -0.8650    2.3795 H   0  0  0  0  0  0  0  0  0  0  0  0
   -5.1483   -1.3745   -0.7777 H   0  0  0  0  0  0  0  0  0  0  0  0
   -4.9250   -0.1257   -2.1179 H   0  0  0  0  0  0  0  0  0  0  0  0
   -4.5079   -1.8908   -2.3702 H   0  0  0  0  0  0  0  0  0  0  0  0
   -3.1752    0.1606    1.2644 H   0  0  0  0  0  0  0  0  0  0  0  0
   -2.3830    2.3514    1.9721 H   0  0  0  0  0  0  0  0  0  0  0  0
   -1.4363    3.8476    0.3046 H   0  0  0  0  0  0  0  0  0  0  0  0
   -1.2743    3.1649   -2.0831 H   0  0  0  0  0  0  0  0  0  0  0  0
   -2.0853    0.9279   -2.7946 H   0  0  0  0  0  0  0  0  0  0  0  0
  1  2  1  0
  2  3  1  0
  3  4  2  0
  4  5  1  0
  5  6  1  0
  6  7  2  0
  7  8  1  0
  8  9  2  0
  9 10  1  0
 10 11  1  0
 11 12  1  0
 11 13  1  0
 11 14  1  0
  9 15  1  0
 15 16  2  0
  5 17  2  0
 17 18  1  0
 18 19  1  0
 19 20  2  0
 19 21  1  0
 21 22  1  0
 21 23  1  0
 23 24  2  0
 24 25  1  0
 25 26  2  0
 26 27  1  0
 27 28  2  0
 18  3  1  0
 28 23  1  0
 16  6  1  0
  1 29  1  0
  1 30  1  0
  1 31  1  0
  7 32  1  0
  8 33  1  0
 15 34  1  0
 16 35  1  0
 22 36  1  0
 22 37  1  0
 22 38  1  0
 24 39  1  0
 25 40  1  0
 26 41  1  0
 27 42  1  0
 28 43  1  0
M  END
$$$$
