@<TRIPOS>MOLECULE
*****
 43 45 0 0 0
SMALL
GASTEIGER

@<TRIPOS>ATOM
      1 C          -0.7995   -5.4921    0.2324 C.3     1  UNL1       -0.0106
      2 S          -0.2736   -4.5482   -1.2153 S.3     1  UNL1       -0.0892
      3 C          -0.0193   -2.8434   -0.7727 C.ar    1  UNL1        0.1960
      4 N           1.1502   -2.3491   -0.3377 N.ar    1  UNL1       -0.2003
      5 C           0.9950   -1.0361   -0.0950 C.ar    1  UNL1        0.1829
      6 C           2.0558   -0.1315    0.3988 C.ar    1  UNL1        0.0211
      7 C           2.6463    0.7861   -0.4439 C.ar    1  UNL1       -0.0475
      8 C           3.6477    1.6493   -0.0039 C.ar    1  UNL1       -0.0190
      9 C           4.0703    1.5995    1.2987 C.ar    1  UNL1        0.1300
     10 O           5.0740    2.4659    1.7362 O.3     1  UNL1       -0.4057
     11 C           4.6111    3.7223    2.2526 C.3     1  UNL1        0.5752
     12 F           5.6520    4.5156    2.6607 F       1  UNL1       -0.1328
     13 F           3.7216    3.4272    3.2615 F       1  UNL1       -0.1328
     14 F           3.9419    4.3294    1.1822 F       1  UNL1       -0.1328
     15 C           3.4945    0.6901    2.1602 C.ar    1  UNL1       -0.0190
     16 C           2.5007   -0.1592    1.7037 C.ar    1  UNL1       -0.0475
     17 N          -0.2677   -0.7408   -0.3841 N.ar    1  UNL1       -0.1403
     18 N          -0.8894   -1.8258   -0.7945 N.ar    1  UNL1       -0.1571
     19 C          -2.2538   -1.9666   -1.2071 C.2     1  UNL1        0.3437
     20 O          -2.6931   -3.0845   -1.5738 O.2     1  UNL1       -0.2471
     21 N          -3.1389   -0.8603   -1.2136 N.am    1  UNL1       -0.2549
     22 C          -4.5037   -1.0557   -1.6390 C.3     1  UNL1        0.0100
     23 C          -2.6736    0.4250   -0.8025 C.ar    1  UNL1        0.0377
     24 C          -2.7632    0.8056    0.5251 C.ar    1  UNL1       -0.0402
     25 C          -2.3163    2.0457    0.9340 C.ar    1  UNL1       -0.0600
     26 C          -1.7843    2.8757   -0.0272 C.ar    1  UNL1       -0.0616
     27 C          -1.6952    2.4922   -1.3585 C.ar    1  UNL1       -0.0600
     28 C          -2.1426    1.2514   -1.7663 C.ar    1  UNL1       -0.0402
     29 H          -1.8901   -5.7000    0.1065 H       1  UNL1        0.0345
     30 H          -0.2422   -6.4556    0.3235 H       1  UNL1        0.0345
     31 H          -0.6516   -4.9492    1.1718 H       1  UNL1        0.0345
     32 H           2.3550    0.8703   -1.4763 H       1  UNL1        0.0626
     33 H           4.1096    2.3728   -0.6789 H       1  UNL1        0.0654
     34 H           3.8514    0.6775    3.1810 H       1  UNL1        0.0654
     35 H           2.0565   -0.8650    2.3795 H       1  UNL1        0.0626
     36 H          -5.1483   -1.3745   -0.7777 H       1  UNL1        0.0433
     37 H          -4.9250   -0.1257   -2.1179 H       1  UNL1        0.0433
     38 H          -4.5079   -1.8908   -2.3702 H       1  UNL1        0.0433
     39 H          -3.1752    0.1606    1.2644 H       1  UNL1        0.0636
     40 H          -2.3830    2.3514    1.9721 H       1  UNL1        0.0618
     41 H          -1.4363    3.8476    0.3046 H       1  UNL1        0.0618
     42 H          -1.2743    3.1649   -2.0831 H       1  UNL1        0.0618
     43 H          -2.0853    0.9279   -2.7946 H       1  UNL1        0.0636
@<TRIPOS>BOND
     1     1     2    1
     2     2     3    1
     3     3     4   ar
     4     4     5   ar
     5     5     6    1
     6     6     7   ar
     7     7     8   ar
     8     8     9   ar
     9     9    10    1
    10    10    11    1
    11    11    12    1
    12    11    13    1
    13    11    14    1
    14     9    15   ar
    15    15    16   ar
    16     5    17   ar
    17    17    18   ar
    18    18    19   am
    19    19    20    2
    20    19    21   am
    21    21    22    1
    22    21    23    1
    23    23    24   ar
    24    24    25   ar
    25    25    26   ar
    26    26    27   ar
    27    27    28   ar
    28    18     3   ar
    29    28    23   ar
    30    16     6   ar
    31     1    29    1
    32     1    30    1
    33     1    31    1
    34     7    32    1
    35     8    33    1
    36    15    34    1
    37    16    35    1
    38    22    36    1
    39    22    37    1
    40    22    38    1
    41    24    39    1
    42    25    40    1
    43    26    41    1
    44    27    42    1
    45    28    43    1
