
     RDKit          3D

 72 74  0  0  0  0  0  0  0  0999 V2000
    6.4305   -3.6054   -1.2602 C   0  0  0  0  0  0  0  0  0  0  0  0
    6.1976   -3.6382    0.1328 O   0  0  0  0  0  0  0  0  0  0  0  0
    6.0694   -2.3320    0.5397 N   0  0  0  0  0  0  0  0  0  0  0  0
    4.7970   -1.7244    0.5667 C   0  0  0  0  0  0  0  0  0  0  0  0
    3.8055   -2.4136    0.2138 O   0  0  0  0  0  0  0  0  0  0  0  0
    4.5974   -0.3429    0.9844 C   0  0  0  0  0  0  0  0  0  0  0  0
    5.6070    0.4766    1.4199 C   0  0  0  0  0  0  0  0  0  0  0  0
    5.3390    1.7951    1.7945 C   0  0  0  0  0  0  0  0  0  0  0  0
    4.0777    2.3345    1.7495 C   0  0  0  0  0  0  0  0  0  0  0  0
    3.8212    3.7452    2.1412 C   0  0  0  0  0  0  0  0  0  0  0  0
    3.0451    1.5008    1.3061 C   0  0  0  0  0  0  0  0  0  0  0  0
    1.7483    2.0434    1.2445 N   0  0  0  0  0  0  0  0  0  0  0  0
    0.5759    1.3385    0.8163 C   0  0  0  0  0  0  0  0  0  0  0  0
    0.3500    0.0887    1.2588 N   0  0  0  0  0  0  0  0  0  0  0  0
   -0.7367   -0.6112    0.8903 C   0  0  0  0  0  0  0  0  0  0  0  0
   -0.9091   -1.9272    1.3991 N   0  0  0  0  0  0  0  0  0  0  0  0
    0.1139   -2.4847    2.2656 C   0  0  0  0  0  0  0  0  0  0  0  0
   -2.0995   -2.6125    1.0219 C   0  0  0  0  0  0  0  0  0  0  0  0
   -1.9748   -3.7901    0.1276 C   0  0  0  0  0  0  0  0  0  0  0  0
   -3.3867   -4.3124   -0.1036 C   0  0  0  0  0  0  0  0  0  0  0  0
   -1.2092   -4.9373    0.7591 C   0  0  0  0  0  0  0  0  0  0  0  0
   -1.4261   -3.4477   -1.2320 C   0  0  0  0  0  0  0  0  0  0  0  0
   -1.5853    0.0001    0.0573 N   0  0  0  0  0  0  0  0  0  0  0  0
   -1.4005    1.2434   -0.4101 C   0  0  0  0  0  0  0  0  0  0  0  0
   -2.3332    1.8202   -1.2856 N   0  0  0  0  0  0  0  0  0  0  0  0
   -3.5223    1.0773   -1.5515 C   0  0  0  0  0  0  0  0  0  0  0  0
   -4.7487    1.9806   -1.6050 C   0  0  0  0  0  0  0  0  0  0  0  0
   -4.6396    3.0786   -0.5507 C   0  0  0  0  0  0  0  0  0  0  0  0
   -3.9673    4.2022   -1.1738 N   0  0  0  0  0  0  0  0  0  0  0  0
   -4.5022    5.4682   -0.7198 C   0  0  0  0  0  0  0  0  0  0  0  0
   -2.5694    4.1349   -0.8454 C   0  0  0  0  0  0  0  0  0  0  0  0
   -1.9299    3.1282   -1.8066 C   0  0  0  0  0  0  0  0  0  0  0  0
   -0.2998    1.9170   -0.0185 N   0  0  0  0  0  0  0  0  0  0  0  0
    3.3061    0.2024    0.9365 C   0  0  0  0  0  0  0  0  0  0  0  0
    5.4810   -3.7350   -1.8126 H   0  0  0  0  0  0  0  0  0  0  0  0
    7.1318   -4.3989   -1.5473 H   0  0  0  0  0  0  0  0  0  0  0  0
    6.8502   -2.6000   -1.5187 H   0  0  0  0  0  0  0  0  0  0  0  0
    6.9194   -1.8009    0.8228 H   0  0  0  0  0  0  0  0  0  0  0  0
    6.6257    0.0845    1.4718 H   0  0  0  0  0  0  0  0  0  0  0  0
    6.1675    2.4157    2.1362 H   0  0  0  0  0  0  0  0  0  0  0  0
    4.7834    4.3398    2.1407 H   0  0  0  0  0  0  0  0  0  0  0  0
    3.3918    3.7955    3.1394 H   0  0  0  0  0  0  0  0  0  0  0  0
    3.1860    4.2074    1.3420 H   0  0  0  0  0  0  0  0  0  0  0  0
    1.5981    3.0525    1.5458 H   0  0  0  0  0  0  0  0  0  0  0  0
    0.6827   -1.6623    2.7444 H   0  0  0  0  0  0  0  0  0  0  0  0
    0.8879   -3.0377    1.6597 H   0  0  0  0  0  0  0  0  0  0  0  0
   -0.2904   -3.1074    3.0854 H   0  0  0  0  0  0  0  0  0  0  0  0
   -2.6346   -2.9542    1.9600 H   0  0  0  0  0  0  0  0  0  0  0  0
   -2.8024   -1.9015    0.5529 H   0  0  0  0  0  0  0  0  0  0  0  0
   -3.7674   -3.9991   -1.1049 H   0  0  0  0  0  0  0  0  0  0  0  0
   -4.0656   -3.8489    0.6314 H   0  0  0  0  0  0  0  0  0  0  0  0
   -3.4676   -5.4115    0.0342 H   0  0  0  0  0  0  0  0  0  0  0  0
   -0.1383   -4.9031    0.4737 H   0  0  0  0  0  0  0  0  0  0  0  0
   -1.6033   -5.8981    0.3073 H   0  0  0  0  0  0  0  0  0  0  0  0
   -1.3744   -5.0323    1.8307 H   0  0  0  0  0  0  0  0  0  0  0  0
   -1.3623   -2.3534   -1.3795 H   0  0  0  0  0  0  0  0  0  0  0  0
   -2.1025   -3.7887   -2.0708 H   0  0  0  0  0  0  0  0  0  0  0  0
   -0.4554   -3.9534   -1.4351 H   0  0  0  0  0  0  0  0  0  0  0  0
   -3.6497    0.2692   -0.8118 H   0  0  0  0  0  0  0  0  0  0  0  0
   -3.4297    0.6657   -2.5908 H   0  0  0  0  0  0  0  0  0  0  0  0
   -5.6339    1.3523   -1.4169 H   0  0  0  0  0  0  0  0  0  0  0  0
   -4.8434    2.4136   -2.6127 H   0  0  0  0  0  0  0  0  0  0  0  0
   -4.0626    2.6471    0.2957 H   0  0  0  0  0  0  0  0  0  0  0  0
   -5.6518    3.4108   -0.2568 H   0  0  0  0  0  0  0  0  0  0  0  0
   -3.6571    6.1093   -0.4061 H   0  0  0  0  0  0  0  0  0  0  0  0
   -5.0192    6.0127   -1.5358 H   0  0  0  0  0  0  0  0  0  0  0  0
   -5.1322    5.3424    0.1903 H   0  0  0  0  0  0  0  0  0  0  0  0
   -2.4815    3.7528    0.2108 H   0  0  0  0  0  0  0  0  0  0  0  0
   -2.0383    5.0977   -0.8834 H   0  0  0  0  0  0  0  0  0  0  0  0
   -0.8491    3.2731   -1.7967 H   0  0  0  0  0  0  0  0  0  0  0  0
   -2.3624    3.2091   -2.8166 H   0  0  0  0  0  0  0  0  0  0  0  0
    2.5289   -0.4610    0.5898 H   0  0  0  0  0  0  0  0  0  0  0  0
  1  2  1  0
  2  3  1  0
  3  4  1  0
  4  5  2  0
  4  6  1  0
  6  7  2  0
  7  8  1  0
  8  9  2  0
  9 10  1  0
  9 11  1  0
 11 12  1  0
 12 13  1  0
 13 14  2  0
 14 15  1  0
 15 16  1  0
 16 17  1  0
 16 18  1  0
 18 19  1  0
 19 20  1  0
 19 21  1  0
 19 22  1  0
 15 23  2  0
 23 24  1  0
 24 25  1  0
 25 26  1  0
 26 27  1  0
 27 28  1  0
 28 29  1  0
 29 30  1  0
 29 31  1  0
 31 32  1  0
 24 33  2  0
 11 34  2  0
 34  6  1  0
 33 13  1  0
 32 25  1  0
  1 35  1  0
  1 36  1  0
  1 37  1  0
  3 38  1  0
  7 39  1  0
  8 40  1  0
 10 41  1  0
 10 42  1  0
 10 43  1  0
 12 44  1  0
 17 45  1  0
 17 46  1  0
 17 47  1  0
 18 48  1  0
 18 49  1  0
 20 50  1  0
 20 51  1  0
 20 52  1  0
 21 53  1  0
 21 54  1  0
 21 55  1  0
 22 56  1  0
 22 57  1  0
 22 58  1  0
 26 59  1  0
 26 60  1  0
 27 61  1  0
 27 62  1  0
 28 63  1  0
 28 64  1  0
 30 65  1  0
 30 66  1  0
 30 67  1  0
 31 68  1  0
 31 69  1  0
 32 70  1  0
 32 71  1  0
 34 72  1  0
M  END
$$$$
