@<TRIPOS>MOLECULE
*****
 72 74 0 0 0
SMALL
GASTEIGER

@<TRIPOS>ATOM
      1 C           6.4305   -3.6054   -1.2602 C.3     1  UNL1        0.0622
      2 O           6.1976   -3.6382    0.1328 O.3     1  UNL1       -0.2829
      3 N           6.0694   -2.3320    0.5397 N.am    1  UNL1       -0.1909
      4 C           4.7970   -1.7244    0.5667 C.2     1  UNL1        0.2667
      5 O           3.8055   -2.4136    0.2138 O.2     1  UNL1       -0.2681
      6 C           4.5974   -0.3429    0.9844 C.ar    1  UNL1        0.0405
      7 C           5.6070    0.4766    1.4199 C.ar    1  UNL1       -0.0492
      8 C           5.3390    1.7951    1.7945 C.ar    1  UNL1       -0.0564
      9 C           4.0777    2.3345    1.7495 C.ar    1  UNL1       -0.0292
     10 C           3.8212    3.7452    2.1412 C.3     1  UNL1       -0.0380
     11 C           3.0451    1.5008    1.3061 C.ar    1  UNL1        0.0372
     12 N           1.7483    2.0434    1.2445 N.pl3   1  UNL1       -0.2832
     13 C           0.5759    1.3385    0.8163 C.ar    1  UNL1        0.2254
     14 N           0.3500    0.0887    1.2588 N.ar    1  UNL1       -0.1806
     15 C          -0.7367   -0.6112    0.8903 C.ar    1  UNL1        0.2234
     16 N          -0.9091   -1.9272    1.3991 N.pl3   1  UNL1       -0.3020
     17 C           0.1139   -2.4847    2.2656 C.3     1  UNL1        0.0034
     18 C          -2.0995   -2.6125    1.0219 C.3     1  UNL1        0.0195
     19 C          -1.9748   -3.7901    0.1276 C.3     1  UNL1       -0.0219
     20 C          -3.3867   -4.3124   -0.1036 C.3     1  UNL1       -0.0586
     21 C          -1.2092   -4.9373    0.7591 C.3     1  UNL1       -0.0586
     22 C          -1.4261   -3.4477   -1.2320 C.3     1  UNL1       -0.0586
     23 N          -1.5853    0.0001    0.0573 N.ar    1  UNL1       -0.1807
     24 C          -1.4005    1.2434   -0.4101 C.ar    1  UNL1        0.2237
     25 N          -2.3332    1.8202   -1.2856 N.pl3   1  UNL1       -0.2982
     26 C          -3.5223    1.0773   -1.5515 C.3     1  UNL1        0.0161
     27 C          -4.7487    1.9806   -1.6050 C.3     1  UNL1       -0.0243
     28 C          -4.6396    3.0786   -0.5507 C.3     1  UNL1        0.0001
     29 N          -3.9673    4.2022   -1.1738 N.3     1  UNL1       -0.3038
     30 C          -4.5022    5.4682   -0.7198 C.3     1  UNL1       -0.0127
     31 C          -2.5694    4.1349   -0.8454 C.3     1  UNL1        0.0144
     32 C          -1.9299    3.1282   -1.8066 C.3     1  UNL1        0.0276
     33 N          -0.2998    1.9170   -0.0185 N.ar    1  UNL1       -0.1806
     34 C           3.3061    0.2024    0.9365 C.ar    1  UNL1       -0.0280
     35 H           5.4810   -3.7350   -1.8126 H       1  UNL1        0.0547
     36 H           7.1318   -4.3989   -1.5473 H       1  UNL1        0.0547
     37 H           6.8502   -2.6000   -1.5187 H       1  UNL1        0.0547
     38 H           6.9194   -1.8009    0.8228 H       1  UNL1        0.1828
     39 H           6.6257    0.0845    1.4718 H       1  UNL1        0.0625
     40 H           6.1675    2.4157    2.1362 H       1  UNL1        0.0621
     41 H           4.7834    4.3398    2.1407 H       1  UNL1        0.0278
     42 H           3.3918    3.7955    3.1394 H       1  UNL1        0.0278
     43 H           3.1860    4.2074    1.3420 H       1  UNL1        0.0278
     44 H           1.5981    3.0525    1.5458 H       1  UNL1        0.1550
     45 H           0.6827   -1.6623    2.7444 H       1  UNL1        0.0429
     46 H           0.8879   -3.0377    1.6597 H       1  UNL1        0.0429
     47 H          -0.2904   -3.1074    3.0854 H       1  UNL1        0.0429
     48 H          -2.6346   -2.9542    1.9600 H       1  UNL1        0.0470
     49 H          -2.8024   -1.9015    0.5529 H       1  UNL1        0.0470
     50 H          -3.7674   -3.9991   -1.1049 H       1  UNL1        0.0235
     51 H          -4.0656   -3.8489    0.6314 H       1  UNL1        0.0235
     52 H          -3.4676   -5.4115    0.0342 H       1  UNL1        0.0235
     53 H          -0.1383   -4.9031    0.4737 H       1  UNL1        0.0235
     54 H          -1.6033   -5.8981    0.3073 H       1  UNL1        0.0235
     55 H          -1.3744   -5.0323    1.8307 H       1  UNL1        0.0235
     56 H          -1.3623   -2.3534   -1.3795 H       1  UNL1        0.0235
     57 H          -2.1025   -3.7887   -2.0708 H       1  UNL1        0.0235
     58 H          -0.4554   -3.9534   -1.4351 H       1  UNL1        0.0235
     59 H          -3.6497    0.2692   -0.8118 H       1  UNL1        0.0465
     60 H          -3.4297    0.6657   -2.5908 H       1  UNL1        0.0465
     61 H          -5.6339    1.3523   -1.4169 H       1  UNL1        0.0293
     62 H          -4.8434    2.4136   -2.6127 H       1  UNL1        0.0293
     63 H          -4.0626    2.6471    0.2957 H       1  UNL1        0.0427
     64 H          -5.6518    3.4108   -0.2568 H       1  UNL1        0.0427
     65 H          -3.6571    6.1093   -0.4061 H       1  UNL1        0.0391
     66 H          -5.0192    6.0127   -1.5358 H       1  UNL1        0.0391
     67 H          -5.1322    5.3424    0.1903 H       1  UNL1        0.0391
     68 H          -2.4815    3.7528    0.2108 H       1  UNL1        0.0442
     69 H          -2.0383    5.0977   -0.8834 H       1  UNL1        0.0442
     70 H          -0.8491    3.2731   -1.7967 H       1  UNL1        0.0477
     71 H          -2.3624    3.2091   -2.8166 H       1  UNL1        0.0477
     72 H           2.5289   -0.4610    0.5898 H       1  UNL1        0.0644
@<TRIPOS>BOND
     1     1     2    1
     2     2     3    1
     3     3     4   am
     4     4     5    2
     5     4     6    1
     6     6     7   ar
     7     7     8   ar
     8     8     9   ar
     9     9    10    1
    10     9    11   ar
    11    11    12    1
    12    12    13    1
    13    13    14   ar
    14    14    15   ar
    15    15    16    1
    16    16    17    1
    17    16    18    1
    18    18    19    1
    19    19    20    1
    20    19    21    1
    21    19    22    1
    22    15    23   ar
    23    23    24   ar
    24    24    25    1
    25    25    26    1
    26    26    27    1
    27    27    28    1
    28    28    29    1
    29    29    30    1
    30    29    31    1
    31    31    32    1
    32    24    33   ar
    33    11    34   ar
    34    34     6   ar
    35    33    13   ar
    36    32    25    1
    37     1    35    1
    38     1    36    1
    39     1    37    1
    40     3    38    1
    41     7    39    1
    42     8    40    1
    43    10    41    1
    44    10    42    1
    45    10    43    1
    46    12    44    1
    47    17    45    1
    48    17    46    1
    49    17    47    1
    50    18    48    1
    51    18    49    1
    52    20    50    1
    53    20    51    1
    54    20    52    1
    55    21    53    1
    56    21    54    1
    57    21    55    1
    58    22    56    1
    59    22    57    1
    60    22    58    1
    61    26    59    1
    62    26    60    1
    63    27    61    1
    64    27    62    1
    65    28    63    1
    66    28    64    1
    67    30    65    1
    68    30    66    1
    69    30    67    1
    70    31    68    1
    71    31    69    1
    72    32    70    1
    73    32    71    1
    74    34    72    1
