@<TRIPOS>MOLECULE
*****
 50 52 0 0 0
SMALL
GASTEIGER

@<TRIPOS>ATOM
      1 C          -1.5152   -3.1181    0.9657 C.3     1  UNL1       -0.0226
      2 C          -0.5992   -2.1103    0.3172 C.ar    1  UNL1        0.0350
      3 N           0.7276   -2.1038    0.3778 N.ar    1  UNL1       -0.3569
      4 C           1.2653   -1.0572   -0.3153 C.ar    1  UNL1        0.0449
      5 C           2.7066   -0.8651   -0.4387 C.2     1  UNL1       -0.0253
      6 C           3.3732    0.1860   -0.0067 C.2     1  UNL1        0.0479
      7 C           2.8137    1.3390    0.6743 C.2     1  UNL1        0.2490
      8 O           1.6217    1.5244    0.9925 O.2     1  UNL1       -0.2698
      9 N           3.9335    2.2178    0.9049 N.am    1  UNL1       -0.2809
     10 C           5.1254    1.6373    0.3937 C.ar    1  UNL1        0.0417
     11 C           6.4337    2.0946    0.3796 C.ar    1  UNL1       -0.0372
     12 C           7.4435    1.3261   -0.1913 C.ar    1  UNL1       -0.0247
     13 C           7.1493    0.0947   -0.7518 C.ar    1  UNL1        0.1241
     14 F           8.1704   -0.6232   -1.2996 F       1  UNL1       -0.2055
     15 C           5.8513   -0.3280   -0.7224 C.ar    1  UNL1       -0.0168
     16 C           4.8288    0.4119   -0.1634 C.ar    1  UNL1        0.0111
     17 C           0.2092   -0.3818   -0.8334 C.ar    1  UNL1       -0.0043
     18 C           0.3006    0.8238   -1.7099 C.3     1  UNL1       -0.0359
     19 C          -0.9673   -1.0262   -0.4469 C.ar    1  UNL1        0.0574
     20 N          -2.2696   -0.6139   -0.7939 N.am    1  UNL1       -0.2825
     21 C          -3.0278    0.2905    0.0023 C.2     1  UNL1        0.2343
     22 O          -2.5480    0.7608    1.0647 O.2     1  UNL1       -0.2738
     23 C          -4.3884    0.6851   -0.4146 C.3     1  UNL1        0.0851
     24 C          -5.2484   -0.5608   -0.4299 C.3     1  UNL1       -0.0279
     25 C          -6.5555   -0.1046    0.1461 C.3     1  UNL1       -0.0386
     26 C          -6.1591    1.0124    1.0619 C.3     1  UNL1       -0.0034
     27 N          -4.9670    1.5967    0.5236 N.3     1  UNL1       -0.3056
     28 CL          0.6878    0.0000    0.0000 Cl      2  UNL2       -0.1454
     29 H          -1.1239   -4.1260    0.6642 H       1  UNL1        0.0292
     30 H          -2.5215   -3.0182    0.5282 H       1  UNL1        0.0292
     31 H          -1.4749   -3.0655    2.0542 H       1  UNL1        0.0292
     32 H           1.3091   -2.8079    0.8904 H       1  UNL1        0.1656
     33 H           3.3201   -1.6428   -0.9279 H       1  UNL1        0.0646
     34 H           3.8379    3.1451    1.3856 H       1  UNL1        0.1552
     35 H           6.6698    3.0600    0.8181 H       1  UNL1        0.0637
     36 H           8.4785    1.6794   -0.2066 H       1  UNL1        0.0647
     37 H           5.5960   -1.2858   -1.1534 H       1  UNL1        0.0653
     38 H          -0.0295    1.7463   -1.1936 H       1  UNL1        0.0279
     39 H          -0.3882    0.7111   -2.5937 H       1  UNL1        0.0279
     40 H           1.3450    0.9719   -2.0353 H       1  UNL1        0.0279
     41 H          -2.6704   -1.0096   -1.6858 H       1  UNL1        0.1549
     42 H          -4.3744    1.1547   -1.4377 H       1  UNL1        0.0556
     43 H          -4.7932   -1.3551    0.1939 H       1  UNL1        0.0285
     44 H          -5.3519   -0.9233   -1.4685 H       1  UNL1        0.0285
     45 H          -7.0553   -0.9126    0.7497 H       1  UNL1        0.0278
     46 H          -7.2148    0.2597   -0.6633 H       1  UNL1        0.0278
     47 H          -6.9458    1.8140    1.0558 H       1  UNL1        0.0424
     48 H          -6.0616    0.6879    2.1204 H       1  UNL1        0.0424
     49 H          -4.2594    1.8087    1.2760 H       1  UNL1        0.1226
     50 H          -0.6878    0.0000    0.0000 H       1  UNL1        0.1454
@<TRIPOS>BOND
     1     1     2    1
     2     2     3   ar
     3     3     4   ar
     4     4     5    1
     5     5     6    2
     6     6     7    1
     7     7     8    2
     8     7     9   am
     9     9    10    1
    10    10    11   ar
    11    11    12   ar
    12    12    13   ar
    13    13    14    1
    14    13    15   ar
    15    15    16   ar
    16     4    17   ar
    17    17    18    1
    18    17    19   ar
    19    19    20    1
    20    20    21   am
    21    21    22    2
    22    21    23    1
    23    23    24    1
    24    24    25    1
    25    25    26    1
    26    26    27    1
    27    19     2   ar
    28    27    23    1
    29    16     6    1
    30    16    10   ar
    31     1    29    1
    32     1    30    1
    33     1    31    1
    34     3    32    1
    35     5    33    1
    36     9    34    1
    37    11    35    1
    38    12    36    1
    39    15    37    1
    40    18    38    1
    41    18    39    1
    42    18    40    1
    43    20    41    1
    44    23    42    1
    45    24    43    1
    46    24    44    1
    47    25    45    1
    48    25    46    1
    49    26    47    1
    50    26    48    1
    51    27    49    1
    52    28    50    1
