
     RDKit          3D

 60 61  0  0  0  0  0  0  0  0999 V2000
   -6.4482   -1.1908   -2.1009 C   0  0  0  0  0  0  0  0  0  0  0  0
   -6.1861   -0.9559   -0.6050 C   0  0  0  0  0  0  0  0  0  0  0  0
   -5.3074   -2.0806   -0.0892 C   0  0  0  0  0  0  0  0  0  0  0  0
   -7.4472   -0.9476    0.0317 N   0  0  0  0  0  0  0  0  0  0  0  0
   -7.9744    0.0628    0.6022 C   0  0  0  0  0  0  0  0  0  0  0  0
   -9.2638   -0.1230    1.1937 N   0  0  0  0  0  0  0  0  0  0  0  0
   -7.3461    1.3315    0.6766 N   0  0  0  0  0  0  0  0  0  0  0  0
   -6.1672    1.4171    0.1176 C   0  0  0  0  0  0  0  0  0  0  0  0
   -5.4634    2.6764    0.1504 N   0  0  0  0  0  0  0  0  0  0  0  0
   -5.5407    0.3206   -0.5188 N   0  0  0  0  0  0  0  0  0  0  0  0
   -4.2936    0.5390   -1.0488 O   0  0  0  0  0  0  0  0  0  0  0  0
   -3.4043    0.5735    0.0128 C   0  0  0  0  0  0  0  0  0  0  0  0
   -2.0058    0.8210   -0.5236 C   0  0  0  0  0  0  0  0  0  0  0  0
   -1.5694   -0.2470   -1.4692 C   0  0  0  0  0  0  0  0  0  0  0  0
   -0.2789   -0.0355   -1.9290 O   0  0  0  0  0  0  0  0  0  0  0  0
    0.8418   -0.0935   -1.1481 C   0  0  0  0  0  0  0  0  0  0  0  0
    0.7470   -0.4301    0.1815 C   0  0  0  0  0  0  0  0  0  0  0  0
    1.9227   -0.4716    0.9534 C   0  0  0  0  0  0  0  0  0  0  0  0
    3.1552   -0.1870    0.4132 C   0  0  0  0  0  0  0  0  0  0  0  0
    4.3246   -0.2414    1.2352 C   0  0  0  0  0  0  0  0  0  0  0  0
    5.5381    0.0198    0.7809 C   0  0  0  0  0  0  0  0  0  0  0  0
    6.7128   -0.0451    1.6488 C   0  0  0  0  0  0  0  0  0  0  0  0
    6.5221   -0.3606    2.8500 O   0  0  0  0  0  0  0  0  0  0  0  0
    8.0365    0.2321    1.1852 C   0  0  0  0  0  0  0  0  0  0  0  0
    8.2897    0.5798   -0.1163 C   0  0  0  0  0  0  0  0  0  0  0  0
    9.5932    0.8481   -0.5542 C   0  0  0  0  0  0  0  0  0  0  0  0
   10.6359    0.7620    0.3331 C   0  0  0  0  0  0  0  0  0  0  0  0
   10.4005    0.4117    1.6542 C   0  0  0  0  0  0  0  0  0  0  0  0
    9.1020    0.1555    2.0448 C   0  0  0  0  0  0  0  0  0  0  0  0
    3.1958    0.1394   -0.9088 C   0  0  0  0  0  0  0  0  0  0  0  0
    2.0930    0.1988   -1.7144 C   0  0  0  0  0  0  0  0  0  0  0  0
    0.6911    0.0000    0.0000 Cl  0  0  0  0  0  0  0  0  0  0  0  0
   -7.3175   -0.5354   -2.3492 H   0  0  0  0  0  0  0  0  0  0  0  0
   -5.5636   -0.9355   -2.7022 H   0  0  0  0  0  0  0  0  0  0  0  0
   -6.7823   -2.2340   -2.2403 H   0  0  0  0  0  0  0  0  0  0  0  0
   -5.8560   -3.0611   -0.2025 H   0  0  0  0  0  0  0  0  0  0  0  0
   -5.1451   -1.9752    0.9969 H   0  0  0  0  0  0  0  0  0  0  0  0
   -4.3826   -2.1970   -0.6523 H   0  0  0  0  0  0  0  0  0  0  0  0
   -9.8704   -0.9351    0.9846 H   0  0  0  0  0  0  0  0  0  0  0  0
   -9.6272    0.5819    1.8696 H   0  0  0  0  0  0  0  0  0  0  0  0
   -5.1166    3.1525   -0.6838 H   0  0  0  0  0  0  0  0  0  0  0  0
   -5.3176    3.0953    1.0866 H   0  0  0  0  0  0  0  0  0  0  0  0
   -3.4089   -0.3873    0.5691 H   0  0  0  0  0  0  0  0  0  0  0  0
   -3.5913    1.3645    0.7515 H   0  0  0  0  0  0  0  0  0  0  0  0
   -2.1447    1.7565   -1.1883 H   0  0  0  0  0  0  0  0  0  0  0  0
   -1.3213    1.1431    0.2286 H   0  0  0  0  0  0  0  0  0  0  0  0
   -2.2752   -0.2999   -2.3319 H   0  0  0  0  0  0  0  0  0  0  0  0
   -1.6758   -1.2549   -0.9720 H   0  0  0  0  0  0  0  0  0  0  0  0
   -0.1918   -0.6944    0.6477 H   0  0  0  0  0  0  0  0  0  0  0  0
    1.8082   -0.7354    1.9802 H   0  0  0  0  0  0  0  0  0  0  0  0
    4.2621   -0.5084    2.3023 H   0  0  0  0  0  0  0  0  0  0  0  0
    5.6952    0.2898   -0.2501 H   0  0  0  0  0  0  0  0  0  0  0  0
    7.5299    0.6710   -0.8800 H   0  0  0  0  0  0  0  0  0  0  0  0
    9.7910    1.1201   -1.5725 H   0  0  0  0  0  0  0  0  0  0  0  0
   11.6528    0.9688    0.0016 H   0  0  0  0  0  0  0  0  0  0  0  0
   11.2233    0.3481    2.3364 H   0  0  0  0  0  0  0  0  0  0  0  0
    8.9659   -0.1179    3.1005 H   0  0  0  0  0  0  0  0  0  0  0  0
    4.1475    0.3806   -1.4171 H   0  0  0  0  0  0  0  0  0  0  0  0
    2.0978    0.4518   -2.7525 H   0  0  0  0  0  0  0  0  0  0  0  0
   -0.6911    0.0000    0.0000 H   0  0  0  0  0  0  0  0  0  0  0  0
  1  2  1  0
  2  3  1  0
  2  4  1  0
  4  5  2  0
  5  6  1  0
  5  7  1  0
  7  8  2  0
  8  9  1  0
  8 10  1  0
 10 11  1  0
 11 12  1  0
 12 13  1  0
 13 14  1  0
 14 15  1  0
 15 16  1  0
 16 17  2  0
 17 18  1  0
 18 19  2  0
 19 20  1  0
 20 21  2  0
 21 22  1  0
 22 23  2  0
 22 24  1  0
 24 25  2  0
 25 26  1  0
 26 27  2  0
 27 28  1  0
 28 29  2  0
 19 30  1  0
 30 31  2  0
 10  2  1  0
 31 16  1  0
 29 24  1  0
  1 33  1  0
  1 34  1  0
  1 35  1  0
  3 36  1  0
  3 37  1  0
  3 38  1  0
  6 39  1  0
  6 40  1  0
  9 41  1  0
  9 42  1  0
 12 43  1  0
 12 44  1  0
 13 45  1  0
 13 46  1  0
 14 47  1  0
 14 48  1  0
 17 49  1  0
 18 50  1  0
 20 51  1  0
 21 52  1  0
 25 53  1  0
 26 54  1  0
 27 55  1  0
 28 56  1  0
 29 57  1  0
 30 58  1  0
 31 59  1  0
 32 60  1  0
M  END
$$$$
