@<TRIPOS>MOLECULE
*****
 60 61 0 0 0
SMALL
GASTEIGER

@<TRIPOS>ATOM
      1 C          -6.4482   -1.1908   -2.1009 C.3     1  UNL1        0.0108
      2 C          -6.1861   -0.9559   -0.6050 C.3     1  UNL1        0.2648
      3 C          -5.3074   -2.0806   -0.0892 C.3     1  UNL1        0.0108
      4 N          -7.4472   -0.9476    0.0317 N.2     1  UNL1       -0.0662
      5 C          -7.9744    0.0628    0.6022 C.cat   1  UNL1        0.4202
      6 N          -9.2638   -0.1230    1.1937 N.pl3   1  UNL1       -0.2468
      7 N          -7.3461    1.3315    0.6766 N.2     1  UNL1       -0.0050
      8 C          -6.1672    1.4171    0.1176 C.2     1  UNL1        0.4149
      9 N          -5.4634    2.6764    0.1504 N.pl3   1  UNL1       -0.2472
     10 N          -5.5407    0.3206   -0.5188 N.3     1  UNL1       -0.0841
     11 O          -4.2936    0.5390   -1.0488 O.3     1  UNL1       -0.2128
     12 C          -3.4043    0.5735    0.0128 C.3     1  UNL1        0.0932
     13 C          -2.0058    0.8210   -0.5236 C.3     1  UNL1        0.0086
     14 C          -1.5694   -0.2470   -1.4692 C.3     1  UNL1        0.0918
     15 O          -0.2789   -0.0355   -1.9290 O.3     1  UNL1       -0.4919
     16 C           0.8418   -0.0935   -1.1481 C.ar    1  UNL1        0.1205
     17 C           0.7470   -0.4301    0.1815 C.ar    1  UNL1       -0.0194
     18 C           1.9227   -0.4716    0.9534 C.ar    1  UNL1       -0.0511
     19 C           3.1552   -0.1870    0.4132 C.ar    1  UNL1       -0.0247
     20 C           4.3246   -0.2414    1.2352 C.2     1  UNL1       -0.0510
     21 C           5.5381    0.0198    0.7809 C.2     1  UNL1       -0.0138
     22 C           6.7128   -0.0451    1.6488 C.2     1  UNL1        0.1861
     23 O           6.5221   -0.3606    2.8500 O.2     1  UNL1       -0.2873
     24 C           8.0365    0.2321    1.1852 C.ar    1  UNL1        0.0217
     25 C           8.2897    0.5798   -0.1163 C.ar    1  UNL1       -0.0509
     26 C           9.5932    0.8481   -0.5542 C.ar    1  UNL1       -0.0611
     27 C          10.6359    0.7620    0.3331 C.ar    1  UNL1       -0.0617
     28 C          10.4005    0.4117    1.6542 C.ar    1  UNL1       -0.0611
     29 C           9.1020    0.1555    2.0448 C.ar    1  UNL1       -0.0509
     30 C           3.1958    0.1394   -0.9088 C.ar    1  UNL1       -0.0511
     31 C           2.0930    0.1988   -1.7144 C.ar    1  UNL1       -0.0194
     32 CL          0.6911    0.0000    0.0000 Cl      2  UNL2       -0.1454
     33 H          -7.3175   -0.5354   -2.3492 H       1  UNL1        0.0301
     34 H          -5.5636   -0.9355   -2.7022 H       1  UNL1        0.0301
     35 H          -6.7823   -2.2340   -2.2403 H       1  UNL1        0.0301
     36 H          -5.8560   -3.0611   -0.2025 H       1  UNL1        0.0301
     37 H          -5.1451   -1.9752    0.9969 H       1  UNL1        0.0301
     38 H          -4.3826   -2.1970   -0.6523 H       1  UNL1        0.0301
     39 H          -9.8704   -0.9351    0.9846 H       1  UNL1        0.2415
     40 H          -9.6272    0.5819    1.8696 H       1  UNL1        0.2415
     41 H          -5.1166    3.1525   -0.6838 H       1  UNL1        0.2414
     42 H          -5.3176    3.0953    1.0866 H       1  UNL1        0.2414
     43 H          -3.4089   -0.3873    0.5691 H       1  UNL1        0.0600
     44 H          -3.5913    1.3645    0.7515 H       1  UNL1        0.0600
     45 H          -2.1447    1.7565   -1.1883 H       1  UNL1        0.0321
     46 H          -1.3213    1.1431    0.2286 H       1  UNL1        0.0321
     47 H          -2.2752   -0.2999   -2.3319 H       1  UNL1        0.0697
     48 H          -1.6758   -1.2549   -0.9720 H       1  UNL1        0.0697
     49 H          -0.1918   -0.6944    0.6477 H       1  UNL1        0.0654
     50 H           1.8082   -0.7354    1.9802 H       1  UNL1        0.0625
     51 H           4.2621   -0.5084    2.3023 H       1  UNL1        0.0625
     52 H           5.6952    0.2898   -0.2501 H       1  UNL1        0.0656
     53 H           7.5299    0.6710   -0.8800 H       1  UNL1        0.0625
     54 H           9.7910    1.1201   -1.5725 H       1  UNL1        0.0618
     55 H          11.6528    0.9688    0.0016 H       1  UNL1        0.0618
     56 H          11.2233    0.3481    2.3364 H       1  UNL1        0.0618
     57 H           8.9659   -0.1179    3.1005 H       1  UNL1        0.0625
     58 H           4.1475    0.3806   -1.4171 H       1  UNL1        0.0625
     59 H           2.0978    0.4518   -2.7525 H       1  UNL1        0.0654
     60 H          -0.6911    0.0000    0.0000 H       1  UNL1        0.1454
@<TRIPOS>BOND
     1     1     2    1
     2     2     3    1
     3     2     4    1
     4     4     5    2
     5     5     6    1
     6     5     7    1
     7     7     8    2
     8     8     9    1
     9     8    10    1
    10    10    11    1
    11    11    12    1
    12    12    13    1
    13    13    14    1
    14    14    15    1
    15    15    16    1
    16    16    17   ar
    17    17    18   ar
    18    18    19   ar
    19    19    20    1
    20    20    21    2
    21    21    22    1
    22    22    23    2
    23    22    24    1
    24    24    25   ar
    25    25    26   ar
    26    26    27   ar
    27    27    28   ar
    28    28    29   ar
    29    19    30   ar
    30    30    31   ar
    31    10     2    1
    32    31    16   ar
    33    29    24   ar
    34     1    33    1
    35     1    34    1
    36     1    35    1
    37     3    36    1
    38     3    37    1
    39     3    38    1
    40     6    39    1
    41     6    40    1
    42     9    41    1
    43     9    42    1
    44    12    43    1
    45    12    44    1
    46    13    45    1
    47    13    46    1
    48    14    47    1
    49    14    48    1
    50    17    49    1
    51    18    50    1
    52    20    51    1
    53    21    52    1
    54    25    53    1
    55    26    54    1
    56    27    55    1
    57    28    56    1
    58    29    57    1
    59    30    58    1
    60    31    59    1
    61    32    60    1
