@<TRIPOS>MOLECULE
*****
 45 47 0 0 0
SMALL
GASTEIGER

@<TRIPOS>ATOM
      1 C           8.8888    2.4614    0.2670 C.2     1  UNL1       -0.2277
      2 N           7.8350    2.0385    0.1173 N.1     1  UNL1       -0.2654
      3 C           6.5559    1.5235   -0.0890 C.ar    1  UNL1        0.3093
      4 C           5.9831    1.7302   -1.3224 C.ar    1  UNL1        0.0283
      5 C           4.7178    1.2051   -1.5104 C.ar    1  UNL1       -0.0239
      6 C           4.0870    0.5151   -0.4986 C.ar    1  UNL1        0.1262
      7 C           2.7689   -0.0716   -0.6550 C.2     1  UNL1        0.2666
      8 O           2.1272    0.0976   -1.7461 O.2     1  UNL1       -0.2682
      9 N           2.1427   -0.8403    0.3540 N.am    1  UNL1       -0.2802
     10 C           0.8526   -1.4350    0.2236 C.ar    1  UNL1        0.0342
     11 C           0.7071   -2.6912   -0.3208 C.ar    1  UNL1       -0.0377
     12 C          -0.5321   -3.2710   -0.4458 C.ar    1  UNL1       -0.0243
     13 C          -1.6907   -2.6429   -0.0396 C.ar    1  UNL1        0.1290
     14 F          -2.8897   -3.2751   -0.1871 F       1  UNL1       -0.2051
     15 C          -1.5714   -1.3869    0.5079 C.ar    1  UNL1        0.0168
     16 C          -2.8112   -0.6574    0.9636 C.3     1  UNL1        0.0951
     17 C          -3.3784   -1.4567    2.1419 C.3     1  UNL1       -0.0352
     18 C          -3.8270   -0.5229   -0.1263 C.3     1  UNL1        0.0223
     19 C          -3.5564    0.7156   -0.9912 C.3     1  UNL1        0.1997
     20 C          -4.5701    0.8087   -2.0827 C.3     1  UNL1        0.4266
     21 F          -4.3502    1.9103   -2.8830 F       1  UNL1       -0.1669
     22 F          -5.8613    0.9543   -1.5940 F       1  UNL1       -0.1669
     23 F          -4.4799   -0.3147   -2.8748 F       1  UNL1       -0.1669
     24 O          -3.7048    1.7917   -0.0470 O.2     1  UNL1       -0.4534
     25 C          -2.8803    1.7351    1.0470 C.2     1  UNL1        0.2765
     26 N          -2.4870    2.9995    1.6676 N.pl3   1  UNL1       -0.3134
     27 N          -2.4607    0.6350    1.5235 N.2     1  UNL1       -0.2257
     28 C          -0.3184   -0.7964    0.6360 C.ar    1  UNL1       -0.0323
     29 N           4.7055    0.3405    0.7091 N.ar    1  UNL1       -0.2427
     30 C           5.9329    0.8372    0.9233 C.ar    1  UNL1        0.1143
     31 H           6.4314    2.2559   -2.1374 H       1  UNL1        0.0695
     32 H           4.2048    1.3274   -2.4640 H       1  UNL1        0.0643
     33 H           2.7058   -0.9584    1.2453 H       1  UNL1        0.1552
     34 H           1.6220   -3.1960   -0.6444 H       1  UNL1        0.0637
     35 H          -0.5860   -4.2789   -0.8881 H       1  UNL1        0.0647
     36 H          -2.8058   -1.1785    3.0475 H       1  UNL1        0.0256
     37 H          -4.4322   -1.1720    2.3348 H       1  UNL1        0.0256
     38 H          -3.2225   -2.5285    1.9696 H       1  UNL1        0.0256
     39 H          -4.8003   -0.2802    0.3992 H       1  UNL1        0.0330
     40 H          -4.0034   -1.4033   -0.7371 H       1  UNL1        0.0330
     41 H          -2.5559    0.7526   -1.4042 H       1  UNL1        0.0826
     42 H          -1.8457    3.6406    1.1785 H       1  UNL1        0.1466
     43 H          -2.8760    3.1998    2.5847 H       1  UNL1        0.1466
     44 H          -0.1970    0.1817    1.0607 H       1  UNL1        0.0640
     45 H           6.4258    0.7003    1.8809 H       1  UNL1        0.0908
@<TRIPOS>UNITY_ATOM_ATTR
1 1
charge -1
2 1
charge 1
@<TRIPOS>BOND
     1     1     2    3
     2     2     3    1
     3     3     4   ar
     4     4     5   ar
     5     5     6   ar
     6     6     7    1
     7     7     8    2
     8     7     9   am
     9     9    10    1
    10    10    11   ar
    11    11    12   ar
    12    12    13   ar
    13    13    14    1
    14    13    15   ar
    15    15    16    1
    16    16    17    1
    17    16    18    1
    18    18    19    1
    19    19    20    1
    20    20    21    1
    21    20    22    1
    22    20    23    1
    23    19    24    1
    24    24    25    1
    25    25    26    1
    26    25    27    2
    27    15    28   ar
    28     6    29   ar
    29    29    30   ar
    30    30     3   ar
    31    28    10   ar
    32    27    16    1
    33     4    31    1
    34     5    32    1
    35     9    33    1
    36    11    34    1
    37    12    35    1
    38    17    36    1
    39    17    37    1
    40    17    38    1
    41    18    39    1
    42    18    40    1
    43    19    41    1
    44    26    42    1
    45    26    43    1
    46    28    44    1
    47    30    45    1
