
     RDKit          3D

 45 47  0  0  0  0  0  0  0  0999 V2000
    8.8888    2.4614    0.2670 C   0  0  0  0  0  3  0  0  0  0  0  0
    7.8350    2.0385    0.1173 N   0  0  0  0  0  4  0  0  0  0  0  0
    6.5559    1.5235   -0.0890 C   0  0  0  0  0  0  0  0  0  0  0  0
    5.9831    1.7302   -1.3224 C   0  0  0  0  0  0  0  0  0  0  0  0
    4.7178    1.2051   -1.5104 C   0  0  0  0  0  0  0  0  0  0  0  0
    4.0870    0.5151   -0.4986 C   0  0  0  0  0  0  0  0  0  0  0  0
    2.7689   -0.0716   -0.6550 C   0  0  0  0  0  0  0  0  0  0  0  0
    2.1272    0.0976   -1.7461 O   0  0  0  0  0  0  0  0  0  0  0  0
    2.1427   -0.8403    0.3540 N   0  0  0  0  0  0  0  0  0  0  0  0
    0.8526   -1.4350    0.2236 C   0  0  0  0  0  0  0  0  0  0  0  0
    0.7071   -2.6912   -0.3208 C   0  0  0  0  0  0  0  0  0  0  0  0
   -0.5321   -3.2710   -0.4458 C   0  0  0  0  0  0  0  0  0  0  0  0
   -1.6907   -2.6429   -0.0396 C   0  0  0  0  0  0  0  0  0  0  0  0
   -2.8897   -3.2751   -0.1871 F   0  0  0  0  0  0  0  0  0  0  0  0
   -1.5714   -1.3869    0.5079 C   0  0  0  0  0  0  0  0  0  0  0  0
   -2.8112   -0.6574    0.9636 C   0  0  2  0  0  0  0  0  0  0  0  0
   -3.3784   -1.4567    2.1419 C   0  0  0  0  0  0  0  0  0  0  0  0
   -3.8270   -0.5229   -0.1263 C   0  0  0  0  0  0  0  0  0  0  0  0
   -3.5564    0.7156   -0.9912 C   0  0  1  0  0  0  0  0  0  0  0  0
   -4.5701    0.8087   -2.0827 C   0  0  0  0  0  0  0  0  0  0  0  0
   -4.3502    1.9103   -2.8830 F   0  0  0  0  0  0  0  0  0  0  0  0
   -5.8613    0.9543   -1.5940 F   0  0  0  0  0  0  0  0  0  0  0  0
   -4.4799   -0.3147   -2.8748 F   0  0  0  0  0  0  0  0  0  0  0  0
   -3.7048    1.7917   -0.0470 O   0  0  0  0  0  0  0  0  0  0  0  0
   -2.8803    1.7351    1.0470 C   0  0  0  0  0  0  0  0  0  0  0  0
   -2.4870    2.9995    1.6676 N   0  0  0  0  0  0  0  0  0  0  0  0
   -2.4607    0.6350    1.5235 N   0  0  0  0  0  0  0  0  0  0  0  0
   -0.3184   -0.7964    0.6360 C   0  0  0  0  0  0  0  0  0  0  0  0
    4.7055    0.3405    0.7091 N   0  0  0  0  0  0  0  0  0  0  0  0
    5.9329    0.8372    0.9233 C   0  0  0  0  0  0  0  0  0  0  0  0
    6.4314    2.2559   -2.1374 H   0  0  0  0  0  0  0  0  0  0  0  0
    4.2048    1.3274   -2.4640 H   0  0  0  0  0  0  0  0  0  0  0  0
    2.7058   -0.9584    1.2453 H   0  0  0  0  0  0  0  0  0  0  0  0
    1.6220   -3.1960   -0.6444 H   0  0  0  0  0  0  0  0  0  0  0  0
   -0.5860   -4.2789   -0.8881 H   0  0  0  0  0  0  0  0  0  0  0  0
   -2.8058   -1.1785    3.0475 H   0  0  0  0  0  0  0  0  0  0  0  0
   -4.4322   -1.1720    2.3348 H   0  0  0  0  0  0  0  0  0  0  0  0
   -3.2225   -2.5285    1.9696 H   0  0  0  0  0  0  0  0  0  0  0  0
   -4.8003   -0.2802    0.3992 H   0  0  0  0  0  0  0  0  0  0  0  0
   -4.0034   -1.4033   -0.7371 H   0  0  0  0  0  0  0  0  0  0  0  0
   -2.5559    0.7526   -1.4042 H   0  0  0  0  0  0  0  0  0  0  0  0
   -1.8457    3.6406    1.1785 H   0  0  0  0  0  0  0  0  0  0  0  0
   -2.8760    3.1998    2.5847 H   0  0  0  0  0  0  0  0  0  0  0  0
   -0.1970    0.1817    1.0607 H   0  0  0  0  0  0  0  0  0  0  0  0
    6.4258    0.7003    1.8809 H   0  0  0  0  0  0  0  0  0  0  0  0
  1  2  3  0
  2  3  1  0
  3  4  2  0
  4  5  1  0
  5  6  2  0
  6  7  1  0
  7  8  2  0
  7  9  1  0
  9 10  1  0
 10 11  2  0
 11 12  1  0
 12 13  2  0
 13 14  1  0
 13 15  1  0
 15 16  1  0
 16 17  1  1
 16 18  1  0
 18 19  1  0
 19 20  1  0
 20 21  1  0
 20 22  1  0
 20 23  1  0
 19 24  1  0
 24 25  1  0
 25 26  1  0
 25 27  2  0
 15 28  2  0
  6 29  1  0
 29 30  2  0
 30  3  1  0
 28 10  1  0
 27 16  1  0
  4 31  1  0
  5 32  1  0
  9 33  1  0
 11 34  1  0
 12 35  1  0
 17 36  1  0
 17 37  1  0
 17 38  1  0
 18 39  1  0
 18 40  1  0
 19 41  1  6
 26 42  1  0
 26 43  1  0
 28 44  1  0
 30 45  1  0
M  CHG  2   1  -1   2   1
M  END
$$$$
