@<TRIPOS>MOLECULE
*****
 49 51 0 0 0
SMALL
GASTEIGER

@<TRIPOS>ATOM
      1 O           8.5979    0.1213    0.7867 O.2     1  UNL1       -0.2737
      2 C           8.0322   -0.2714   -0.2656 C.2     1  UNL1        0.2354
      3 C           6.5721   -0.0260   -0.4780 C.3     1  UNL1        0.0259
      4 C           5.9963    0.7198    0.7121 C.3     1  UNL1       -0.0440
      5 C           4.5202    0.9393    0.4387 C.3     1  UNL1       -0.0431
      6 C           3.8619    1.6739    1.5638 C.3     1  UNL1        0.0011
      7 S           2.1257    1.9079    1.2112 S.3     1  UNL1       -0.0878
      8 C           1.1657    0.4115    1.2642 C.ar    1  UNL1        0.1695
      9 N          -0.1390    0.5208    0.8925 N.ar    1  UNL1       -0.2232
     10 C          -0.9617   -0.5492    0.8809 C.ar    1  UNL1        0.0789
     11 C          -2.3542   -0.4287    0.4838 C.ar    1  UNL1        0.0006
     12 C          -2.8307    0.8201    0.1119 C.ar    1  UNL1       -0.0520
     13 C          -4.1321    1.0492   -0.2822 C.ar    1  UNL1       -0.0534
     14 C          -5.0238   -0.0088   -0.3149 C.ar    1  UNL1       -0.0178
     15 C          -6.4149    0.2112   -0.7321 C.ar    1  UNL1       -0.0179
     16 C          -7.1138   -0.7986   -1.3761 C.ar    1  UNL1       -0.0540
     17 C          -8.4125   -0.5906   -1.7653 C.ar    1  UNL1       -0.0612
     18 C          -9.0816    0.5938   -1.5486 C.ar    1  UNL1       -0.0617
     19 C          -8.3867    1.6030   -0.9062 C.ar    1  UNL1       -0.0612
     20 C          -7.0806    1.3988   -0.5128 C.ar    1  UNL1       -0.0540
     21 C          -4.5775   -1.2642    0.0503 C.ar    1  UNL1       -0.0534
     22 C          -3.2566   -1.4580    0.4427 C.ar    1  UNL1       -0.0520
     23 C          -0.4282   -1.7533    1.2599 C.ar    1  UNL1        0.0288
     24 C           0.9134   -1.8737    1.6441 C.ar    1  UNL1        0.2526
     25 O           1.3963   -2.9954    1.9933 O.2     1  UNL1       -0.2678
     26 N           1.6870   -0.7660    1.6353 N.ar    1  UNL1       -0.3019
     27 N           8.7627   -0.9551   -1.2750 N.am    1  UNL1       -0.1975
     28 O          10.0904   -1.1780   -1.0814 O.3     1  UNL1       -0.2952
     29 H           6.0444   -0.9877   -0.5741 H       1  UNL1        0.0359
     30 H           6.4214    0.5421   -1.4174 H       1  UNL1        0.0359
     31 H           6.4726    1.6987    0.8243 H       1  UNL1        0.0270
     32 H           6.1244    0.1286    1.6403 H       1  UNL1        0.0270
     33 H           4.0566   -0.0354    0.2467 H       1  UNL1        0.0273
     34 H           4.4424    1.5521   -0.4870 H       1  UNL1        0.0273
     35 H           4.3199    2.7037    1.6066 H       1  UNL1        0.0381
     36 H           4.0430    1.1897    2.5557 H       1  UNL1        0.0381
     37 H          -2.1372    1.6683    0.1323 H       1  UNL1        0.0624
     38 H          -4.4735    2.0551   -0.5703 H       1  UNL1        0.0624
     39 H          -6.6008   -1.7283   -1.5508 H       1  UNL1        0.0624
     40 H          -8.9479   -1.3815   -2.2653 H       1  UNL1        0.0618
     41 H         -10.1044    0.7616   -1.8537 H       1  UNL1        0.0618
     42 H          -8.8341    2.5698   -0.6933 H       1  UNL1        0.0618
     43 H          -6.5205    2.1910   -0.0032 H       1  UNL1        0.0624
     44 H          -5.2984   -2.0672    0.0136 H       1  UNL1        0.0624
     45 H          -2.9468   -2.4535    0.7203 H       1  UNL1        0.0624
     46 H          -1.0363   -2.6458    1.2714 H       1  UNL1        0.0693
     47 H           2.6846   -0.8644    1.9339 H       1  UNL1        0.1708
     48 H           8.3337   -1.2999   -2.1669 H       1  UNL1        0.1822
     49 H          10.4291   -0.6508   -0.3180 H       1  UNL1        0.2414
@<TRIPOS>BOND
     1     1     2    2
     2     2     3    1
     3     3     4    1
     4     4     5    1
     5     5     6    1
     6     6     7    1
     7     7     8    1
     8     8     9   ar
     9     9    10   ar
    10    10    11    1
    11    11    12   ar
    12    12    13   ar
    13    13    14   ar
    14    14    15    1
    15    15    16   ar
    16    16    17   ar
    17    17    18   ar
    18    18    19   ar
    19    19    20   ar
    20    14    21   ar
    21    21    22   ar
    22    10    23   ar
    23    23    24   ar
    24    24    25    2
    25    24    26   ar
    26     2    27   am
    27    27    28    1
    28    26     8   ar
    29    22    11   ar
    30    20    15   ar
    31     3    29    1
    32     3    30    1
    33     4    31    1
    34     4    32    1
    35     5    33    1
    36     5    34    1
    37     6    35    1
    38     6    36    1
    39    12    37    1
    40    13    38    1
    41    16    39    1
    42    17    40    1
    43    18    41    1
    44    19    42    1
    45    20    43    1
    46    21    44    1
    47    22    45    1
    48    23    46    1
    49    26    47    1
    50    27    48    1
    51    28    49    1
