
     RDKit          3D

 49 51  0  0  0  0  0  0  0  0999 V2000
    8.5979    0.1213    0.7867 O   0  0  0  0  0  0  0  0  0  0  0  0
    8.0322   -0.2714   -0.2656 C   0  0  0  0  0  0  0  0  0  0  0  0
    6.5721   -0.0260   -0.4780 C   0  0  0  0  0  0  0  0  0  0  0  0
    5.9963    0.7198    0.7121 C   0  0  0  0  0  0  0  0  0  0  0  0
    4.5202    0.9393    0.4387 C   0  0  0  0  0  0  0  0  0  0  0  0
    3.8619    1.6739    1.5638 C   0  0  0  0  0  0  0  0  0  0  0  0
    2.1257    1.9079    1.2112 S   0  0  0  0  0  0  0  0  0  0  0  0
    1.1657    0.4115    1.2642 C   0  0  0  0  0  0  0  0  0  0  0  0
   -0.1390    0.5208    0.8925 N   0  0  0  0  0  0  0  0  0  0  0  0
   -0.9617   -0.5492    0.8809 C   0  0  0  0  0  0  0  0  0  0  0  0
   -2.3542   -0.4287    0.4838 C   0  0  0  0  0  0  0  0  0  0  0  0
   -2.8307    0.8201    0.1119 C   0  0  0  0  0  0  0  0  0  0  0  0
   -4.1321    1.0492   -0.2822 C   0  0  0  0  0  0  0  0  0  0  0  0
   -5.0238   -0.0088   -0.3149 C   0  0  0  0  0  0  0  0  0  0  0  0
   -6.4149    0.2112   -0.7321 C   0  0  0  0  0  0  0  0  0  0  0  0
   -7.1138   -0.7986   -1.3761 C   0  0  0  0  0  0  0  0  0  0  0  0
   -8.4125   -0.5906   -1.7653 C   0  0  0  0  0  0  0  0  0  0  0  0
   -9.0816    0.5938   -1.5486 C   0  0  0  0  0  0  0  0  0  0  0  0
   -8.3867    1.6030   -0.9062 C   0  0  0  0  0  0  0  0  0  0  0  0
   -7.0806    1.3988   -0.5128 C   0  0  0  0  0  0  0  0  0  0  0  0
   -4.5775   -1.2642    0.0503 C   0  0  0  0  0  0  0  0  0  0  0  0
   -3.2566   -1.4580    0.4427 C   0  0  0  0  0  0  0  0  0  0  0  0
   -0.4282   -1.7533    1.2599 C   0  0  0  0  0  0  0  0  0  0  0  0
    0.9134   -1.8737    1.6441 C   0  0  0  0  0  0  0  0  0  0  0  0
    1.3963   -2.9954    1.9933 O   0  0  0  0  0  0  0  0  0  0  0  0
    1.6870   -0.7660    1.6353 N   0  0  0  0  0  0  0  0  0  0  0  0
    8.7627   -0.9551   -1.2750 N   0  0  0  0  0  0  0  0  0  0  0  0
   10.0904   -1.1780   -1.0814 O   0  0  0  0  0  0  0  0  0  0  0  0
    6.0444   -0.9877   -0.5741 H   0  0  0  0  0  0  0  0  0  0  0  0
    6.4214    0.5421   -1.4174 H   0  0  0  0  0  0  0  0  0  0  0  0
    6.4726    1.6987    0.8243 H   0  0  0  0  0  0  0  0  0  0  0  0
    6.1244    0.1286    1.6403 H   0  0  0  0  0  0  0  0  0  0  0  0
    4.0566   -0.0354    0.2467 H   0  0  0  0  0  0  0  0  0  0  0  0
    4.4424    1.5521   -0.4870 H   0  0  0  0  0  0  0  0  0  0  0  0
    4.3199    2.7037    1.6066 H   0  0  0  0  0  0  0  0  0  0  0  0
    4.0430    1.1897    2.5557 H   0  0  0  0  0  0  0  0  0  0  0  0
   -2.1372    1.6683    0.1323 H   0  0  0  0  0  0  0  0  0  0  0  0
   -4.4735    2.0551   -0.5703 H   0  0  0  0  0  0  0  0  0  0  0  0
   -6.6008   -1.7283   -1.5508 H   0  0  0  0  0  0  0  0  0  0  0  0
   -8.9479   -1.3815   -2.2653 H   0  0  0  0  0  0  0  0  0  0  0  0
  -10.1044    0.7616   -1.8537 H   0  0  0  0  0  0  0  0  0  0  0  0
   -8.8341    2.5698   -0.6933 H   0  0  0  0  0  0  0  0  0  0  0  0
   -6.5205    2.1910   -0.0032 H   0  0  0  0  0  0  0  0  0  0  0  0
   -5.2984   -2.0672    0.0136 H   0  0  0  0  0  0  0  0  0  0  0  0
   -2.9468   -2.4535    0.7203 H   0  0  0  0  0  0  0  0  0  0  0  0
   -1.0363   -2.6458    1.2714 H   0  0  0  0  0  0  0  0  0  0  0  0
    2.6846   -0.8644    1.9339 H   0  0  0  0  0  0  0  0  0  0  0  0
    8.3337   -1.2999   -2.1669 H   0  0  0  0  0  0  0  0  0  0  0  0
   10.4291   -0.6508   -0.3180 H   0  0  0  0  0  0  0  0  0  0  0  0
  1  2  2  0
  2  3  1  0
  3  4  1  0
  4  5  1  0
  5  6  1  0
  6  7  1  0
  7  8  1  0
  8  9  2  0
  9 10  1  0
 10 11  1  0
 11 12  2  0
 12 13  1  0
 13 14  2  0
 14 15  1  0
 15 16  2  0
 16 17  1  0
 17 18  2  0
 18 19  1  0
 19 20  2  0
 14 21  1  0
 21 22  2  0
 10 23  2  0
 23 24  1  0
 24 25  2  0
 24 26  1  0
  2 27  1  0
 27 28  1  0
 26  8  1  0
 22 11  1  0
 20 15  1  0
  3 29  1  0
  3 30  1  0
  4 31  1  0
  4 32  1  0
  5 33  1  0
  5 34  1  0
  6 35  1  0
  6 36  1  0
 12 37  1  0
 13 38  1  0
 16 39  1  0
 17 40  1  0
 18 41  1  0
 19 42  1  0
 20 43  1  0
 21 44  1  0
 22 45  1  0
 23 46  1  0
 26 47  1  0
 27 48  1  0
 28 49  1  0
M  END
$$$$
