@<TRIPOS>MOLECULE
*****
 28 27 0 0 0
SMALL
GASTEIGER

@<TRIPOS>ATOM
      1 C           1.4227   -0.2160    1.2383 C.3     1  UNL1        0.1420
      2 O           1.2977    1.0207    1.8291 O.3     1  UNL1       -0.3818
      3 C           2.4539   -0.3145    0.2031 C.2     1  UNL1        0.2647
      4 O           2.4365   -1.5148   -0.2358 O.2     1  UNL1       -0.2709
      5 N           3.3867    0.6216   -0.3441 N.am    1  UNL1       -0.1953
      6 O           4.1230   -0.0173   -1.2991 O.3     1  UNL1       -0.2951
      7 C           0.0369   -0.6281    0.7823 C.3     1  UNL1        0.0492
      8 C          -0.4690    0.3774   -0.1878 C.3     1  UNL1       -0.0386
      9 C          -1.8399    0.0920   -0.7239 C.3     1  UNL1       -0.0460
     10 C          -2.9042    0.0253    0.3157 C.3     1  UNL1       -0.0626
     11 C          -2.2288    1.1890   -1.6907 C.3     1  UNL1       -0.0626
     12 C          -0.0260   -2.0304    0.3509 C.2     1  UNL1        0.1263
     13 O          -0.3279   -2.5634   -0.7255 O.2     1  UNL1       -0.3006
     14 H           1.6862   -0.9341    2.0619 H       1  UNL1        0.0698
     15 H           2.0910    1.5856    1.8171 H       1  UNL1        0.2105
     16 H           3.2540    1.5522    0.1377 H       1  UNL1        0.1823
     17 H           4.8027   -0.6024   -0.8951 H       1  UNL1        0.2414
     18 H          -0.5818   -0.5379    1.7035 H       1  UNL1        0.0405
     19 H          -0.5358    1.3472    0.3587 H       1  UNL1        0.0275
     20 H           0.2188    0.5748   -1.0349 H       1  UNL1        0.0275
     21 H          -1.7767   -0.8354   -1.3407 H       1  UNL1        0.0296
     22 H          -3.8535    0.5134   -0.0286 H       1  UNL1        0.0232
     23 H          -2.6261    0.6085    1.2239 H       1  UNL1        0.0232
     24 H          -3.2158   -1.0138    0.5708 H       1  UNL1        0.0232
     25 H          -3.0903    0.8667   -2.3334 H       1  UNL1        0.0232
     26 H          -2.6007    2.0353   -1.0920 H       1  UNL1        0.0232
     27 H          -1.3759    1.5500   -2.2911 H       1  UNL1        0.0232
     28 H           0.2423   -2.7517    1.1156 H       1  UNL1        0.1030
@<TRIPOS>BOND
     1     1     2    1
     2     1     3    1
     3     3     4    2
     4     3     5   am
     5     5     6    1
     6     1     7    1
     7     7     8    1
     8     8     9    1
     9     9    10    1
    10     9    11    1
    11     7    12    1
    12    12    13    2
    13     1    14    1
    14     2    15    1
    15     5    16    1
    16     6    17    1
    17     7    18    1
    18     8    19    1
    19     8    20    1
    20     9    21    1
    21    10    22    1
    22    10    23    1
    23    10    24    1
    24    11    25    1
    25    11    26    1
    26    11    27    1
    27    12    28    1
