@<TRIPOS>MOLECULE
*****
 55 57 0 0 0
SMALL
GASTEIGER

@<TRIPOS>ATOM
      1 O          -0.7896   -0.8186    1.7227 O.2     1  UNL1       -0.2492
      2 C          -0.4711   -1.3043    0.6026 C.2     1  UNL1        0.3236
      3 O           0.2532   -2.4765    0.6001 O.3     1  UNL1       -0.4795
      4 C          -0.8794   -0.6092   -0.6692 C.3     1  UNL1        0.1268
      5 C          -2.4152   -0.5550   -0.6887 C.3     1  UNL1       -0.0062
      6 C          -2.9255   -1.9418   -0.6528 C.3     1  UNL1        0.0681
      7 S          -4.6465   -2.1669   -0.6890 S.O2    1  UNL1       -0.0269
      8 O          -5.2520   -1.5845   -1.9631 O.2     1  UNL1       -0.1740
      9 O          -4.9641   -3.6705   -0.7394 O.2     1  UNL1       -0.1740
     10 C          -5.5488   -1.5117    0.6470 C.3     1  UNL1        0.0907
     11 C          -5.4961   -0.0885    0.9044 C.ar    1  UNL1       -0.0265
     12 C          -6.3031    0.7514    0.1288 C.ar    1  UNL1       -0.0570
     13 C          -6.3450    2.1206    0.3517 C.ar    1  UNL1       -0.0615
     14 C          -5.5950    2.6888    1.3402 C.ar    1  UNL1       -0.0617
     15 C          -4.7871    1.8672    2.1204 C.ar    1  UNL1       -0.0615
     16 C          -4.7509    0.5131    1.8939 C.ar    1  UNL1       -0.0570
     17 N          -0.3794   -1.3922   -1.7515 N.3     1  UNL1       -0.1761
     18 S           0.7216   -0.6085   -2.7841 S.O2    1  UNL1        0.0591
     19 O           1.1478   -1.5600   -3.8717 O.2     1  UNL1       -0.1530
     20 O           0.0769    0.5614   -3.4628 O.2     1  UNL1       -0.1530
     21 C           2.1288   -0.1415   -1.8642 C.ar    1  UNL1        0.1053
     22 C           2.1999    1.0951   -1.2635 C.ar    1  UNL1       -0.0348
     23 C           3.3370    1.4235   -0.5418 C.ar    1  UNL1       -0.0522
     24 C           4.4006    0.5582   -0.4024 C.ar    1  UNL1       -0.0178
     25 C           5.6069    0.9013    0.3603 C.ar    1  UNL1       -0.0178
     26 C           6.0759    2.1937    0.4401 C.ar    1  UNL1       -0.0530
     27 C           7.2012    2.5631    1.1425 C.ar    1  UNL1       -0.0472
     28 C           7.8943    1.5538    1.8065 C.ar    1  UNL1        0.0179
     29 BR          9.4704    2.0487    2.7944 Br      1  UNL1       -0.0503
     30 C           7.4694    0.2422    1.7605 C.ar    1  UNL1       -0.0472
     31 C           6.3332   -0.0626    1.0386 C.ar    1  UNL1       -0.0530
     32 C           4.3229   -0.6804   -1.0073 C.ar    1  UNL1       -0.0522
     33 C           3.1897   -1.0212   -1.7327 C.ar    1  UNL1       -0.0348
     34 H           0.4402   -2.9857    1.4715 H       1  UNL1        0.2951
     35 H          -0.4756    0.4031   -0.6600 H       1  UNL1        0.0593
     36 H          -2.7335    0.0687    0.1270 H       1  UNL1        0.0302
     37 H          -2.7117   -0.0640   -1.6421 H       1  UNL1        0.0302
     38 H          -2.4811   -2.4739   -1.5529 H       1  UNL1        0.0500
     39 H          -2.4581   -2.4919    0.2093 H       1  UNL1        0.0500
     40 H          -6.6494   -1.7572    0.4492 H       1  UNL1        0.0549
     41 H          -5.3327   -2.0801    1.6135 H       1  UNL1        0.0549
     42 H          -6.9044    0.3209   -0.6588 H       1  UNL1        0.0621
     43 H          -7.0041    2.7054   -0.3014 H       1  UNL1        0.0618
     44 H          -5.6518    3.7585    1.4860 H       1  UNL1        0.0618
     45 H          -4.2157    2.3606    2.8859 H       1  UNL1        0.0618
     46 H          -4.1049   -0.0832    2.5300 H       1  UNL1        0.0621
     47 H          -0.1201   -2.3442   -1.4809 H       1  UNL1        0.1489
     48 H           1.3579    1.7627   -1.3828 H       1  UNL1        0.0637
     49 H           3.3796    2.3926   -0.0775 H       1  UNL1        0.0624
     50 H           5.5341    2.9665   -0.0760 H       1  UNL1        0.0624
     51 H           7.5455    3.5969    1.1852 H       1  UNL1        0.0629
     52 H           8.0395   -0.5127    2.2927 H       1  UNL1        0.0629
     53 H           5.9834   -1.0823    0.9895 H       1  UNL1        0.0624
     54 H           5.1680   -1.3658   -0.8955 H       1  UNL1        0.0624
     55 H           3.1141   -1.9830   -2.2102 H       1  UNL1        0.0637
@<TRIPOS>BOND
     1     1     2    2
     2     2     3    1
     3     2     4    1
     4     4     5    1
     5     5     6    1
     6     6     7    1
     7     7     8    2
     8     7     9    2
     9     7    10    1
    10    10    11    1
    11    11    12   ar
    12    12    13   ar
    13    13    14   ar
    14    14    15   ar
    15    15    16   ar
    16     4    17    1
    17    17    18    1
    18    18    19    2
    19    18    20    2
    20    18    21    1
    21    21    22   ar
    22    22    23   ar
    23    23    24   ar
    24    24    25    1
    25    25    26   ar
    26    26    27   ar
    27    27    28   ar
    28    28    29    1
    29    28    30   ar
    30    30    31   ar
    31    24    32   ar
    32    32    33   ar
    33    16    11   ar
    34    33    21   ar
    35    31    25   ar
    36     3    34    1
    37     4    35    1
    38     5    36    1
    39     5    37    1
    40     6    38    1
    41     6    39    1
    42    10    40    1
    43    10    41    1
    44    12    42    1
    45    13    43    1
    46    14    44    1
    47    15    45    1
    48    16    46    1
    49    17    47    1
    50    22    48    1
    51    23    49    1
    52    26    50    1
    53    27    51    1
    54    30    52    1
    55    31    53    1
    56    32    54    1
    57    33    55    1
