
     RDKit          3D

 55 57  0  0  0  0  0  0  0  0999 V2000
   -0.7896   -0.8186    1.7227 O   0  0  0  0  0  0  0  0  0  0  0  0
   -0.4711   -1.3043    0.6026 C   0  0  0  0  0  0  0  0  0  0  0  0
    0.2532   -2.4765    0.6001 O   0  0  0  0  0  0  0  0  0  0  0  0
   -0.8794   -0.6092   -0.6692 C   0  0  0  0  0  0  0  0  0  0  0  0
   -2.4152   -0.5550   -0.6887 C   0  0  0  0  0  0  0  0  0  0  0  0
   -2.9255   -1.9418   -0.6528 C   0  0  0  0  0  0  0  0  0  0  0  0
   -4.6465   -2.1669   -0.6890 S   0  0  0  0  0  6  0  0  0  0  0  0
   -5.2520   -1.5845   -1.9631 O   0  0  0  0  0  0  0  0  0  0  0  0
   -4.9641   -3.6705   -0.7394 O   0  0  0  0  0  0  0  0  0  0  0  0
   -5.5488   -1.5117    0.6470 C   0  0  0  0  0  0  0  0  0  0  0  0
   -5.4961   -0.0885    0.9044 C   0  0  0  0  0  0  0  0  0  0  0  0
   -6.3031    0.7514    0.1288 C   0  0  0  0  0  0  0  0  0  0  0  0
   -6.3450    2.1206    0.3517 C   0  0  0  0  0  0  0  0  0  0  0  0
   -5.5950    2.6888    1.3402 C   0  0  0  0  0  0  0  0  0  0  0  0
   -4.7871    1.8672    2.1204 C   0  0  0  0  0  0  0  0  0  0  0  0
   -4.7509    0.5131    1.8939 C   0  0  0  0  0  0  0  0  0  0  0  0
   -0.3794   -1.3922   -1.7515 N   0  0  0  0  0  0  0  0  0  0  0  0
    0.7216   -0.6085   -2.7841 S   0  0  0  0  0  6  0  0  0  0  0  0
    1.1478   -1.5600   -3.8717 O   0  0  0  0  0  0  0  0  0  0  0  0
    0.0769    0.5614   -3.4628 O   0  0  0  0  0  0  0  0  0  0  0  0
    2.1288   -0.1415   -1.8642 C   0  0  0  0  0  0  0  0  0  0  0  0
    2.1999    1.0951   -1.2635 C   0  0  0  0  0  0  0  0  0  0  0  0
    3.3370    1.4235   -0.5418 C   0  0  0  0  0  0  0  0  0  0  0  0
    4.4006    0.5582   -0.4024 C   0  0  0  0  0  0  0  0  0  0  0  0
    5.6069    0.9013    0.3603 C   0  0  0  0  0  0  0  0  0  0  0  0
    6.0759    2.1937    0.4401 C   0  0  0  0  0  0  0  0  0  0  0  0
    7.2012    2.5631    1.1425 C   0  0  0  0  0  0  0  0  0  0  0  0
    7.8943    1.5538    1.8065 C   0  0  0  0  0  0  0  0  0  0  0  0
    9.4704    2.0487    2.7944 Br  0  0  0  0  0  0  0  0  0  0  0  0
    7.4694    0.2422    1.7605 C   0  0  0  0  0  0  0  0  0  0  0  0
    6.3332   -0.0626    1.0386 C   0  0  0  0  0  0  0  0  0  0  0  0
    4.3229   -0.6804   -1.0073 C   0  0  0  0  0  0  0  0  0  0  0  0
    3.1897   -1.0212   -1.7327 C   0  0  0  0  0  0  0  0  0  0  0  0
    0.4402   -2.9857    1.4715 H   0  0  0  0  0  0  0  0  0  0  0  0
   -0.4756    0.4031   -0.6600 H   0  0  0  0  0  0  0  0  0  0  0  0
   -2.7335    0.0687    0.1270 H   0  0  0  0  0  0  0  0  0  0  0  0
   -2.7117   -0.0640   -1.6421 H   0  0  0  0  0  0  0  0  0  0  0  0
   -2.4811   -2.4739   -1.5529 H   0  0  0  0  0  0  0  0  0  0  0  0
   -2.4581   -2.4919    0.2093 H   0  0  0  0  0  0  0  0  0  0  0  0
   -6.6494   -1.7572    0.4492 H   0  0  0  0  0  0  0  0  0  0  0  0
   -5.3327   -2.0801    1.6135 H   0  0  0  0  0  0  0  0  0  0  0  0
   -6.9044    0.3209   -0.6588 H   0  0  0  0  0  0  0  0  0  0  0  0
   -7.0041    2.7054   -0.3014 H   0  0  0  0  0  0  0  0  0  0  0  0
   -5.6518    3.7585    1.4860 H   0  0  0  0  0  0  0  0  0  0  0  0
   -4.2157    2.3606    2.8859 H   0  0  0  0  0  0  0  0  0  0  0  0
   -4.1049   -0.0832    2.5300 H   0  0  0  0  0  0  0  0  0  0  0  0
   -0.1201   -2.3442   -1.4809 H   0  0  0  0  0  0  0  0  0  0  0  0
    1.3579    1.7627   -1.3828 H   0  0  0  0  0  0  0  0  0  0  0  0
    3.3796    2.3926   -0.0775 H   0  0  0  0  0  0  0  0  0  0  0  0
    5.5341    2.9665   -0.0760 H   0  0  0  0  0  0  0  0  0  0  0  0
    7.5455    3.5969    1.1852 H   0  0  0  0  0  0  0  0  0  0  0  0
    8.0395   -0.5127    2.2927 H   0  0  0  0  0  0  0  0  0  0  0  0
    5.9834   -1.0823    0.9895 H   0  0  0  0  0  0  0  0  0  0  0  0
    5.1680   -1.3658   -0.8955 H   0  0  0  0  0  0  0  0  0  0  0  0
    3.1141   -1.9830   -2.2102 H   0  0  0  0  0  0  0  0  0  0  0  0
  1  2  2  0
  2  3  1  0
  2  4  1  0
  4  5  1  0
  5  6  1  0
  6  7  1  0
  7  8  2  0
  7  9  2  0
  7 10  1  0
 10 11  1  0
 11 12  2  0
 12 13  1  0
 13 14  2  0
 14 15  1  0
 15 16  2  0
  4 17  1  0
 17 18  1  0
 18 19  2  0
 18 20  2  0
 18 21  1  0
 21 22  2  0
 22 23  1  0
 23 24  2  0
 24 25  1  0
 25 26  2  0
 26 27  1  0
 27 28  2  0
 28 29  1  0
 28 30  1  0
 30 31  2  0
 24 32  1  0
 32 33  2  0
 16 11  1  0
 33 21  1  0
 31 25  1  0
  3 34  1  0
  4 35  1  0
  5 36  1  0
  5 37  1  0
  6 38  1  0
  6 39  1  0
 10 40  1  0
 10 41  1  0
 12 42  1  0
 13 43  1  0
 14 44  1  0
 15 45  1  0
 16 46  1  0
 17 47  1  0
 22 48  1  0
 23 49  1  0
 26 50  1  0
 27 51  1  0
 30 52  1  0
 31 53  1  0
 32 54  1  0
 33 55  1  0
M  END
$$$$
