@<TRIPOS>MOLECULE
*****
 68 72 0 0 0
SMALL
GASTEIGER

@<TRIPOS>ATOM
      1 C          -2.7443   -2.9649    4.2483 C.3     1  UNL1       -0.0653
      2 C          -1.9320   -2.3481    3.0970 C.3     1  UNL1       -0.0556
      3 C          -1.8019   -3.3814    2.0354 C.3     1  UNL1       -0.0478
      4 C          -1.0240   -2.9616    0.8160 C.3     1  UNL1       -0.0084
      5 C          -1.6733   -1.8157    0.1314 C.ar    1  UNL1        0.0677
      6 N          -2.7717   -1.1556    0.5378 N.ar    1  UNL1       -0.1702
      7 N          -3.1045   -0.1935   -0.2942 N.ar    1  UNL1       -0.2224
      8 C          -4.2064    0.7126   -0.1926 C.ar    1  UNL1        0.1029
      9 C          -4.1094    1.8984    0.5070 C.ar    1  UNL1        0.0691
     10 CL         -2.5731    2.2742    1.2824 Cl      1  UNL1       -0.0813
     11 C          -5.1867    2.7675    0.5971 C.ar    1  UNL1       -0.0229
     12 C          -6.3951    2.4861   -0.0050 C.ar    1  UNL1        0.0439
     13 CL         -7.7625    3.5924    0.1108 Cl      1  UNL1       -0.0834
     14 C          -6.4954    1.3023   -0.7047 C.ar    1  UNL1       -0.0229
     15 C          -5.4202    0.4423   -0.7905 C.ar    1  UNL1        0.0691
     16 CL         -5.5737   -1.0619   -1.6888 Cl      1  UNL1       -0.0813
     17 C          -2.1743   -0.2230   -1.3021 C.ar    1  UNL1        0.1550
     18 C          -2.2313    0.7040   -2.4102 C.2     1  UNL1        0.3581
     19 O          -3.1304    1.5936   -2.5079 O.2     1  UNL1       -0.2432
     20 O          -1.3057    0.6539   -3.4070 O.3     1  UNL1       -0.4604
     21 C          -1.2831    1.5164   -4.5264 C.3     1  UNL1        0.0900
     22 C          -1.1411    2.9369   -4.0320 C.3     1  UNL1       -0.0306
     23 C          -1.2566   -1.2297   -1.0706 C.ar    1  UNL1        0.0123
     24 C          -0.0983   -1.5913   -1.9252 C.3     1  UNL1        0.0016
     25 C           1.2029   -1.1196   -1.3985 C.ar    1  UNL1       -0.0429
     26 C           2.0498   -1.9802   -0.7295 C.ar    1  UNL1       -0.0577
     27 C           3.2682   -1.5729   -0.2257 C.ar    1  UNL1       -0.0537
     28 C           3.7120   -0.2743   -0.3627 C.ar    1  UNL1       -0.0172
     29 C           5.0168    0.1335    0.1744 C.ar    1  UNL1       -0.0072
     30 C           6.1823   -0.3231   -0.4176 C.ar    1  UNL1       -0.0534
     31 C           7.4511    0.0032   -0.0016 C.ar    1  UNL1       -0.0611
     32 C           7.5447    0.8480    1.0863 C.ar    1  UNL1       -0.0611
     33 C           6.4144    1.3299    1.7110 C.ar    1  UNL1       -0.0504
     34 C           5.1356    0.9757    1.2595 C.ar    1  UNL1        0.0282
     35 C           3.9490    1.4811    1.9309 C.ar    1  UNL1        0.1799
     36 N           2.6640    1.2396    1.6645 N.ar    1  UNL1       -0.1084
     37 N           1.9084    1.9121    2.5427 N.ar    1  UNL1       -0.0229
     38 N           2.7040    2.5758    3.3610 N.ar    1  UNL1       -0.0464
     39 N           3.9531    2.3106    2.9846 N.ar    1  UNL1       -0.2388
     40 C           2.8754    0.5936   -1.0285 C.ar    1  UNL1       -0.0537
     41 C           1.6377    0.1807   -1.5405 C.ar    1  UNL1       -0.0577
     42 H          -3.7155   -3.3078    3.8144 H       1  UNL1        0.0230
     43 H          -2.2372   -3.8330    4.6811 H       1  UNL1        0.0230
     44 H          -2.9861   -2.1989    4.9990 H       1  UNL1        0.0230
     45 H          -2.4931   -1.4425    2.8139 H       1  UNL1        0.0263
     46 H          -0.9598   -2.0155    3.5115 H       1  UNL1        0.0263
     47 H          -1.3476   -4.2835    2.5017 H       1  UNL1        0.0269
     48 H          -2.8233   -3.7111    1.6909 H       1  UNL1        0.0269
     49 H           0.0341   -2.7103    1.1046 H       1  UNL1        0.0329
     50 H          -1.0162   -3.8258    0.1268 H       1  UNL1        0.0329
     51 H          -5.0931    3.6957    1.1512 H       1  UNL1        0.0647
     52 H          -7.4611    1.0879   -1.1800 H       1  UNL1        0.0647
     53 H          -2.1977    1.3819   -5.1525 H       1  UNL1        0.0695
     54 H          -0.3956    1.2912   -5.1513 H       1  UNL1        0.0695
     55 H          -1.2277    2.9764   -2.9264 H       1  UNL1        0.0262
     56 H          -0.1540    3.3754   -4.3109 H       1  UNL1        0.0262
     57 H          -1.9290    3.6006   -4.4325 H       1  UNL1        0.0262
     58 H          -0.2539   -1.3223   -2.9841 H       1  UNL1        0.0363
     59 H          -0.1055   -2.7301   -1.9476 H       1  UNL1        0.0363
     60 H           1.7027   -3.0029   -0.6204 H       1  UNL1        0.0621
     61 H           3.9188   -2.2735    0.2988 H       1  UNL1        0.0624
     62 H           6.0570   -0.9828   -1.2671 H       1  UNL1        0.0624
     63 H           8.3407   -0.3831   -0.5025 H       1  UNL1        0.0618
     64 H           8.5458    1.1188    1.4316 H       1  UNL1        0.0618
     65 H           6.5092    1.9834    2.5523 H       1  UNL1        0.0625
     66 H           4.7759    2.7189    3.4772 H       1  UNL1        0.1923
     67 H           3.2070    1.6288   -1.1490 H       1  UNL1        0.0624
     68 H           1.0303    0.8967   -2.0472 H       1  UNL1        0.0621
@<TRIPOS>BOND
     1     1     2    1
     2     2     3    1
     3     3     4    1
     4     4     5    1
     5     5     6   ar
     6     6     7   ar
     7     7     8    1
     8     8     9   ar
     9     9    10    1
    10     9    11   ar
    11    11    12   ar
    12    12    13    1
    13    12    14   ar
    14    14    15   ar
    15    15    16    1
    16     7    17   ar
    17    17    18    1
    18    18    19    2
    19    18    20    1
    20    20    21    1
    21    21    22    1
    22    17    23   ar
    23    23    24    1
    24    24    25    1
    25    25    26   ar
    26    26    27   ar
    27    27    28   ar
    28    28    29    1
    29    29    30   ar
    30    30    31   ar
    31    31    32   ar
    32    32    33   ar
    33    33    34   ar
    34    34    35    1
    35    35    36   ar
    36    36    37   ar
    37    37    38   ar
    38    38    39   ar
    39    28    40   ar
    40    40    41   ar
    41    23     5   ar
    42    41    25   ar
    43    15     8   ar
    44    34    29   ar
    45    39    35   ar
    46     1    42    1
    47     1    43    1
    48     1    44    1
    49     2    45    1
    50     2    46    1
    51     3    47    1
    52     3    48    1
    53     4    49    1
    54     4    50    1
    55    11    51    1
    56    14    52    1
    57    21    53    1
    58    21    54    1
    59    22    55    1
    60    22    56    1
    61    22    57    1
    62    24    58    1
    63    24    59    1
    64    26    60    1
    65    27    61    1
    66    30    62    1
    67    31    63    1
    68    32    64    1
    69    33    65    1
    70    39    66    1
    71    40    67    1
    72    41    68    1
