
     RDKit          3D

 32 32  0  0  0  0  0  0  0  0999 V2000
    0.4820   -3.1957    1.4269 N   0  0  0  0  0  0  0  0  0  0  0  0
    1.0868   -1.9851    1.1709 N   0  0  0  0  0  0  0  0  0  0  0  0
    0.6847   -1.1727    0.2453 C   0  0  0  0  0  0  0  0  0  0  0  0
   -0.4837   -1.5887   -0.5626 C   0  0  0  0  0  0  0  0  0  0  0  0
   -1.6368   -0.6664   -0.4666 C   0  0  0  0  0  0  0  0  0  0  0  0
   -2.4450   -0.7916    0.6523 C   0  0  0  0  0  0  0  0  0  0  0  0
   -3.5425    0.0190    0.8129 C   0  0  0  0  0  0  0  0  0  0  0  0
   -3.8553    0.9674   -0.1355 C   0  0  0  0  0  0  0  0  0  0  0  0
   -4.9815    1.7700    0.0701 O   0  0  0  0  0  0  0  0  0  0  0  0
   -3.0641    1.0943   -1.2372 C   0  0  0  0  0  0  0  0  0  0  0  0
   -3.4699    2.3977   -2.5684 Br  0  0  0  0  0  0  0  0  0  0  0  0
   -1.9436    0.2807   -1.4208 C   0  0  0  0  0  0  0  0  0  0  0  0
    1.3414    0.0971   -0.0002 C   0  0  0  0  0  0  0  0  0  0  0  0
    0.9251    0.8506   -0.9005 O   0  0  0  0  0  0  0  0  0  0  0  0
    2.4607    0.5082    0.7690 N   0  0  0  0  0  0  0  0  0  0  0  0
    3.1510    1.7622    0.5656 C   0  0  0  0  0  0  0  0  0  0  0  0
    3.7288    1.8841   -0.8294 C   0  0  0  0  0  0  0  0  0  0  0  0
    4.9035    0.5011   -1.0274 S   0  0  0  0  0  0  0  0  0  0  0  0
    0.0414   -3.4699    2.3361 H   0  0  0  0  0  0  0  0  0  0  0  0
    0.4385   -3.9325    0.6726 H   0  0  0  0  0  0  0  0  0  0  0  0
   -0.2160   -1.6435   -1.6576 H   0  0  0  0  0  0  0  0  0  0  0  0
   -0.7995   -2.6356   -0.3136 H   0  0  0  0  0  0  0  0  0  0  0  0
   -2.2093   -1.5419    1.4162 H   0  0  0  0  0  0  0  0  0  0  0  0
   -4.1804   -0.0704    1.6828 H   0  0  0  0  0  0  0  0  0  0  0  0
   -5.7281    1.8381   -0.6116 H   0  0  0  0  0  0  0  0  0  0  0  0
   -1.3394    0.4021   -2.3115 H   0  0  0  0  0  0  0  0  0  0  0  0
    2.7660   -0.1773    1.5192 H   0  0  0  0  0  0  0  0  0  0  0  0
    2.4790    2.6446    0.7092 H   0  0  0  0  0  0  0  0  0  0  0  0
    3.9371    1.8469    1.3373 H   0  0  0  0  0  0  0  0  0  0  0  0
    2.9241    1.8616   -1.5675 H   0  0  0  0  0  0  0  0  0  0  0  0
    4.2843    2.8460   -0.8559 H   0  0  0  0  0  0  0  0  0  0  0  0
    4.2606   -0.7007   -0.7021 H   0  0  0  0  0  0  0  0  0  0  0  0
  1  2  1  0
  2  3  2  3
  3  4  1  0
  4  5  1  0
  5  6  2  0
  6  7  1  0
  7  8  2  0
  8  9  1  0
  8 10  1  0
 10 11  1  0
 10 12  2  0
  3 13  1  0
 13 14  2  0
 13 15  1  0
 15 16  1  0
 16 17  1  0
 17 18  1  0
 12  5  1  0
  1 19  1  0
  1 20  1  0
  4 21  1  0
  4 22  1  0
  6 23  1  0
  7 24  1  0
  9 25  1  0
 12 26  1  0
 15 27  1  0
 16 28  1  0
 16 29  1  0
 17 30  1  0
 17 31  1  0
 18 32  1  0
M  END
$$$$
