@<TRIPOS>MOLECULE
*****
 32 32 0 0 0
SMALL
GASTEIGER

@<TRIPOS>ATOM
      1 N           0.4820   -3.1957    1.4269 N.pl3   1  UNL1       -0.2821
      2 N           1.0868   -1.9851    1.1709 N.2     1  UNL1       -0.1889
      3 C           0.6847   -1.1727    0.2453 C.2     1  UNL1        0.1242
      4 C          -0.4837   -1.5887   -0.5626 C.3     1  UNL1        0.0214
      5 C          -1.6368   -0.6664   -0.4666 C.ar    1  UNL1       -0.0401
      6 C          -2.4450   -0.7916    0.6523 C.ar    1  UNL1       -0.0547
      7 C          -3.5425    0.0190    0.8129 C.ar    1  UNL1       -0.0188
      8 C          -3.8553    0.9674   -0.1355 C.ar    1  UNL1        0.1308
      9 O          -4.9815    1.7700    0.0701 O.3     1  UNL1       -0.5057
     10 C          -3.0641    1.0943   -1.2372 C.ar    1  UNL1        0.0595
     11 BR         -3.4699    2.3977   -2.5684 Br      1  UNL1       -0.0465
     12 C          -1.9436    0.2807   -1.4208 C.ar    1  UNL1       -0.0407
     13 C           1.3414    0.0971   -0.0002 C.2     1  UNL1        0.2601
     14 O           0.9251    0.8506   -0.9005 O.2     1  UNL1       -0.2688
     15 N           2.4607    0.5082    0.7690 N.am    1  UNL1       -0.3095
     16 C           3.1510    1.7622    0.5656 C.3     1  UNL1        0.0207
     17 C           3.7288    1.8841   -0.8294 C.3     1  UNL1        0.0063
     18 S           4.9035    0.5011   -1.0274 S.3     1  UNL1       -0.1767
     19 H           0.0414   -3.4699    2.3361 H       1  UNL1        0.1642
     20 H           0.4385   -3.9325    0.6726 H       1  UNL1        0.1642
     21 H          -0.2160   -1.6435   -1.6576 H       1  UNL1        0.0379
     22 H          -0.7995   -2.6356   -0.3136 H       1  UNL1        0.0379
     23 H          -2.2093   -1.5419    1.4162 H       1  UNL1        0.0622
     24 H          -4.1804   -0.0704    1.6828 H       1  UNL1        0.0654
     25 H          -5.7281    1.8381   -0.6116 H       1  UNL1        0.2922
     26 H          -1.3394    0.4021   -2.3115 H       1  UNL1        0.0633
     27 H           2.7660   -0.1773    1.5192 H       1  UNL1        0.1491
     28 H           2.4790    2.6446    0.7092 H       1  UNL1        0.0470
     29 H           3.9371    1.8469    1.3373 H       1  UNL1        0.0470
     30 H           2.9241    1.8616   -1.5675 H       1  UNL1        0.0389
     31 H           4.2843    2.8460   -0.8559 H       1  UNL1        0.0389
     32 H           4.2606   -0.7007   -0.7021 H       1  UNL1        0.1017
@<TRIPOS>BOND
     1     1     2    1
     2     2     3    2
     3     3     4    1
     4     4     5    1
     5     5     6   ar
     6     6     7   ar
     7     7     8   ar
     8     8     9    1
     9     8    10   ar
    10    10    11    1
    11    10    12   ar
    12     3    13    1
    13    13    14    2
    14    13    15   am
    15    15    16    1
    16    16    17    1
    17    17    18    1
    18    12     5   ar
    19     1    19    1
    20     1    20    1
    21     4    21    1
    22     4    22    1
    23     6    23    1
    24     7    24    1
    25     9    25    1
    26    12    26    1
    27    15    27    1
    28    16    28    1
    29    16    29    1
    30    17    30    1
    31    17    31    1
    32    18    32    1
