@<TRIPOS>MOLECULE
*****
 35 35 0 0 0
SMALL
GASTEIGER

@<TRIPOS>ATOM
      1 C          -3.7524    0.0141   -0.2867 C.3     1  UNL1       -0.0473
      2 C          -2.5266   -0.2272    0.5119 C.3     1  UNL1        0.0108
      3 C          -2.8001    0.3367    1.9129 C.3     1  UNL1       -0.0473
      4 C          -2.3075   -1.7105    0.6986 C.3     1  UNL1       -0.0473
      5 N          -1.3391    0.4418    0.0426 N.3     1  UNL1       -0.3086
      6 C          -0.9504    0.0862   -1.2815 C.3     1  UNL1        0.0266
      7 C           0.2877    0.8689   -1.6588 C.3     1  UNL1        0.0927
      8 O           0.0874    2.2525   -1.6280 O.3     1  UNL1       -0.3859
      9 C           1.4700    0.5360   -0.8297 C.ar    1  UNL1       -0.0151
     10 C           1.7547    1.0975    0.3946 C.ar    1  UNL1       -0.0358
     11 C           2.8731    0.7165    1.0853 C.ar    1  UNL1        0.0633
     12 CL          3.2798    1.4008    2.6471 Cl      1  UNL1       -0.0816
     13 C           3.7463   -0.2325    0.5868 C.ar    1  UNL1        0.0617
     14 N           4.9366   -0.7045    1.2165 N.pl3   1  UNL1       -0.3557
     15 C           3.4977   -0.8204   -0.6381 C.ar    1  UNL1        0.0633
     16 CL          4.5418   -2.0427   -1.3739 Cl      1  UNL1       -0.0816
     17 C           2.3540   -0.4187   -1.3250 C.ar    1  UNL1       -0.0358
     18 H          -3.8479    1.0180   -0.7144 H       1  UNL1        0.0247
     19 H          -3.9143   -0.7421   -1.0847 H       1  UNL1        0.0247
     20 H          -4.6433   -0.0988    0.3980 H       1  UNL1        0.0247
     21 H          -1.9278    0.0357    2.5296 H       1  UNL1        0.0247
     22 H          -3.7386   -0.1002    2.2949 H       1  UNL1        0.0247
     23 H          -2.8134    1.4402    1.8615 H       1  UNL1        0.0247
     24 H          -3.2891   -2.1605    0.9316 H       1  UNL1        0.0247
     25 H          -1.8051   -2.1910   -0.1599 H       1  UNL1        0.0247
     26 H          -1.6254   -1.8042    1.5909 H       1  UNL1        0.0247
     27 H          -0.5775    0.1490    0.7176 H       1  UNL1        0.1225
     28 H          -1.7857    0.3363   -1.9652 H       1  UNL1        0.0453
     29 H          -0.6618   -0.9896   -1.3670 H       1  UNL1        0.0453
     30 H           0.5265    0.6608   -2.7495 H       1  UNL1        0.0656
     31 H          -0.1088    2.5372   -0.7056 H       1  UNL1        0.2103
     32 H           1.1005    1.8308    0.7951 H       1  UNL1        0.0636
     33 H           5.8926   -0.2648    1.1395 H       1  UNL1        0.1424
     34 H           5.9187   -0.3744    1.2239 H       1  UNL1        0.1424
     35 H           2.1472   -0.8768   -2.2947 H       1  UNL1        0.0636
@<TRIPOS>BOND
     1     1     2    1
     2     2     3    1
     3     2     4    1
     4     2     5    1
     5     5     6    1
     6     6     7    1
     7     7     8    1
     8     7     9    1
     9     9    10   ar
    10    10    11   ar
    11    11    12    1
    12    11    13   ar
    13    13    14    1
    14    13    15   ar
    15    15    16    1
    16    15    17   ar
    17    17     9   ar
    18     1    18    1
    19     1    19    1
    20     1    20    1
    21     3    21    1
    22     3    22    1
    23     3    23    1
    24     4    24    1
    25     4    25    1
    26     4    26    1
    27     5    27    1
    28     6    28    1
    29     6    29    1
    30     7    30    1
    31     8    31    1
    32    10    32    1
    33    14    33    1
    34    14    34    1
    35    17    35    1
