
     RDKit          3D

 36 35  0  0  0  0  0  0  0  0999 V2000
    0.4703    0.1113    0.2344 C   0  0  1  0  0  0  0  0  0  0  0  0
    0.5747   -0.5279    1.5637 C   0  0  0  0  0  0  0  0  0  0  0  0
    1.8006   -0.2622    2.2725 N   0  0  0  0  0  0  0  0  0  0  0  0
    1.4991   -0.2942   -0.7532 C   0  0  0  0  0  0  0  0  0  0  0  0
    2.9071   -0.0084   -0.3658 C   0  0  0  0  0  0  0  0  0  0  0  0
    3.8543   -0.4221   -1.4639 C   0  0  0  0  0  0  0  0  0  0  0  0
    4.2947   -0.9198   -2.6582 O   0  0  0  0  0  0  0  0  0  0  0  0
    5.0424   -0.1658   -1.1053 O   0  0  0  0  0  0  0  0  0  0  0  0
   -0.9266    0.0204   -0.3576 C   0  0  2  0  0  0  0  0  0  0  0  0
   -1.9649    0.6739    0.4915 C   0  0  0  0  0  0  0  0  0  0  0  0
   -1.7757    2.1283    0.7499 C   0  0  0  0  0  0  0  0  0  0  0  0
   -2.8939    2.5867    1.5884 N   0  0  0  0  0  0  0  0  0  0  0  0
   -1.2970   -1.4060   -0.6752 C   0  0  0  0  0  0  0  0  0  0  0  0
   -2.6618   -1.4744   -1.2541 C   0  0  0  0  0  0  0  0  0  0  0  0
   -2.7955   -1.4927   -2.6339 O   0  0  0  0  0  0  0  0  0  0  0  0
   -3.7700   -1.5201   -0.6231 O   0  0  0  0  0  0  0  0  0  0  0  0
    0.6218    1.2239    0.4113 H   0  0  0  0  0  0  0  0  0  0  0  0
    0.4465   -1.6422    1.4017 H   0  0  0  0  0  0  0  0  0  0  0  0
   -0.2517   -0.2201    2.2521 H   0  0  0  0  0  0  0  0  0  0  0  0
    2.2085   -1.1337    2.6808 H   0  0  0  0  0  0  0  0  0  0  0  0
    1.6874    0.4063    3.0531 H   0  0  0  0  0  0  0  0  0  0  0  0
    1.4027   -1.3956   -1.0012 H   0  0  0  0  0  0  0  0  0  0  0  0
    1.2916    0.2752   -1.7135 H   0  0  0  0  0  0  0  0  0  0  0  0
    3.1839   -0.6164    0.5455 H   0  0  0  0  0  0  0  0  0  0  0  0
    3.0839    1.0695   -0.2003 H   0  0  0  0  0  0  0  0  0  0  0  0
    4.3278   -0.3153   -3.4729 H   0  0  0  0  0  0  0  0  0  0  0  0
   -0.8874    0.5741   -1.3217 H   0  0  0  0  0  0  0  0  0  0  0  0
   -2.9658    0.5603   -0.0003 H   0  0  0  0  0  0  0  0  0  0  0  0
   -2.0832    0.1413    1.4738 H   0  0  0  0  0  0  0  0  0  0  0  0
   -0.8181    2.3268    1.2412 H   0  0  0  0  0  0  0  0  0  0  0  0
   -1.8712    2.6586   -0.2171 H   0  0  0  0  0  0  0  0  0  0  0  0
   -3.6627    1.9090    1.5014 H   0  0  0  0  0  0  0  0  0  0  0  0
   -2.5105    2.6991    2.5471 H   0  0  0  0  0  0  0  0  0  0  0  0
   -1.2930   -2.0014    0.2826 H   0  0  0  0  0  0  0  0  0  0  0  0
   -0.6053   -1.8734   -1.3951 H   0  0  0  0  0  0  0  0  0  0  0  0
   -3.6630   -1.6729   -3.0785 H   0  0  0  0  0  0  0  0  0  0  0  0
  1  2  1  0
  2  3  1  0
  1  4  1  0
  4  5  1  0
  5  6  1  0
  6  7  1  0
  6  8  2  0
  1  9  1  0
  9 10  1  0
 10 11  1  0
 11 12  1  0
  9 13  1  0
 13 14  1  0
 14 15  1  0
 14 16  2  0
  1 17  1  1
  2 18  1  0
  2 19  1  0
  3 20  1  0
  3 21  1  0
  4 22  1  0
  4 23  1  0
  5 24  1  0
  5 25  1  0
  7 26  1  0
  9 27  1  6
 10 28  1  0
 10 29  1  0
 11 30  1  0
 11 31  1  0
 12 32  1  0
 12 33  1  0
 13 34  1  0
 13 35  1  0
 15 36  1  0
M  END
$$$$
