@<TRIPOS>MOLECULE
*****
 36 35 0 0 0
SMALL
GASTEIGER

@<TRIPOS>ATOM
      1 C           0.4703    0.1113    0.2344 C.3     1  UNL1       -0.0248
      2 C           0.5747   -0.5279    1.5637 C.3     1  UNL1       -0.0038
      3 N           1.8006   -0.2622    2.2725 N.3     1  UNL1       -0.3297
      4 C           1.4991   -0.2942   -0.7532 C.3     1  UNL1       -0.0387
      5 C           2.9071   -0.0084   -0.3658 C.3     1  UNL1        0.0451
      6 C           3.8543   -0.4221   -1.4639 C.2     1  UNL1        0.3047
      7 O           4.2947   -0.9198   -2.6582 O.3     1  UNL1       -0.4806
      8 O           5.0424   -0.1658   -1.1053 O.2     1  UNL1       -0.2510
      9 C          -0.9266    0.0204   -0.3576 C.3     1  UNL1       -0.0259
     10 C          -1.9649    0.6739    0.4915 C.3     1  UNL1       -0.0370
     11 C          -1.7757    2.1283    0.7499 C.3     1  UNL1       -0.0066
     12 N          -2.8939    2.5867    1.5884 N.3     1  UNL1       -0.3300
     13 C          -1.2970   -1.4060   -0.6752 C.3     1  UNL1        0.0479
     14 C          -2.6618   -1.4744   -1.2541 C.2     1  UNL1        0.3050
     15 O          -2.7955   -1.4927   -2.6339 O.3     1  UNL1       -0.4806
     16 O          -3.7700   -1.5201   -0.6231 O.2     1  UNL1       -0.2510
     17 H           0.6218    1.2239    0.4113 H       1  UNL1        0.0316
     18 H           0.4465   -1.6422    1.4017 H       1  UNL1        0.0425
     19 H          -0.2517   -0.2201    2.2521 H       1  UNL1        0.0425
     20 H           2.2085   -1.1337    2.6808 H       1  UNL1        0.1182
     21 H           1.6874    0.4063    3.0531 H       1  UNL1        0.1182
     22 H           1.4027   -1.3956   -1.0012 H       1  UNL1        0.0274
     23 H           1.2916    0.2752   -1.7135 H       1  UNL1        0.0274
     24 H           3.1839   -0.6164    0.5455 H       1  UNL1        0.0378
     25 H           3.0839    1.0695   -0.2003 H       1  UNL1        0.0378
     26 H           4.3278   -0.3153   -3.4729 H       1  UNL1        0.2951
     27 H          -0.8874    0.5741   -1.3217 H       1  UNL1        0.0309
     28 H          -2.9658    0.5603   -0.0003 H       1  UNL1        0.0280
     29 H          -2.0832    0.1413    1.4738 H       1  UNL1        0.0280
     30 H          -0.8181    2.3268    1.2412 H       1  UNL1        0.0422
     31 H          -1.8712    2.6586   -0.2171 H       1  UNL1        0.0422
     32 H          -3.6627    1.9090    1.5014 H       1  UNL1        0.1182
     33 H          -2.5105    2.6991    2.5471 H       1  UNL1        0.1182
     34 H          -1.2930   -2.0014    0.2826 H       1  UNL1        0.0380
     35 H          -0.6053   -1.8734   -1.3951 H       1  UNL1        0.0380
     36 H          -3.6630   -1.6729   -3.0785 H       1  UNL1        0.2951
@<TRIPOS>BOND
     1     1     2    1
     2     2     3    1
     3     1     4    1
     4     4     5    1
     5     5     6    1
     6     6     7    1
     7     6     8    2
     8     1     9    1
     9     9    10    1
    10    10    11    1
    11    11    12    1
    12     9    13    1
    13    13    14    1
    14    14    15    1
    15    14    16    2
    16     1    17    1
    17     2    18    1
    18     2    19    1
    19     3    20    1
    20     3    21    1
    21     4    22    1
    22     4    23    1
    23     5    24    1
    24     5    25    1
    25     7    26    1
    26     9    27    1
    27    10    28    1
    28    10    29    1
    29    11    30    1
    30    11    31    1
    31    12    32    1
    32    12    33    1
    33    13    34    1
    34    13    35    1
    35    15    36    1
