@<TRIPOS>MOLECULE
*****
 49 50 0 0 0
SMALL
GASTEIGER

@<TRIPOS>ATOM
      1 C           3.1705   -0.8092   -1.3228 C.3     1  UNL1        0.1360
      2 C           3.0525    0.5800   -0.6929 C.3     1  UNL1        0.0365
      3 C           3.4883    0.4952    0.7161 C.1     1  UNL1       -0.0978
      4 C           3.8594    0.4137    1.8615 C.1     1  UNL1       -0.0739
      5 C           4.3296    0.3032    3.2485 C.3     1  UNL1        0.1079
      6 O           5.2700    1.3051    3.5572 O.3     1  UNL1       -0.3705
      7 C           6.3356    1.1218    2.6695 C.3     1  UNL1        0.0377
      8 N           2.7676   -0.8313   -2.7006 N.3     1  UNL1       -0.1752
      9 S           1.4583   -1.9460   -2.8622 S.O2    1  UNL1        0.0592
     10 O           1.9925   -3.2878   -2.4170 O.2     1  UNL1       -0.1530
     11 O           1.0432   -2.0784   -4.3112 O.2     1  UNL1       -0.1530
     12 C           0.0672   -1.5036   -1.9356 C.ar    1  UNL1        0.1053
     13 C          -0.8628   -0.6726   -2.5580 C.ar    1  UNL1       -0.0348
     14 C          -2.0154   -0.2489   -1.9248 C.ar    1  UNL1       -0.0522
     15 C          -2.3058   -0.6302   -0.6348 C.ar    1  UNL1       -0.0178
     16 C          -1.3875   -1.4533   -0.0149 C.ar    1  UNL1       -0.0522
     17 C          -0.2393   -1.8773   -0.6410 C.ar    1  UNL1       -0.0348
     18 C          -3.5299   -0.1423   -0.0497 C.ar    1  UNL1       -0.0177
     19 C          -4.0198    1.1026   -0.4143 C.ar    1  UNL1       -0.0506
     20 C          -5.1836    1.6205    0.1121 C.ar    1  UNL1       -0.0194
     21 C          -5.9103    0.9004    1.0363 C.ar    1  UNL1        0.1201
     22 O          -7.0918    1.2240    1.6859 O.3     1  UNL1       -0.4951
     23 C          -7.6955    2.4709    1.4004 C.3     1  UNL1        0.0788
     24 C          -5.4466   -0.3581    1.4273 C.ar    1  UNL1       -0.0194
     25 C          -4.2647   -0.8560    0.8767 C.ar    1  UNL1       -0.0506
     26 C           4.6031   -1.2550   -1.2151 C.2     1  UNL1        0.3245
     27 O           5.3384   -1.6133   -2.3463 O.3     1  UNL1       -0.4795
     28 O           5.1938   -1.3218   -0.0984 O.2     1  UNL1       -0.2492
     29 H           2.5777   -1.4888   -0.6774 H       1  UNL1        0.0602
     30 H           2.0103    0.9123   -0.7064 H       1  UNL1        0.0419
     31 H           3.7353    1.2932   -1.2008 H       1  UNL1        0.0419
     32 H           4.8714   -0.6651    3.4134 H       1  UNL1        0.0697
     33 H           3.4538    0.3243    3.9072 H       1  UNL1        0.0697
     34 H           7.1356    1.8571    2.8221 H       1  UNL1        0.0524
     35 H           5.9325    1.2533    1.6387 H       1  UNL1        0.0524
     36 H           6.8083    0.1141    2.7852 H       1  UNL1        0.0524
     37 H           2.3711    0.1187   -2.9184 H       1  UNL1        0.1490
     38 H          -0.7085   -0.3204   -3.5892 H       1  UNL1        0.0637
     39 H          -2.7057    0.4022   -2.4663 H       1  UNL1        0.0624
     40 H          -1.6009   -1.7620    0.9978 H       1  UNL1        0.0624
     41 H           0.4781   -2.5167   -0.1689 H       1  UNL1        0.0637
     42 H          -3.5354    1.7372   -1.1190 H       1  UNL1        0.0625
     43 H          -5.6267    2.5761   -0.1202 H       1  UNL1        0.0654
     44 H          -8.1508    2.3942    0.3774 H       1  UNL1        0.0660
     45 H          -6.8985    3.2321    1.3311 H       1  UNL1        0.0660
     46 H          -8.4735    2.7356    2.1449 H       1  UNL1        0.0660
     47 H          -5.9322   -1.0255    2.1514 H       1  UNL1        0.0654
     48 H          -3.8918   -1.8274    1.1681 H       1  UNL1        0.0625
     49 H           6.1332   -2.2225   -2.2224 H       1  UNL1        0.2951
@<TRIPOS>BOND
     1     1     2    1
     2     2     3    1
     3     3     4    3
     4     4     5    1
     5     5     6    1
     6     6     7    1
     7     1     8    1
     8     8     9    1
     9     9    10    2
    10     9    11    2
    11     9    12    1
    12    12    13   ar
    13    13    14   ar
    14    14    15   ar
    15    15    16   ar
    16    16    17   ar
    17    15    18    1
    18    18    19   ar
    19    19    20   ar
    20    20    21   ar
    21    21    22    1
    22    22    23    1
    23    21    24   ar
    24    24    25   ar
    25     1    26    1
    26    26    27    1
    27    26    28    2
    28    17    12   ar
    29    25    18   ar
    30     1    29    1
    31     2    30    1
    32     2    31    1
    33     5    32    1
    34     5    33    1
    35     7    34    1
    36     7    35    1
    37     7    36    1
    38     8    37    1
    39    13    38    1
    40    14    39    1
    41    16    40    1
    42    17    41    1
    43    19    42    1
    44    20    43    1
    45    23    44    1
    46    23    45    1
    47    23    46    1
    48    24    47    1
    49    25    48    1
    50    27    49    1
