@<TRIPOS>MOLECULE
*****
 55 58 0 0 0
SMALL
GASTEIGER

@<TRIPOS>ATOM
      1 C          -2.3294   -3.2458   -0.1869 C.3     1  UNL1        0.0863
      2 C          -2.6789   -3.8696    1.1500 C.3     1  UNL1        0.0038
      3 C          -3.7812   -3.2004    1.8457 C.2     1  UNL1        0.0428
      4 O          -4.8815   -2.4372    2.2819 O.co2   1  UNL1       -0.5498
      5 O          -4.0248   -3.4442    3.0448 O.co2   1  UNL1       -0.5498
      6 C          -3.4515   -3.2532   -1.1335 C.2     1  UNL1        0.3126
      7 O          -4.6587   -2.5869   -1.0745 O.3     1  UNL1       -0.4802
      8 O          -3.5661   -3.8758   -2.2241 O.2     1  UNL1       -0.2503
      9 C          -1.7589   -1.8838    0.0174 C.ar    1  UNL1       -0.0321
     10 C          -2.4891   -0.7726    0.3516 C.ar    1  UNL1       -0.0505
     11 C          -1.8922    0.4452    0.5422 C.ar    1  UNL1       -0.0212
     12 C          -0.5317    0.5476    0.3933 C.ar    1  UNL1       -0.0895
     13 O           0.0331    1.7975    0.5951 O.co2   1  UNL1       -0.8728
     14 C           0.2766   -0.5171    0.0593 C.ar    1  UNL1        0.0104
     15 C          -0.4019   -1.6960   -0.1127 C.ar    1  UNL1       -0.0477
     16 C           1.7215   -0.4386   -0.0968 C.ar    1  UNL1        0.1387
     17 N           2.4898   -1.4819   -0.4330 N.ar    1  UNL1       -0.2278
     18 C           3.7752   -1.1025   -0.4982 C.ar    1  UNL1        0.0895
     19 C           3.8314    0.2564   -0.1868 C.ar    1  UNL1        0.0673
     20 N           2.5533    0.5838    0.0426 N.ar    1  UNL1       -0.3379
     21 C           5.0516    0.8856   -0.1841 C.ar    1  UNL1       -0.0214
     22 C           6.1699    0.1427   -0.4903 C.ar    1  UNL1        0.0668
     23 C           6.0959   -1.2007   -0.7960 C.ar    1  UNL1       -0.0448
     24 C           4.8931   -1.8748   -0.8113 C.ar    1  UNL1       -0.0334
     25 C           7.4831    0.7755   -0.4954 C.2     1  UNL1        0.3082
     26 N           7.7341    2.1547   -0.8042 N.pl3   1  UNL1       -0.2466
     27 N           8.6840    0.3706   -0.2588 N.2     1  UNL1       -0.0994
     28 C          -2.6829    1.6285    0.9027 C.ar    1  UNL1        0.0232
     29 C          -2.9439    1.9570    2.2193 C.ar    1  UNL1       -0.0506
     30 C          -3.6953    3.0816    2.5072 C.ar    1  UNL1       -0.0610
     31 C          -4.1875    3.8807    1.4793 C.ar    1  UNL1       -0.0583
     32 C          -3.8946    3.5029    0.1849 C.ar    1  UNL1       -0.0193
     33 C          -3.1532    2.3961   -0.1567 C.ar    1  UNL1        0.1277
     34 O          -2.8738    2.0396   -1.4666 O.3     1  UNL1       -0.4945
     35 C          -3.3733    2.8515   -2.5055 C.3     1  UNL1        0.0788
     36 H          -1.5318   -3.9112   -0.6247 H       1  UNL1        0.0466
     37 H          -1.7658   -3.7893    1.7875 H       1  UNL1        0.0336
     38 H          -2.9486   -4.9163    0.9818 H       1  UNL1        0.0336
     39 H          -5.5703   -3.0607   -1.0302 H       1  UNL1        0.2951
     40 H          -3.5583   -0.8744    0.4621 H       1  UNL1        0.0626
     41 H           0.1990   -2.5748   -0.3807 H       1  UNL1        0.0627
     42 H           2.3097    1.5550    0.2991 H       1  UNL1        0.1674
     43 H           5.0875    1.9352    0.0571 H       1  UNL1        0.0647
     44 H           6.9660   -1.7960   -1.0384 H       1  UNL1        0.0627
     45 H           4.7856   -2.9062   -1.0404 H       1  UNL1        0.0640
     46 H           8.1854    2.7097   -1.5699 H       1  UNL1        0.2884
     47 H           7.4712    3.0099   -0.2286 H       1  UNL1        0.2884
     48 H           8.7785   -0.6500    0.0023 H       1  UNL1        0.3633
     49 H          -2.5542    1.3255    3.0203 H       1  UNL1        0.0625
     50 H          -3.9272    3.3825    3.5064 H       1  UNL1        0.0618
     51 H          -4.7688    4.7528    1.6696 H       1  UNL1        0.0619
     52 H          -4.2831    4.1316   -0.5998 H       1  UNL1        0.0654
     53 H          -2.8403    2.5685   -3.4598 H       1  UNL1        0.0660
     54 H          -4.4580    2.7633   -2.6591 H       1  UNL1        0.0660
     55 H          -3.1187    3.9283   -2.2852 H       1  UNL1        0.0660
@<TRIPOS>UNITY_ATOM_ATTR
4 1
charge -1
13 1
charge -1
@<TRIPOS>BOND
     1     1     2    1
     2     2     3    1
     3     3     4   ar
     4     3     5   ar
     5     1     6    1
     6     6     7    1
     7     6     8    2
     8     1     9    1
     9     9    10   ar
    10    10    11   ar
    11    11    12   ar
    12    12    13    1
    13    12    14   ar
    14    14    15   ar
    15    14    16    1
    16    16    17   ar
    17    17    18   ar
    18    18    19   ar
    19    19    20   ar
    20    19    21   ar
    21    21    22   ar
    22    22    23   ar
    23    23    24   ar
    24    22    25    1
    25    25    26    1
    26    25    27    2
    27    11    28    1
    28    28    29   ar
    29    29    30   ar
    30    30    31   ar
    31    31    32   ar
    32    32    33   ar
    33    33    34    1
    34    34    35    1
    35    15     9   ar
    36    20    16   ar
    37    33    28   ar
    38    24    18   ar
    39     1    36    1
    40     2    37    1
    41     2    38    1
    42     7    39    1
    43    10    40    1
    44    15    41    1
    45    20    42    1
    46    21    43    1
    47    23    44    1
    48    24    45    1
    49    26    46    1
    50    26    47    1
    51    27    48    1
    52    29    49    1
    53    30    50    1
    54    31    51    1
    55    32    52    1
    56    35    53    1
    57    35    54    1
    58    35    55    1
