@<TRIPOS>MOLECULE
*****
 90 95 0 0 0
SMALL
GASTEIGER

@<TRIPOS>ATOM
      1 C          -2.4550   -0.0676   -1.4686 C.ar    1  UNL1       -0.0583
      2 C          -3.6695    0.4888   -1.8454 C.ar    1  UNL1       -0.0566
      3 C          -4.2481    1.4171   -1.0069 C.ar    1  UNL1       -0.0278
      4 C          -5.5325    2.0803   -1.2920 C.3     1  UNL1        0.0478
      5 N          -6.6694    1.3315   -0.8213 N.ar    1  UNL1       -0.3486
      6 C          -7.1802    1.4887    0.4027 C.ar    1  UNL1        0.0111
      7 C          -8.2872    0.7622    0.8650 C.ar    1  UNL1        0.0254
      8 C          -8.9228   -0.1704    0.0750 C.ar    1  UNL1        0.2053
      9 N          -9.9376   -0.8660    0.4429 N.2     1  UNL1       -0.2284
     10 C         -10.5271   -1.8242   -0.4843 C.3     1  UNL1        0.1456
     11 C         -11.5612   -1.1478   -1.3551 C.3     1  UNL1        0.0065
     12 C         -11.8896    0.2180   -0.7601 C.3     1  UNL1       -0.0471
     13 C         -12.5194    0.1558    0.5887 C.3     1  UNL1       -0.0471
     14 C         -11.5417    0.4432    1.7276 C.3     1  UNL1        0.0065
     15 C         -10.4746   -0.6393    1.7746 C.3     1  UNL1        0.1456
     16 C          -8.3824   -0.3228   -1.1933 C.ar    1  UNL1        0.0254
     17 C          -7.2740    0.4313   -1.6020 C.ar    1  UNL1        0.0111
     18 C          -3.6018    1.7558    0.1675 C.ar    1  UNL1       -0.0566
     19 C          -2.4123    1.2014    0.5217 C.ar    1  UNL1       -0.0583
     20 C          -1.8146    0.2693   -0.3028 C.ar    1  UNL1       -0.0470
     21 C          -0.5211   -0.3016    0.1433 C.3     1  UNL1       -0.0237
     22 C           0.6773    0.4715   -0.3573 C.3     1  UNL1       -0.0237
     23 C           1.8800   -0.2180    0.1773 C.ar    1  UNL1       -0.0470
     24 C           2.4578   -1.2335   -0.5491 C.ar    1  UNL1       -0.0583
     25 C           3.5699   -1.9147   -0.1158 C.ar    1  UNL1       -0.0566
     26 C           4.1270   -1.5697    1.0879 C.ar    1  UNL1       -0.0278
     27 C           5.3205   -2.2986    1.5653 C.3     1  UNL1        0.0478
     28 N           6.5631   -1.7257    1.0968 N.ar    1  UNL1       -0.3486
     29 C           7.1908   -0.7775    1.8012 C.ar    1  UNL1        0.0111
     30 C           8.3960   -0.1993    1.3852 C.ar    1  UNL1        0.0254
     31 C           8.9906   -0.5962    0.2090 C.ar    1  UNL1        0.2053
     32 N          10.1252   -0.0985   -0.2214 N.2     1  UNL1       -0.2284
     33 C          10.6609    0.8901    0.6704 C.3     1  UNL1        0.1456
     34 C          12.0660    1.3388    0.3531 C.3     1  UNL1        0.0065
     35 C          12.1933    2.1371   -0.9010 C.3     1  UNL1       -0.0471
     36 C          11.5319    1.5136   -2.0848 C.3     1  UNL1       -0.0471
     37 C          11.7781    0.0411   -2.0534 C.3     1  UNL1        0.0065
     38 C          10.5601   -0.6465   -1.4855 C.3     1  UNL1        0.1456
     39 C           8.3386   -1.5753   -0.5138 C.ar    1  UNL1        0.0254
     40 C           7.1345   -2.1184   -0.0491 C.ar    1  UNL1        0.0111
     41 C           3.5660   -0.5576    1.8303 C.ar    1  UNL1       -0.0566
     42 C           2.4514    0.1220    1.3917 C.ar    1  UNL1       -0.0583
     43 H          -1.9971   -0.7892   -2.1130 H       1  UNL1        0.0620
     44 H          -4.1703    0.2157   -2.7710 H       1  UNL1        0.0621
     45 H          -5.4844    3.1081   -0.8791 H       1  UNL1        0.0541
     46 H          -5.5657    2.2250   -2.4094 H       1  UNL1        0.0541
     47 H          -6.7301    2.2010    1.0703 H       1  UNL1        0.0811
     48 H          -8.6573    0.9482    1.8643 H       1  UNL1        0.0698
     49 H          -9.7925   -2.3840   -1.0691 H       1  UNL1        0.1026
     50 H         -11.0846   -2.5844    0.1643 H       1  UNL1        0.1026
     51 H         -12.4922   -1.7325   -1.3239 H       1  UNL1        0.0326
     52 H         -11.1480   -1.0136   -2.3525 H       1  UNL1        0.0326
     53 H         -10.9952    0.8715   -0.7059 H       1  UNL1        0.0267
     54 H         -12.6500    0.6577   -1.4641 H       1  UNL1        0.0267
     55 H         -12.9775   -0.8272    0.8197 H       1  UNL1        0.0267
     56 H         -13.3084    0.9080    0.6664 H       1  UNL1        0.0267
     57 H         -11.1266    1.4641    1.6790 H       1  UNL1        0.0326
     58 H         -12.1249    0.3653    2.6663 H       1  UNL1        0.0326
     59 H         -11.0398   -1.5563    2.1244 H       1  UNL1        0.1026
     60 H          -9.7346   -0.3930    2.5213 H       1  UNL1        0.1026
     61 H          -8.8252   -1.0251   -1.8814 H       1  UNL1        0.0698
     62 H          -6.8947    0.2678   -2.6064 H       1  UNL1        0.0811
     63 H          -4.0318    2.4937    0.8638 H       1  UNL1        0.0621
     64 H          -1.9289    1.4965    1.4640 H       1  UNL1        0.0620
     65 H          -0.4007   -1.3554   -0.1809 H       1  UNL1        0.0316
     66 H          -0.4427   -0.3167    1.2506 H       1  UNL1        0.0316
     67 H           0.6406    1.5329    0.0010 H       1  UNL1        0.0316
     68 H           0.7166    0.4792   -1.4545 H       1  UNL1        0.0316
     69 H           2.0403   -1.5301   -1.5053 H       1  UNL1        0.0620
     70 H           4.0013   -2.7048   -0.7047 H       1  UNL1        0.0621
     71 H           5.2851   -2.2687    2.6922 H       1  UNL1        0.0541
     72 H           5.2482   -3.3954    1.3264 H       1  UNL1        0.0541
     73 H           6.7481   -0.4381    2.7414 H       1  UNL1        0.0811
     74 H           8.8503    0.5580    1.9852 H       1  UNL1        0.0698
     75 H           9.9846    1.7503    0.8532 H       1  UNL1        0.1026
     76 H          10.7644    0.3617    1.6707 H       1  UNL1        0.1026
     77 H          12.7441    0.4936    0.4528 H       1  UNL1        0.0326
     78 H          12.3417    2.0369    1.1945 H       1  UNL1        0.0326
     79 H          11.8102    3.1681   -0.7999 H       1  UNL1        0.0267
     80 H          13.2782    2.2456   -1.1454 H       1  UNL1        0.0267
     81 H          11.9662    1.9067   -3.0376 H       1  UNL1        0.0267
     82 H          10.4591    1.7878   -2.0907 H       1  UNL1        0.0267
     83 H          12.6633   -0.1677   -1.4291 H       1  UNL1        0.0326
     84 H          12.0137   -0.3441   -3.0771 H       1  UNL1        0.0326
     85 H           9.7466   -0.4681   -2.2307 H       1  UNL1        0.1026
     86 H          10.7373   -1.7126   -1.3633 H       1  UNL1        0.1026
     87 H           8.7391   -1.9476   -1.4434 H       1  UNL1        0.0698
     88 H           6.6172   -2.8953   -0.6211 H       1  UNL1        0.0811
     89 H           4.0211   -0.2952    2.7855 H       1  UNL1        0.0621
     90 H           2.0292    0.9135    1.9920 H       1  UNL1        0.0620
@<TRIPOS>UNITY_ATOM_ATTR
9 1
charge 1
32 1
charge 1
@<TRIPOS>BOND
     1     1     2   ar
     2     2     3   ar
     3     3     4    1
     4     4     5    1
     5     5     6   ar
     6     6     7   ar
     7     7     8   ar
     8     8     9    2
     9     9    10    1
    10    10    11    1
    11    11    12    1
    12    12    13    1
    13    13    14    1
    14    14    15    1
    15     8    16   ar
    16    16    17   ar
    17     3    18   ar
    18    18    19   ar
    19    19    20   ar
    20    20    21    1
    21    21    22    1
    22    22    23    1
    23    23    24   ar
    24    24    25   ar
    25    25    26   ar
    26    26    27    1
    27    27    28    1
    28    28    29   ar
    29    29    30   ar
    30    30    31   ar
    31    31    32    2
    32    32    33    1
    33    33    34    1
    34    34    35    1
    35    35    36    1
    36    36    37    1
    37    37    38    1
    38    31    39   ar
    39    39    40   ar
    40    26    41   ar
    41    41    42   ar
    42    20     1   ar
    43    42    23   ar
    44    17     5   ar
    45    40    28   ar
    46    15     9    1
    47    38    32    1
    48     1    43    1
    49     2    44    1
    50     4    45    1
    51     4    46    1
    52     6    47    1
    53     7    48    1
    54    10    49    1
    55    10    50    1
    56    11    51    1
    57    11    52    1
    58    12    53    1
    59    12    54    1
    60    13    55    1
    61    13    56    1
    62    14    57    1
    63    14    58    1
    64    15    59    1
    65    15    60    1
    66    16    61    1
    67    17    62    1
    68    18    63    1
    69    19    64    1
    70    21    65    1
    71    21    66    1
    72    22    67    1
    73    22    68    1
    74    24    69    1
    75    25    70    1
    76    27    71    1
    77    27    72    1
    78    29    73    1
    79    30    74    1
    80    33    75    1
    81    33    76    1
    82    34    77    1
    83    34    78    1
    84    35    79    1
    85    35    80    1
    86    36    81    1
    87    36    82    1
    88    37    83    1
    89    37    84    1
    90    38    85    1
    91    38    86    1
    92    39    87    1
    93    40    88    1
    94    41    89    1
    95    42    90    1
