
     RDKit          3D

 90 95  0  0  0  0  0  0  0  0999 V2000
   -2.4550   -0.0676   -1.4686 C   0  0  0  0  0  0  0  0  0  0  0  0
   -3.6695    0.4888   -1.8454 C   0  0  0  0  0  0  0  0  0  0  0  0
   -4.2481    1.4171   -1.0069 C   0  0  0  0  0  0  0  0  0  0  0  0
   -5.5325    2.0803   -1.2920 C   0  0  0  0  0  0  0  0  0  0  0  0
   -6.6694    1.3315   -0.8213 N   0  0  0  0  0  0  0  0  0  0  0  0
   -7.1802    1.4887    0.4027 C   0  0  0  0  0  0  0  0  0  0  0  0
   -8.2872    0.7622    0.8650 C   0  0  0  0  0  0  0  0  0  0  0  0
   -8.9228   -0.1704    0.0750 C   0  0  0  0  0  0  0  0  0  0  0  0
   -9.9376   -0.8660    0.4429 N   0  0  0  0  0  4  0  0  0  0  0  0
  -10.5271   -1.8242   -0.4843 C   0  0  0  0  0  0  0  0  0  0  0  0
  -11.5612   -1.1478   -1.3551 C   0  0  0  0  0  0  0  0  0  0  0  0
  -11.8896    0.2180   -0.7601 C   0  0  0  0  0  0  0  0  0  0  0  0
  -12.5194    0.1558    0.5887 C   0  0  0  0  0  0  0  0  0  0  0  0
  -11.5417    0.4432    1.7276 C   0  0  0  0  0  0  0  0  0  0  0  0
  -10.4746   -0.6393    1.7746 C   0  0  0  0  0  0  0  0  0  0  0  0
   -8.3824   -0.3228   -1.1933 C   0  0  0  0  0  0  0  0  0  0  0  0
   -7.2740    0.4313   -1.6020 C   0  0  0  0  0  0  0  0  0  0  0  0
   -3.6018    1.7558    0.1675 C   0  0  0  0  0  0  0  0  0  0  0  0
   -2.4123    1.2014    0.5217 C   0  0  0  0  0  0  0  0  0  0  0  0
   -1.8146    0.2693   -0.3028 C   0  0  0  0  0  0  0  0  0  0  0  0
   -0.5211   -0.3016    0.1433 C   0  0  0  0  0  0  0  0  0  0  0  0
    0.6773    0.4715   -0.3573 C   0  0  0  0  0  0  0  0  0  0  0  0
    1.8800   -0.2180    0.1773 C   0  0  0  0  0  0  0  0  0  0  0  0
    2.4578   -1.2335   -0.5491 C   0  0  0  0  0  0  0  0  0  0  0  0
    3.5699   -1.9147   -0.1158 C   0  0  0  0  0  0  0  0  0  0  0  0
    4.1270   -1.5697    1.0879 C   0  0  0  0  0  0  0  0  0  0  0  0
    5.3205   -2.2986    1.5653 C   0  0  0  0  0  0  0  0  0  0  0  0
    6.5631   -1.7257    1.0968 N   0  0  0  0  0  0  0  0  0  0  0  0
    7.1908   -0.7775    1.8012 C   0  0  0  0  0  0  0  0  0  0  0  0
    8.3960   -0.1993    1.3852 C   0  0  0  0  0  0  0  0  0  0  0  0
    8.9906   -0.5962    0.2090 C   0  0  0  0  0  0  0  0  0  0  0  0
   10.1252   -0.0985   -0.2214 N   0  0  0  0  0  4  0  0  0  0  0  0
   10.6609    0.8901    0.6704 C   0  0  0  0  0  0  0  0  0  0  0  0
   12.0660    1.3388    0.3531 C   0  0  0  0  0  0  0  0  0  0  0  0
   12.1933    2.1371   -0.9010 C   0  0  0  0  0  0  0  0  0  0  0  0
   11.5319    1.5136   -2.0848 C   0  0  0  0  0  0  0  0  0  0  0  0
   11.7781    0.0411   -2.0534 C   0  0  0  0  0  0  0  0  0  0  0  0
   10.5601   -0.6465   -1.4855 C   0  0  0  0  0  0  0  0  0  0  0  0
    8.3386   -1.5753   -0.5138 C   0  0  0  0  0  0  0  0  0  0  0  0
    7.1345   -2.1184   -0.0491 C   0  0  0  0  0  0  0  0  0  0  0  0
    3.5660   -0.5576    1.8303 C   0  0  0  0  0  0  0  0  0  0  0  0
    2.4514    0.1220    1.3917 C   0  0  0  0  0  0  0  0  0  0  0  0
   -1.9971   -0.7892   -2.1130 H   0  0  0  0  0  0  0  0  0  0  0  0
   -4.1703    0.2157   -2.7710 H   0  0  0  0  0  0  0  0  0  0  0  0
   -5.4844    3.1081   -0.8791 H   0  0  0  0  0  0  0  0  0  0  0  0
   -5.5657    2.2250   -2.4094 H   0  0  0  0  0  0  0  0  0  0  0  0
   -6.7301    2.2010    1.0703 H   0  0  0  0  0  0  0  0  0  0  0  0
   -8.6573    0.9482    1.8643 H   0  0  0  0  0  0  0  0  0  0  0  0
   -9.7925   -2.3840   -1.0691 H   0  0  0  0  0  0  0  0  0  0  0  0
  -11.0846   -2.5844    0.1643 H   0  0  0  0  0  0  0  0  0  0  0  0
  -12.4922   -1.7325   -1.3239 H   0  0  0  0  0  0  0  0  0  0  0  0
  -11.1480   -1.0136   -2.3525 H   0  0  0  0  0  0  0  0  0  0  0  0
  -10.9952    0.8715   -0.7059 H   0  0  0  0  0  0  0  0  0  0  0  0
  -12.6500    0.6577   -1.4641 H   0  0  0  0  0  0  0  0  0  0  0  0
  -12.9775   -0.8272    0.8197 H   0  0  0  0  0  0  0  0  0  0  0  0
  -13.3084    0.9080    0.6664 H   0  0  0  0  0  0  0  0  0  0  0  0
  -11.1266    1.4641    1.6790 H   0  0  0  0  0  0  0  0  0  0  0  0
  -12.1249    0.3653    2.6663 H   0  0  0  0  0  0  0  0  0  0  0  0
  -11.0398   -1.5563    2.1244 H   0  0  0  0  0  0  0  0  0  0  0  0
   -9.7346   -0.3930    2.5213 H   0  0  0  0  0  0  0  0  0  0  0  0
   -8.8252   -1.0251   -1.8814 H   0  0  0  0  0  0  0  0  0  0  0  0
   -6.8947    0.2678   -2.6064 H   0  0  0  0  0  0  0  0  0  0  0  0
   -4.0318    2.4937    0.8638 H   0  0  0  0  0  0  0  0  0  0  0  0
   -1.9289    1.4965    1.4640 H   0  0  0  0  0  0  0  0  0  0  0  0
   -0.4007   -1.3554   -0.1809 H   0  0  0  0  0  0  0  0  0  0  0  0
   -0.4427   -0.3167    1.2506 H   0  0  0  0  0  0  0  0  0  0  0  0
    0.6406    1.5329    0.0010 H   0  0  0  0  0  0  0  0  0  0  0  0
    0.7166    0.4792   -1.4545 H   0  0  0  0  0  0  0  0  0  0  0  0
    2.0403   -1.5301   -1.5053 H   0  0  0  0  0  0  0  0  0  0  0  0
    4.0013   -2.7048   -0.7047 H   0  0  0  0  0  0  0  0  0  0  0  0
    5.2851   -2.2687    2.6922 H   0  0  0  0  0  0  0  0  0  0  0  0
    5.2482   -3.3954    1.3264 H   0  0  0  0  0  0  0  0  0  0  0  0
    6.7481   -0.4381    2.7414 H   0  0  0  0  0  0  0  0  0  0  0  0
    8.8503    0.5580    1.9852 H   0  0  0  0  0  0  0  0  0  0  0  0
    9.9846    1.7503    0.8532 H   0  0  0  0  0  0  0  0  0  0  0  0
   10.7644    0.3617    1.6707 H   0  0  0  0  0  0  0  0  0  0  0  0
   12.7441    0.4936    0.4528 H   0  0  0  0  0  0  0  0  0  0  0  0
   12.3417    2.0369    1.1945 H   0  0  0  0  0  0  0  0  0  0  0  0
   11.8102    3.1681   -0.7999 H   0  0  0  0  0  0  0  0  0  0  0  0
   13.2782    2.2456   -1.1454 H   0  0  0  0  0  0  0  0  0  0  0  0
   11.9662    1.9067   -3.0376 H   0  0  0  0  0  0  0  0  0  0  0  0
   10.4591    1.7878   -2.0907 H   0  0  0  0  0  0  0  0  0  0  0  0
   12.6633   -0.1677   -1.4291 H   0  0  0  0  0  0  0  0  0  0  0  0
   12.0137   -0.3441   -3.0771 H   0  0  0  0  0  0  0  0  0  0  0  0
    9.7466   -0.4681   -2.2307 H   0  0  0  0  0  0  0  0  0  0  0  0
   10.7373   -1.7126   -1.3633 H   0  0  0  0  0  0  0  0  0  0  0  0
    8.7391   -1.9476   -1.4434 H   0  0  0  0  0  0  0  0  0  0  0  0
    6.6172   -2.8953   -0.6211 H   0  0  0  0  0  0  0  0  0  0  0  0
    4.0211   -0.2952    2.7855 H   0  0  0  0  0  0  0  0  0  0  0  0
    2.0292    0.9135    1.9920 H   0  0  0  0  0  0  0  0  0  0  0  0
  1  2  2  0
  2  3  1  0
  3  4  1  0
  4  5  1  0
  5  6  1  0
  6  7  2  0
  7  8  1  0
  8  9  2  3
  9 10  1  0
 10 11  1  0
 11 12  1  0
 12 13  1  0
 13 14  1  0
 14 15  1  0
  8 16  1  0
 16 17  2  0
  3 18  2  0
 18 19  1  0
 19 20  2  0
 20 21  1  0
 21 22  1  0
 22 23  1  0
 23 24  2  0
 24 25  1  0
 25 26  2  0
 26 27  1  0
 27 28  1  0
 28 29  1  0
 29 30  2  0
 30 31  1  0
 31 32  2  3
 32 33  1  0
 33 34  1  0
 34 35  1  0
 35 36  1  0
 36 37  1  0
 37 38  1  0
 31 39  1  0
 39 40  2  0
 26 41  1  0
 41 42  2  0
 20  1  1  0
 42 23  1  0
 17  5  1  0
 40 28  1  0
 15  9  1  0
 38 32  1  0
  1 43  1  0
  2 44  1  0
  4 45  1  0
  4 46  1  0
  6 47  1  0
  7 48  1  0
 10 49  1  0
 10 50  1  0
 11 51  1  0
 11 52  1  0
 12 53  1  0
 12 54  1  0
 13 55  1  0
 13 56  1  0
 14 57  1  0
 14 58  1  0
 15 59  1  0
 15 60  1  0
 16 61  1  0
 17 62  1  0
 18 63  1  0
 19 64  1  0
 21 65  1  0
 21 66  1  0
 22 67  1  0
 22 68  1  0
 24 69  1  0
 25 70  1  0
 27 71  1  0
 27 72  1  0
 29 73  1  0
 30 74  1  0
 33 75  1  0
 33 76  1  0
 34 77  1  0
 34 78  1  0
 35 79  1  0
 35 80  1  0
 36 81  1  0
 36 82  1  0
 37 83  1  0
 37 84  1  0
 38 85  1  0
 38 86  1  0
 39 87  1  0
 40 88  1  0
 41 89  1  0
 42 90  1  0
M  CHG  2   9   1  32   1
M  END
$$$$
