
     RDKit          3D

 54 56  0  0  0  0  0  0  0  0999 V2000
   -2.3534   -4.1347    0.3886 C   0  0  0  0  0  0  0  0  0  0  0  0
   -1.7103   -3.4456   -0.7975 C   0  0  0  0  0  0  0  0  0  0  0  0
   -2.6277   -2.3722   -1.3657 C   0  0  0  0  0  0  0  0  0  0  0  0
   -1.9294   -1.7480   -2.5419 C   0  0  0  0  0  0  0  0  0  0  0  0
   -0.6670   -1.1440   -2.0990 C   0  0  0  0  0  0  0  0  0  0  0  0
    0.4738   -1.8719   -2.0579 N   0  0  0  0  0  0  0  0  0  0  0  0
    1.4995   -1.1264   -1.6554 C   0  0  0  0  0  0  0  0  0  0  0  0
    1.0050    0.1422   -1.4241 C   0  0  0  0  0  0  0  0  0  0  0  0
    1.6748    1.3427   -0.9715 C   0  0  0  0  0  0  0  0  0  0  0  0
    2.4479    1.3646    0.0713 C   0  0  0  0  0  0  0  0  0  0  0  0
    2.6862    0.1425    0.8644 C   0  0  0  0  0  0  0  0  0  0  0  0
    4.1348   -0.1355    0.9135 C   0  0  0  0  0  0  0  0  0  0  0  0
    5.0671   -0.6804    0.1151 C   0  0  0  0  0  0  0  0  0  0  0  0
    6.3335   -0.8023    0.4987 C   0  0  0  0  0  0  0  0  0  0  0  0
    6.7548   -0.3869    1.7088 C   0  0  0  0  0  0  0  0  0  0  0  0
    5.1378    0.2656    2.3976 S   0  0  0  0  0  0  0  0  0  0  0  0
    3.1133    2.6070    0.5117 C   0  0  0  0  0  0  0  0  0  0  0  0
    3.8374    2.5860    1.5072 O   0  0  0  0  0  0  0  0  0  0  0  0
    2.8657    3.7445   -0.2530 O   0  0  0  0  0  0  0  0  0  0  0  0
   -0.3456    0.0789   -1.7149 N   0  0  0  0  0  0  0  0  0  0  0  0
   -1.1896    1.2093   -1.6192 C   0  0  0  0  0  0  0  0  0  0  0  0
   -1.8826    1.4965   -0.3812 C   0  0  0  0  0  0  0  0  0  0  0  0
   -3.2082    1.0931   -0.2795 C   0  0  0  0  0  0  0  0  0  0  0  0
   -3.9893    1.2980    0.8292 C   0  0  0  0  0  0  0  0  0  0  0  0
   -3.4363    1.9408    1.9118 C   0  0  0  0  0  0  0  0  0  0  0  0
   -4.2504    2.1678    3.0948 C   0  0  0  0  0  0  0  0  0  0  0  0
   -5.4422    1.7754    3.1047 O   0  0  0  0  0  0  0  0  0  0  0  0
   -3.7593    2.8050    4.2206 O   0  0  0  0  0  0  0  0  0  0  0  0
   -2.1226    2.3475    1.8275 C   0  0  0  0  0  0  0  0  0  0  0  0
   -1.3509    2.1344    0.7060 C   0  0  0  0  0  0  0  0  0  0  0  0
   -2.4987   -3.4541    1.2392 H   0  0  0  0  0  0  0  0  0  0  0  0
   -3.3001   -4.6119    0.0780 H   0  0  0  0  0  0  0  0  0  0  0  0
   -1.6706   -4.9429    0.7191 H   0  0  0  0  0  0  0  0  0  0  0  0
   -0.7722   -2.9987   -0.4301 H   0  0  0  0  0  0  0  0  0  0  0  0
   -1.4830   -4.2158   -1.5486 H   0  0  0  0  0  0  0  0  0  0  0  0
   -3.6150   -2.8040   -1.6408 H   0  0  0  0  0  0  0  0  0  0  0  0
   -2.8061   -1.6688   -0.5340 H   0  0  0  0  0  0  0  0  0  0  0  0
   -2.5804   -1.0459   -3.0997 H   0  0  0  0  0  0  0  0  0  0  0  0
   -1.7388   -2.5806   -3.2695 H   0  0  0  0  0  0  0  0  0  0  0  0
    2.5378   -1.4510   -1.5407 H   0  0  0  0  0  0  0  0  0  0  0  0
    1.5275    2.2991   -1.5372 H   0  0  0  0  0  0  0  0  0  0  0  0
    2.0687   -0.7198    0.6174 H   0  0  0  0  0  0  0  0  0  0  0  0
    2.3228    0.4308    1.9093 H   0  0  0  0  0  0  0  0  0  0  0  0
    4.7410   -1.0361   -0.9134 H   0  0  0  0  0  0  0  0  0  0  0  0
    7.1254   -1.2653   -0.1794 H   0  0  0  0  0  0  0  0  0  0  0  0
    7.6202   -0.3494    2.2588 H   0  0  0  0  0  0  0  0  0  0  0  0
    3.2698    4.6133    0.1014 H   0  0  0  0  0  0  0  0  0  0  0  0
   -1.9175    1.1778   -2.4674 H   0  0  0  0  0  0  0  0  0  0  0  0
   -0.5685    2.1288   -1.8594 H   0  0  0  0  0  0  0  0  0  0  0  0
   -3.6808    0.5762   -1.1292 H   0  0  0  0  0  0  0  0  0  0  0  0
   -5.0350    0.9616    0.8666 H   0  0  0  0  0  0  0  0  0  0  0  0
   -4.2661    2.9285    5.0803 H   0  0  0  0  0  0  0  0  0  0  0  0
   -1.7194    2.8574    2.7161 H   0  0  0  0  0  0  0  0  0  0  0  0
   -0.3282    2.4771    0.6904 H   0  0  0  0  0  0  0  0  0  0  0  0
  1  2  1  0
  2  3  1  0
  3  4  1  0
  4  5  1  0
  5  6  2  0
  6  7  1  0
  7  8  2  0
  8  9  1  0
  9 10  2  0
 10 11  1  0
 11 12  1  0
 12 13  2  0
 13 14  1  0
 14 15  2  0
 15 16  1  0
 10 17  1  0
 17 18  2  0
 17 19  1  0
  8 20  1  0
 20 21  1  0
 21 22  1  0
 22 23  2  0
 23 24  1  0
 24 25  2  0
 25 26  1  0
 26 27  2  0
 26 28  1  0
 25 29  1  0
 29 30  2  0
 20  5  1  0
 30 22  1  0
 16 12  1  0
  1 31  1  0
  1 32  1  0
  1 33  1  0
  2 34  1  0
  2 35  1  0
  3 36  1  0
  3 37  1  0
  4 38  1  0
  4 39  1  0
  7 40  1  0
  9 41  1  0
 11 42  1  0
 11 43  1  0
 13 44  1  0
 14 45  1  0
 15 46  1  0
 19 47  1  0
 21 48  1  0
 21 49  1  0
 23 50  1  0
 24 51  1  0
 28 52  1  0
 29 53  1  0
 30 54  1  0
M  END
$$$$
