@<TRIPOS>MOLECULE
*****
 54 56 0 0 0
SMALL
GASTEIGER

@<TRIPOS>ATOM
      1 C          -2.3534   -4.1347    0.3886 C.3     1  UNL1       -0.0653
      2 C          -1.7103   -3.4456   -0.7975 C.3     1  UNL1       -0.0555
      3 C          -2.6277   -2.3722   -1.3657 C.3     1  UNL1       -0.0465
      4 C          -1.9294   -1.7480   -2.5419 C.3     1  UNL1        0.0056
      5 C          -0.6670   -1.1440   -2.0990 C.ar    1  UNL1        0.1104
      6 N           0.4738   -1.8719   -2.0579 N.ar    1  UNL1       -0.2400
      7 C           1.4995   -1.1264   -1.6554 C.ar    1  UNL1        0.0531
      8 C           1.0050    0.1422   -1.4241 C.ar    1  UNL1        0.0622
      9 C           1.6748    1.3427   -0.9715 C.2     1  UNL1       -0.0264
     10 C           2.4479    1.3646    0.0713 C.2     1  UNL1        0.0432
     11 C           2.6862    0.1425    0.8644 C.3     1  UNL1        0.0106
     12 C           4.1348   -0.1355    0.9135 C.ar    1  UNL1       -0.0057
     13 C           5.0671   -0.6804    0.1151 C.ar    1  UNL1       -0.0512
     14 C           6.3335   -0.8023    0.4987 C.ar    1  UNL1       -0.0545
     15 C           6.7548   -0.3869    1.7088 C.ar    1  UNL1       -0.0241
     16 S           5.1378    0.2656    2.3976 S.2     1  UNL1       -0.1013
     17 C           3.1133    2.6070    0.5117 C.2     1  UNL1        0.3332
     18 O           3.8374    2.5860    1.5072 O.2     1  UNL1       -0.2455
     19 O           2.8657    3.7445   -0.2530 O.3     1  UNL1       -0.4773
     20 N          -0.3456    0.0789   -1.7149 N.ar    1  UNL1       -0.3236
     21 C          -1.1896    1.2093   -1.6192 C.3     1  UNL1        0.0499
     22 C          -1.8826    1.4965   -0.3812 C.ar    1  UNL1       -0.0277
     23 C          -3.2082    1.0931   -0.2795 C.ar    1  UNL1       -0.0561
     24 C          -3.9893    1.2980    0.8292 C.ar    1  UNL1       -0.0475
     25 C          -3.4363    1.9408    1.9118 C.ar    1  UNL1        0.0589
     26 C          -4.2504    2.1678    3.0948 C.2     1  UNL1        0.3368
     27 O          -5.4422    1.7754    3.1047 O.2     1  UNL1       -0.2451
     28 O          -3.7593    2.8050    4.2206 O.3     1  UNL1       -0.4771
     29 C          -2.1226    2.3475    1.8275 C.ar    1  UNL1       -0.0475
     30 C          -1.3509    2.1344    0.7060 C.ar    1  UNL1       -0.0561
     31 H          -2.4987   -3.4541    1.2392 H       1  UNL1        0.0230
     32 H          -3.3001   -4.6119    0.0780 H       1  UNL1        0.0230
     33 H          -1.6706   -4.9429    0.7191 H       1  UNL1        0.0230
     34 H          -0.7722   -2.9987   -0.4301 H       1  UNL1        0.0263
     35 H          -1.4830   -4.2158   -1.5486 H       1  UNL1        0.0263
     36 H          -3.6150   -2.8040   -1.6408 H       1  UNL1        0.0269
     37 H          -2.8061   -1.6688   -0.5340 H       1  UNL1        0.0269
     38 H          -2.5804   -1.0459   -3.0997 H       1  UNL1        0.0343
     39 H          -1.7388   -2.5806   -3.2695 H       1  UNL1        0.0343
     40 H           2.5378   -1.4510   -1.5407 H       1  UNL1        0.0851
     41 H           1.5275    2.2991   -1.5372 H       1  UNL1        0.0644
     42 H           2.0687   -0.7198    0.6174 H       1  UNL1        0.0369
     43 H           2.3228    0.4308    1.9093 H       1  UNL1        0.0369
     44 H           4.7410   -1.0361   -0.9134 H       1  UNL1        0.0626
     45 H           7.1254   -1.2653   -0.1794 H       1  UNL1        0.0623
     46 H           7.6202   -0.3494    2.2588 H       1  UNL1        0.0693
     47 H           3.2698    4.6133    0.1014 H       1  UNL1        0.2954
     48 H          -1.9175    1.1778   -2.4674 H       1  UNL1        0.0542
     49 H          -0.5685    2.1288   -1.8594 H       1  UNL1        0.0542
     50 H          -3.6808    0.5762   -1.1292 H       1  UNL1        0.0621
     51 H          -5.0350    0.9616    0.8666 H       1  UNL1        0.0626
     52 H          -4.2661    2.9285    5.0803 H       1  UNL1        0.2954
     53 H          -1.7194    2.8574    2.7161 H       1  UNL1        0.0626
     54 H          -0.3282    2.4771    0.6904 H       1  UNL1        0.0621
@<TRIPOS>BOND
     1     1     2    1
     2     2     3    1
     3     3     4    1
     4     4     5    1
     5     5     6   ar
     6     6     7   ar
     7     7     8   ar
     8     8     9    1
     9     9    10    2
    10    10    11    1
    11    11    12    1
    12    12    13   ar
    13    13    14   ar
    14    14    15   ar
    15    15    16   ar
    16    10    17    1
    17    17    18    2
    18    17    19    1
    19     8    20   ar
    20    20    21    1
    21    21    22    1
    22    22    23   ar
    23    23    24   ar
    24    24    25   ar
    25    25    26    1
    26    26    27    2
    27    26    28    1
    28    25    29   ar
    29    29    30   ar
    30    20     5   ar
    31    30    22   ar
    32    16    12   ar
    33     1    31    1
    34     1    32    1
    35     1    33    1
    36     2    34    1
    37     2    35    1
    38     3    36    1
    39     3    37    1
    40     4    38    1
    41     4    39    1
    42     7    40    1
    43     9    41    1
    44    11    42    1
    45    11    43    1
    46    13    44    1
    47    14    45    1
    48    15    46    1
    49    19    47    1
    50    21    48    1
    51    21    49    1
    52    23    50    1
    53    24    51    1
    54    28    52    1
    55    29    53    1
    56    30    54    1
