@<TRIPOS>MOLECULE
*****
 44 46 0 0 0
SMALL
GASTEIGER

@<TRIPOS>ATOM
      1 N          -5.0007   -2.4275    1.4963 N.pl3   1  UNL1       -0.3134
      2 C          -4.2723   -1.4531    0.7628 C.2     1  UNL1        0.2766
      3 N          -3.0185   -1.2801    0.8589 N.2     1  UNL1       -0.2228
      4 C          -2.2574   -0.2866    0.1146 C.3     1  UNL1        0.1258
      5 C          -1.8586   -0.9066   -1.1974 C.3     1  UNL1        0.1196
      6 F          -1.1385   -0.0563   -2.0157 F       1  UNL1       -0.2462
      7 C          -1.0656   -0.0340    0.9260 C.ar    1  UNL1        0.0196
      8 C           0.1926   -0.2863    0.4408 C.ar    1  UNL1       -0.0322
      9 C           1.3434   -0.0620    1.2013 C.ar    1  UNL1        0.0342
     10 N           2.6354   -0.3306    0.6756 N.am    1  UNL1       -0.2802
     11 C           3.4112    0.6127   -0.0259 C.2     1  UNL1        0.2666
     12 O           2.9551    1.7662   -0.2100 O.2     1  UNL1       -0.2682
     13 C           4.7330    0.3039   -0.5518 C.ar    1  UNL1        0.1257
     14 C           5.4650    1.2516   -1.2323 C.ar    1  UNL1       -0.0298
     15 C           6.7293    0.9817   -1.7438 C.ar    1  UNL1       -0.0397
     16 C           7.2906   -0.2679   -1.5775 C.ar    1  UNL1        0.0591
     17 CL          8.8872   -0.6601   -2.2053 Cl      1  UNL1       -0.0820
     18 C           6.5262   -1.1948   -0.8888 C.ar    1  UNL1        0.0467
     19 N           5.3033   -0.9075   -0.4031 N.ar    1  UNL1       -0.2489
     20 C           1.1524    0.4292    2.4746 C.ar    1  UNL1       -0.0377
     21 C          -0.1178    0.6857    2.9702 C.ar    1  UNL1       -0.0243
     22 C          -1.2415    0.4628    2.2168 C.ar    1  UNL1        0.1291
     23 F          -2.5000    0.7143    2.7005 F       1  UNL1       -0.2051
     24 C          -3.0599    0.9422   -0.1964 C.3     1  UNL1        0.0251
     25 C          -4.5309    0.7337   -0.3077 C.3     1  UNL1        0.1998
     26 C          -5.1052    1.2022   -1.6328 C.3     1  UNL1        0.4266
     27 F          -4.5412    0.5381   -2.6974 F       1  UNL1       -0.1669
     28 F          -4.8547    2.5745   -1.7261 F       1  UNL1       -0.1669
     29 F          -6.4669    0.9665   -1.6161 F       1  UNL1       -0.1669
     30 O          -4.9409   -0.6067   -0.1364 O.2     1  UNL1       -0.4534
     31 H          -4.5262   -3.3169    1.7917 H       1  UNL1        0.1466
     32 H          -6.0010   -2.3262    1.7734 H       1  UNL1        0.1466
     33 H          -2.7747   -1.2682   -1.7502 H       1  UNL1        0.0643
     34 H          -1.2073   -1.8063   -1.0563 H       1  UNL1        0.0643
     35 H           0.4031   -0.6796   -0.5512 H       1  UNL1        0.0640
     36 H           3.0825   -1.2894    0.7961 H       1  UNL1        0.1552
     37 H           5.0250    2.2323   -1.3629 H       1  UNL1        0.0641
     38 H           7.3089    1.7253   -2.2801 H       1  UNL1        0.0633
     39 H           6.9602   -2.1773   -0.7545 H       1  UNL1        0.0844
     40 H           2.0136    0.6174    3.0977 H       1  UNL1        0.0637
     41 H          -0.2465    1.0780    3.9908 H       1  UNL1        0.0647
     42 H          -2.8888    1.7700    0.5317 H       1  UNL1        0.0331
     43 H          -2.7059    1.3629   -1.1766 H       1  UNL1        0.0331
     44 H          -5.0969    1.3194    0.4764 H       1  UNL1        0.0826
@<TRIPOS>BOND
     1     1     2    1
     2     2     3    2
     3     3     4    1
     4     4     5    1
     5     5     6    1
     6     4     7    1
     7     7     8   ar
     8     8     9   ar
     9     9    10    1
    10    10    11   am
    11    11    12    2
    12    11    13    1
    13    13    14   ar
    14    14    15   ar
    15    15    16   ar
    16    16    17    1
    17    16    18   ar
    18    18    19   ar
    19     9    20   ar
    20    20    21   ar
    21    21    22   ar
    22    22    23    1
    23     4    24    1
    24    24    25    1
    25    25    26    1
    26    26    27    1
    27    26    28    1
    28    26    29    1
    29    25    30    1
    30    30     2    1
    31    22     7   ar
    32    19    13   ar
    33     1    31    1
    34     1    32    1
    35     5    33    1
    36     5    34    1
    37     8    35    1
    38    10    36    1
    39    14    37    1
    40    15    38    1
    41    18    39    1
    42    20    40    1
    43    21    41    1
    44    24    42    1
    45    24    43    1
    46    25    44    1
