@<TRIPOS>MOLECULE
*****
 46 48 0 0 0
SMALL
GASTEIGER

@<TRIPOS>ATOM
      1 C           5.4123   -0.3663    2.1183 C.3     1  UNL1        0.0707
      2 S           3.8003    0.2690    2.4088 S.O2    1  UNL1        0.0290
      3 O           3.3653   -0.0761    3.8028 O.2     1  UNL1       -0.1583
      4 O           3.9064    1.7897    2.3643 O.2     1  UNL1       -0.1583
      5 N           2.6300   -0.1992    1.3035 N.3     1  UNL1       -0.1796
      6 C           2.3059   -1.5426    1.1487 C.3     1  UNL1        0.0219
      7 C           0.8210   -1.6797    1.1943 C.3     1  UNL1       -0.0187
      8 C           0.2594   -0.3167    0.9062 C.3     1  UNL1        0.0394
      9 N          -0.2011   -0.0964   -0.4396 N.pl3   1  UNL1       -0.3212
     10 C          -0.6223   -1.1719   -1.2713 C.3     1  UNL1        0.0376
     11 C          -1.9518   -1.7272   -0.9640 C.ar    1  UNL1       -0.0302
     12 C          -3.0344   -1.0708   -1.5691 C.ar    1  UNL1       -0.0571
     13 C          -4.3412   -1.4688   -1.3961 C.ar    1  UNL1       -0.0615
     14 C          -4.6297   -2.5576   -0.5980 C.ar    1  UNL1       -0.0617
     15 C          -3.5980   -3.2126    0.0010 C.ar    1  UNL1       -0.0615
     16 C          -2.2701   -2.7939   -0.1862 C.ar    1  UNL1       -0.0571
     17 C          -0.4009    1.2405   -0.8780 C.ar    1  UNL1        0.0317
     18 C          -0.5798    1.5470   -2.1983 C.ar    1  UNL1       -0.0393
     19 C          -0.8719    2.8217   -2.6819 C.ar    1  UNL1       -0.0412
     20 C          -0.9904    3.8443   -1.7917 C.ar    1  UNL1        0.0701
     21 C          -1.2883    5.1653   -2.2621 C.1     1  UNL1        0.1006
     22 N          -1.5157    6.2352   -2.6548 N.1     1  UNL1       -0.1908
     23 C          -0.8190    3.5892   -0.4382 C.ar    1  UNL1        0.0600
     24 CL         -0.9826    4.9446    0.6642 Cl      1  UNL1       -0.0822
     25 C          -0.5322    2.3186    0.0053 C.ar    1  UNL1       -0.0210
     26 C           1.4476    0.5966    1.2308 C.3     1  UNL1        0.0387
     27 H           5.5522   -1.3668    2.5863 H       1  UNL1        0.0479
     28 H           5.6856   -0.4524    1.0644 H       1  UNL1        0.0479
     29 H           6.1963    0.2928    2.5928 H       1  UNL1        0.0479
     30 H           2.6435   -1.8763    0.1206 H       1  UNL1        0.0444
     31 H           2.8309   -2.2544    1.8228 H       1  UNL1        0.0444
     32 H           0.5267   -2.4771    0.5225 H       1  UNL1        0.0296
     33 H           0.5292   -1.9883    2.2534 H       1  UNL1        0.0296
     34 H          -0.5934   -0.0554    1.5746 H       1  UNL1        0.0513
     35 H          -0.6586   -0.9276   -2.3751 H       1  UNL1        0.0513
     36 H           0.0828   -2.0568   -1.2688 H       1  UNL1        0.0513
     37 H          -2.8769   -0.2022   -2.2121 H       1  UNL1        0.0621
     38 H          -5.1394   -0.9224   -1.8896 H       1  UNL1        0.0618
     39 H          -5.6780   -2.8343   -0.4911 H       1  UNL1        0.0618
     40 H          -3.8227   -4.0646    0.6263 H       1  UNL1        0.0618
     41 H          -1.5061   -3.3630    0.3109 H       1  UNL1        0.0621
     42 H          -0.4947    0.8043   -2.9996 H       1  UNL1        0.0636
     43 H          -1.0048    3.0115   -3.7349 H       1  UNL1        0.0631
     44 H          -0.4436    2.1656    1.0797 H       1  UNL1        0.0651
     45 H           1.2740    1.1358    2.1789 H       1  UNL1        0.0462
     46 H           1.5786    1.3497    0.4192 H       1  UNL1        0.0462
@<TRIPOS>BOND
     1     1     2    1
     2     2     3    2
     3     2     4    2
     4     2     5    1
     5     5     6    1
     6     6     7    1
     7     7     8    1
     8     8     9    1
     9     9    10    1
    10    10    11    1
    11    11    12   ar
    12    12    13   ar
    13    13    14   ar
    14    14    15   ar
    15    15    16   ar
    16     9    17    1
    17    17    18   ar
    18    18    19   ar
    19    19    20   ar
    20    20    21    1
    21    21    22    3
    22    20    23   ar
    23    23    24    1
    24    23    25   ar
    25     8    26    1
    26    26     5    1
    27    16    11   ar
    28    25    17   ar
    29     1    27    1
    30     1    28    1
    31     1    29    1
    32     6    30    1
    33     6    31    1
    34     7    32    1
    35     7    33    1
    36     8    34    1
    37    10    35    1
    38    10    36    1
    39    12    37    1
    40    13    38    1
    41    14    39    1
    42    15    40    1
    43    16    41    1
    44    18    42    1
    45    19    43    1
    46    25    44    1
    47    26    45    1
    48    26    46    1
