
     RDKit          3D

 74 77  0  0  0  0  0  0  0  0999 V2000
    5.7712    2.0384   -0.4315 C   0  0  0  0  0  0  0  0  0  0  0  0
    4.7148    2.1276   -1.5408 C   0  0  0  0  0  0  0  0  0  0  0  0
    3.8230    3.3322   -1.3110 C   0  0  0  0  0  0  0  0  0  0  0  0
    3.1450    3.2564   -0.0363 N   0  0  0  0  0  0  0  0  0  0  0  0
    2.2376    2.1945    0.1981 C   0  0  0  0  0  0  0  0  0  0  0  0
    1.9579    1.3075   -0.7605 N   0  0  0  0  0  0  0  0  0  0  0  0
    1.1009    0.2773   -0.5810 C   0  0  0  0  0  0  0  0  0  0  0  0
    0.8857   -0.6100   -1.6601 N   0  0  0  0  0  0  0  0  0  0  0  0
    1.6133   -1.8559   -1.6646 C   0  0  0  0  0  0  0  0  0  0  0  0
    3.0829   -1.7108   -1.6218 C   0  0  0  0  0  0  0  0  0  0  0  0
    3.9116   -1.6692   -0.5045 C   0  0  0  0  0  0  0  0  0  0  0  0
    5.1931   -1.5387   -0.8626 N   0  0  0  0  0  0  0  0  0  0  0  0
    6.3691   -1.4651    0.0134 C   0  0  0  0  0  0  0  0  0  0  0  0
    5.1970   -1.4947   -2.2068 C   0  0  0  0  0  0  0  0  0  0  0  0
    3.9433   -1.5964   -2.6771 N   0  0  0  0  0  0  0  0  0  0  0  0
    0.5164    0.1530    0.6124 N   0  0  0  0  0  0  0  0  0  0  0  0
    0.7540    1.0204    1.6405 C   0  0  0  0  0  0  0  0  0  0  0  0
    0.1671    0.9112    2.9011 N   0  0  0  0  0  0  0  0  0  0  0  0
    0.5005    1.6544    4.0832 C   0  0  0  0  0  0  0  0  0  0  0  0
    0.5465    0.5265    5.1257 C   0  0  0  0  0  0  0  0  0  0  0  0
   -0.2606   -0.6289    4.5074 C   0  0  0  0  0  0  0  0  0  0  0  0
   -0.8962    0.0328    3.3163 C   0  0  2  0  0  0  0  0  0  0  0  0
   -1.4139   -0.8823    2.2677 C   0  0  0  0  0  0  0  0  0  0  0  0
   -2.4668   -1.6926    2.8893 N   0  0  0  0  0  0  0  0  0  0  0  0
   -3.1412   -2.7866    1.7248 S   0  0  0  0  0  6  0  0  0  0  0  0
   -4.1888   -3.6466    2.3275 O   0  0  0  0  0  0  0  0  0  0  0  0
   -2.0586   -3.6701    1.1520 O   0  0  0  0  0  0  0  0  0  0  0  0
   -3.8426   -1.7939    0.4714 C   0  0  0  0  0  0  0  0  0  0  0  0
   -3.1310   -1.5265   -0.6650 C   0  0  0  0  0  0  0  0  0  0  0  0
   -3.6846   -0.7187   -1.6402 C   0  0  0  0  0  0  0  0  0  0  0  0
   -4.9350   -0.1768   -1.4948 C   0  0  0  0  0  0  0  0  0  0  0  0
   -5.5652    0.6982   -2.5287 C   0  0  0  0  0  0  0  0  0  0  0  0
   -6.4031   -0.1715   -3.4620 C   0  0  0  0  0  0  0  0  0  0  0  0
   -7.0602    0.7177   -4.5015 C   0  0  0  0  0  0  0  0  0  0  0  0
   -5.6428   -0.4613   -0.3318 C   0  0  0  0  0  0  0  0  0  0  0  0
   -5.0851   -1.2699    0.6404 C   0  0  0  0  0  0  0  0  0  0  0  0
    1.6177    2.0184    1.3821 N   0  0  0  0  0  0  0  0  0  0  0  0
    5.2706    1.5431    0.4353 H   0  0  0  0  0  0  0  0  0  0  0  0
    6.6110    1.4050   -0.7478 H   0  0  0  0  0  0  0  0  0  0  0  0
    6.1360    3.0405   -0.1672 H   0  0  0  0  0  0  0  0  0  0  0  0
    5.2441    2.1887   -2.5138 H   0  0  0  0  0  0  0  0  0  0  0  0
    4.1638    1.1895   -1.5321 H   0  0  0  0  0  0  0  0  0  0  0  0
    3.1654    3.4320   -2.1797 H   0  0  0  0  0  0  0  0  0  0  0  0
    4.5179    4.2146   -1.3312 H   0  0  0  0  0  0  0  0  0  0  0  0
    3.3456    3.9942    0.6825 H   0  0  0  0  0  0  0  0  0  0  0  0
    0.2300   -0.4023   -2.4442 H   0  0  0  0  0  0  0  0  0  0  0  0
    1.2825   -2.5488   -2.4678 H   0  0  0  0  0  0  0  0  0  0  0  0
    1.3346   -2.3602   -0.6903 H   0  0  0  0  0  0  0  0  0  0  0  0
    3.5656   -1.7340    0.5302 H   0  0  0  0  0  0  0  0  0  0  0  0
    6.4939   -2.3742    0.6281 H   0  0  0  0  0  0  0  0  0  0  0  0
    7.2605   -1.3555   -0.6147 H   0  0  0  0  0  0  0  0  0  0  0  0
    6.3105   -0.5931    0.6922 H   0  0  0  0  0  0  0  0  0  0  0  0
    6.1021   -1.3909   -2.7843 H   0  0  0  0  0  0  0  0  0  0  0  0
   -0.3243    2.3449    4.3972 H   0  0  0  0  0  0  0  0  0  0  0  0
    1.4878    2.1520    4.0527 H   0  0  0  0  0  0  0  0  0  0  0  0
    0.1270    0.8542    6.0915 H   0  0  0  0  0  0  0  0  0  0  0  0
    1.6063    0.2128    5.2044 H   0  0  0  0  0  0  0  0  0  0  0  0
    0.4041   -1.4283    4.1519 H   0  0  0  0  0  0  0  0  0  0  0  0
   -1.0163   -1.0090    5.2270 H   0  0  0  0  0  0  0  0  0  0  0  0
   -1.7230    0.6957    3.7196 H   0  0  0  0  0  0  0  0  0  0  0  0
   -1.8492   -0.2950    1.4334 H   0  0  0  0  0  0  0  0  0  0  0  0
   -0.6203   -1.5137    1.8681 H   0  0  0  0  0  0  0  0  0  0  0  0
   -3.1979   -1.0986    3.3107 H   0  0  0  0  0  0  0  0  0  0  0  0
   -2.1235   -1.9342   -0.8354 H   0  0  0  0  0  0  0  0  0  0  0  0
   -3.1217   -0.5086   -2.5375 H   0  0  0  0  0  0  0  0  0  0  0  0
   -4.8221    1.2005   -3.1481 H   0  0  0  0  0  0  0  0  0  0  0  0
   -6.1985    1.4395   -2.0054 H   0  0  0  0  0  0  0  0  0  0  0  0
   -7.1733   -0.6535   -2.8337 H   0  0  0  0  0  0  0  0  0  0  0  0
   -5.7907   -0.9391   -3.9495 H   0  0  0  0  0  0  0  0  0  0  0  0
   -7.6630    1.4782   -3.9560 H   0  0  0  0  0  0  0  0  0  0  0  0
   -7.7085    0.0855   -5.1107 H   0  0  0  0  0  0  0  0  0  0  0  0
   -6.2574    1.2391   -5.0872 H   0  0  0  0  0  0  0  0  0  0  0  0
   -6.6370   -0.0257   -0.2231 H   0  0  0  0  0  0  0  0  0  0  0  0
   -5.7054   -1.4452    1.5239 H   0  0  0  0  0  0  0  0  0  0  0  0
  1  2  1  0
  2  3  1  0
  3  4  1  0
  4  5  1  0
  5  6  2  0
  6  7  1  0
  7  8  1  0
  8  9  1  0
  9 10  1  0
 10 11  2  0
 11 12  1  0
 12 13  1  0
 12 14  1  0
 14 15  2  0
  7 16  2  0
 16 17  1  0
 17 18  1  0
 18 19  1  0
 19 20  1  0
 20 21  1  0
 21 22  1  0
 22 23  1  0
 23 24  1  0
 24 25  1  0
 25 26  2  0
 25 27  2  0
 25 28  1  0
 28 29  2  0
 29 30  1  0
 30 31  2  0
 31 32  1  0
 32 33  1  0
 33 34  1  0
 31 35  1  0
 35 36  2  0
 17 37  2  0
 37  5  1  0
 15 10  1  0
 22 18  1  0
 36 28  1  0
  1 38  1  0
  1 39  1  0
  1 40  1  0
  2 41  1  0
  2 42  1  0
  3 43  1  0
  3 44  1  0
  4 45  1  0
  8 46  1  0
  9 47  1  0
  9 48  1  0
 11 49  1  0
 13 50  1  0
 13 51  1  0
 13 52  1  0
 14 53  1  0
 19 54  1  0
 19 55  1  0
 20 56  1  0
 20 57  1  0
 21 58  1  0
 21 59  1  0
 22 60  1  1
 23 61  1  0
 23 62  1  0
 24 63  1  0
 29 64  1  0
 30 65  1  0
 32 66  1  0
 32 67  1  0
 33 68  1  0
 33 69  1  0
 34 70  1  0
 34 71  1  0
 34 72  1  0
 35 73  1  0
 36 74  1  0
M  END
$$$$
