@<TRIPOS>MOLECULE
*****
 74 77 0 0 0
SMALL
GASTEIGER

@<TRIPOS>ATOM
      1 C           5.7712    2.0384   -0.4315 C.3     1  UNL1       -0.0639
      2 C           4.7148    2.1276   -1.5408 C.3     1  UNL1       -0.0402
      3 C           3.8230    3.3322   -1.3110 C.3     1  UNL1        0.0116
      4 N           3.1450    3.2564   -0.0363 N.pl3   1  UNL1       -0.3133
      5 C           2.2376    2.1945    0.1981 C.ar    1  UNL1        0.2210
      6 N           1.9579    1.3075   -0.7605 N.ar    1  UNL1       -0.1810
      7 C           1.1009    0.2773   -0.5810 C.ar    1  UNL1        0.2214
      8 N           0.8857   -0.6100   -1.6601 N.pl3   1  UNL1       -0.3077
      9 C           1.6133   -1.8559   -1.6646 C.3     1  UNL1        0.0556
     10 C           3.0829   -1.7108   -1.6218 C.ar    1  UNL1        0.0760
     11 C           3.9116   -1.6692   -0.5045 C.ar    1  UNL1        0.0284
     12 N           5.1931   -1.5387   -0.8626 N.ar    1  UNL1       -0.3396
     13 C           6.3691   -1.4651    0.0134 C.3     1  UNL1        0.0127
     14 C           5.1970   -1.4947   -2.2068 C.ar    1  UNL1        0.0960
     15 N           3.9433   -1.5964   -2.6771 N.ar    1  UNL1       -0.2391
     16 N           0.5164    0.1530    0.6124 N.ar    1  UNL1       -0.1809
     17 C           0.7540    1.0204    1.6405 C.ar    1  UNL1        0.2239
     18 N           0.1671    0.9112    2.9011 N.pl3   1  UNL1       -0.2952
     19 C           0.5005    1.6544    4.0832 C.3     1  UNL1        0.0153
     20 C           0.5465    0.5265    5.1257 C.3     1  UNL1       -0.0354
     21 C          -0.2606   -0.6289    4.5074 C.3     1  UNL1       -0.0316
     22 C          -0.8962    0.0328    3.3163 C.3     1  UNL1        0.0403
     23 C          -1.4139   -0.8823    2.2677 C.3     1  UNL1        0.0361
     24 N          -2.4668   -1.6926    2.8893 N.3     1  UNL1       -0.1882
     25 S          -3.1412   -2.7866    1.7248 S.O2    1  UNL1        0.0585
     26 O          -4.1888   -3.6466    2.3275 O.2     1  UNL1       -0.1530
     27 O          -2.0586   -3.6701    1.1520 O.2     1  UNL1       -0.1530
     28 C          -3.8426   -1.7939    0.4714 C.ar    1  UNL1        0.1053
     29 C          -3.1310   -1.5265   -0.6650 C.ar    1  UNL1       -0.0351
     30 C          -3.6846   -0.7187   -1.6402 C.ar    1  UNL1       -0.0567
     31 C          -4.9350   -0.1768   -1.4948 C.ar    1  UNL1       -0.0473
     32 C          -5.5652    0.6982   -2.5287 C.3     1  UNL1       -0.0279
     33 C          -6.4031   -0.1715   -3.4620 C.3     1  UNL1       -0.0519
     34 C          -7.0602    0.7177   -4.5015 C.3     1  UNL1       -0.0650
     35 C          -5.6428   -0.4613   -0.3318 C.ar    1  UNL1       -0.0567
     36 C          -5.0851   -1.2699    0.6404 C.ar    1  UNL1       -0.0351
     37 N           1.6177    2.0184    1.3821 N.ar    1  UNL1       -0.1809
     38 H           5.2706    1.5431    0.4353 H       1  UNL1        0.0230
     39 H           6.6110    1.4050   -0.7478 H       1  UNL1        0.0230
     40 H           6.1360    3.0405   -0.1672 H       1  UNL1        0.0230
     41 H           5.2441    2.1887   -2.5138 H       1  UNL1        0.0278
     42 H           4.1638    1.1895   -1.5321 H       1  UNL1        0.0278
     43 H           3.1654    3.4320   -2.1797 H       1  UNL1        0.0462
     44 H           4.5179    4.2146   -1.3312 H       1  UNL1        0.0462
     45 H           3.3456    3.9942    0.6825 H       1  UNL1        0.1489
     46 H           0.2300   -0.4023   -2.4442 H       1  UNL1        0.1493
     47 H           1.2825   -2.5488   -2.4678 H       1  UNL1        0.0527
     48 H           1.3346   -2.3602   -0.6903 H       1  UNL1        0.0527
     49 H           3.5656   -1.7340    0.5302 H       1  UNL1        0.0828
     50 H           6.4939   -2.3742    0.6281 H       1  UNL1        0.0456
     51 H           7.2605   -1.3555   -0.6147 H       1  UNL1        0.0456
     52 H           6.3105   -0.5931    0.6922 H       1  UNL1        0.0456
     53 H           6.1021   -1.3909   -2.7843 H       1  UNL1        0.1029
     54 H          -0.3243    2.3449    4.3972 H       1  UNL1        0.0465
     55 H           1.4878    2.1520    4.0527 H       1  UNL1        0.0465
     56 H           0.1270    0.8542    6.0915 H       1  UNL1        0.0281
     57 H           1.6063    0.2128    5.2044 H       1  UNL1        0.0281
     58 H           0.4041   -1.4283    4.1519 H       1  UNL1        0.0284
     59 H          -1.0163   -1.0090    5.2270 H       1  UNL1        0.0284
     60 H          -1.7230    0.6957    3.7196 H       1  UNL1        0.0514
     61 H          -1.8492   -0.2950    1.4334 H       1  UNL1        0.0460
     62 H          -0.6203   -1.5137    1.8681 H       1  UNL1        0.0460
     63 H          -3.1979   -1.0986    3.3107 H       1  UNL1        0.1481
     64 H          -2.1235   -1.9342   -0.8354 H       1  UNL1        0.0637
     65 H          -3.1217   -0.5086   -2.5375 H       1  UNL1        0.0621
     66 H          -4.8221    1.2005   -3.1481 H       1  UNL1        0.0313
     67 H          -6.1985    1.4395   -2.0054 H       1  UNL1        0.0313
     68 H          -7.1733   -0.6535   -2.8337 H       1  UNL1        0.0266
     69 H          -5.7907   -0.9391   -3.9495 H       1  UNL1        0.0266
     70 H          -7.6630    1.4782   -3.9560 H       1  UNL1        0.0230
     71 H          -7.7085    0.0855   -5.1107 H       1  UNL1        0.0230
     72 H          -6.2574    1.2391   -5.0872 H       1  UNL1        0.0230
     73 H          -6.6370   -0.0257   -0.2231 H       1  UNL1        0.0621
     74 H          -5.7054   -1.4452    1.5239 H       1  UNL1        0.0637
@<TRIPOS>BOND
     1     1     2    1
     2     2     3    1
     3     3     4    1
     4     4     5    1
     5     5     6   ar
     6     6     7   ar
     7     7     8    1
     8     8     9    1
     9     9    10    1
    10    10    11   ar
    11    11    12   ar
    12    12    13    1
    13    12    14   ar
    14    14    15   ar
    15     7    16   ar
    16    16    17   ar
    17    17    18    1
    18    18    19    1
    19    19    20    1
    20    20    21    1
    21    21    22    1
    22    22    23    1
    23    23    24    1
    24    24    25    1
    25    25    26    2
    26    25    27    2
    27    25    28    1
    28    28    29   ar
    29    29    30   ar
    30    30    31   ar
    31    31    32    1
    32    32    33    1
    33    33    34    1
    34    31    35   ar
    35    35    36   ar
    36    17    37   ar
    37    37     5   ar
    38    15    10   ar
    39    22    18    1
    40    36    28   ar
    41     1    38    1
    42     1    39    1
    43     1    40    1
    44     2    41    1
    45     2    42    1
    46     3    43    1
    47     3    44    1
    48     4    45    1
    49     8    46    1
    50     9    47    1
    51     9    48    1
    52    11    49    1
    53    13    50    1
    54    13    51    1
    55    13    52    1
    56    14    53    1
    57    19    54    1
    58    19    55    1
    59    20    56    1
    60    20    57    1
    61    21    58    1
    62    21    59    1
    63    22    60    1
    64    23    61    1
    65    23    62    1
    66    24    63    1
    67    29    64    1
    68    30    65    1
    69    32    66    1
    70    32    67    1
    71    33    68    1
    72    33    69    1
    73    34    70    1
    74    34    71    1
    75    34    72    1
    76    35    73    1
    77    36    74    1
