@<TRIPOS>MOLECULE
*****
 37 40 0 0 0
SMALL
GASTEIGER

@<TRIPOS>ATOM
      1 C          -0.3628   -0.7296    0.3798 C.3     1  UNL1       -0.0473
      2 C          -1.3160   -0.9683   -0.7638 C.3     1  UNL1        0.0539
      3 C          -0.6576   -1.2004   -2.0832 C.3     1  UNL1        0.0193
      4 S           0.3714    0.1251   -2.6876 S.3     1  UNL1       -0.0657
      5 C           1.8349    0.4167   -1.7424 C.ar    1  UNL1        0.2580
      6 N           1.9267    1.2574   -0.6988 N.ar    1  UNL1       -0.2034
      7 C           3.1717    1.2361   -0.2171 C.ar    1  UNL1        0.1104
      8 C           3.7526    1.9105    0.8268 C.ar    1  UNL1       -0.0326
      9 C           5.1041    1.7031    1.1291 C.ar    1  UNL1       -0.0595
     10 C           5.7836    0.8150    0.3432 C.ar    1  UNL1       -0.0582
     11 C           5.2105    0.1261   -0.7151 C.ar    1  UNL1       -0.0171
     12 C           3.8657    0.3454   -1.0003 C.ar    1  UNL1        0.1562
     13 O           3.0388   -0.1237   -1.8987 O.2     1  UNL1       -0.4307
     14 S          -2.2094   -2.5460   -0.4009 S.3     1  UNL1       -0.1270
     15 C          -3.3364   -1.7111    0.7357 C.3     1  UNL1        0.0945
     16 C          -4.7954   -1.8495    0.5260 C.3     1  UNL1        0.1188
     17 BR         -5.3288   -2.2822   -1.2750 Br      1  UNL1       -0.0754
     18 C          -4.7246   -0.3838    0.7520 C.2     1  UNL1        0.2334
     19 O          -5.4254    0.4777    1.3054 O.2     1  UNL1       -0.2742
     20 N          -3.5045   -0.4065    0.0568 N.am    1  UNL1       -0.2721
     21 C          -2.4532   -0.0308   -0.7842 C.3     1  UNL1        0.1389
     22 C          -2.0477    1.3729   -0.4093 C.2     1  UNL1        0.3269
     23 O          -1.1241    1.9363   -1.0381 O.2     1  UNL1       -0.2489
     24 O          -2.6545    2.0810    0.6106 O.3     1  UNL1       -0.4793
     25 H           0.6563   -1.0629    0.1898 H       1  UNL1        0.0244
     26 H          -0.3604    0.3505    0.6168 H       1  UNL1        0.0244
     27 H          -0.7329   -1.2642    1.3044 H       1  UNL1        0.0244
     28 H          -1.4241   -1.5311   -2.7928 H       1  UNL1        0.0395
     29 H           0.0206   -2.0952   -1.9338 H       1  UNL1        0.0395
     30 H           3.1594    2.5969    1.4073 H       1  UNL1        0.0640
     31 H           5.5776    2.2288    1.9502 H       1  UNL1        0.0618
     32 H           6.8370    0.6381    0.5615 H       1  UNL1        0.0619
     33 H           5.7817   -0.5642   -1.3086 H       1  UNL1        0.0655
     34 H          -3.0290   -1.6288    1.7755 H       1  UNL1        0.0633
     35 H          -5.2960   -2.4226    1.3232 H       1  UNL1        0.0540
     36 H          -2.7473    0.0775   -1.8757 H       1  UNL1        0.0631
     37 H          -2.5624    3.1059    0.6268 H       1  UNL1        0.2951
@<TRIPOS>BOND
     1     2     1    1
     2     2     3    1
     3     3     4    1
     4     4     5    1
     5     5     6   ar
     6     6     7   ar
     7     7     8   ar
     8     8     9   ar
     9     9    10   ar
    10    10    11   ar
    11    11    12   ar
    12    12    13   ar
    13     2    14    1
    14    14    15    1
    15    15    16    1
    16    16    17    1
    17    16    18    1
    18    18    19    2
    19    18    20   am
    20    20    21    1
    21    21    22    1
    22    22    23    2
    23    22    24    1
    24    21     2    1
    25    13     5   ar
    26    20    15    1
    27    12     7   ar
    28     1    25    1
    29     1    26    1
    30     1    27    1
    31     3    28    1
    32     3    29    1
    33     8    30    1
    34     9    31    1
    35    10    32    1
    36    11    33    1
    37    15    34    1
    38    16    35    1
    39    21    36    1
    40    24    37    1
