
     RDKit          3D

 50 53  0  0  0  0  0  0  0  0999 V2000
   -4.0056    0.9849    2.0726 C   0  0  0  0  0  0  0  0  0  0  0  0
   -4.0882    0.5554    0.6291 C   0  0  0  0  0  0  0  0  0  0  0  0
   -5.0762    1.3878   -0.1417 C   0  0  0  0  0  0  0  0  0  0  0  0
   -4.3597   -0.9274    0.5028 C   0  0  2  0  0  0  0  0  0  0  0  0
   -4.4339   -1.3138   -0.8699 N   0  0  0  0  0  0  0  0  0  0  0  0
   -3.1882   -2.3994   -1.2708 S   0  0  0  0  0  6  0  0  0  0  0  0
   -3.3432   -2.8469   -2.7133 O   0  0  0  0  0  0  0  0  0  0  0  0
   -3.2577   -3.6436   -0.4386 O   0  0  0  0  0  0  0  0  0  0  0  0
   -1.5758   -1.7078   -1.0608 C   0  0  0  0  0  0  0  0  0  0  0  0
   -0.8709   -1.8470    0.1160 C   0  0  0  0  0  0  0  0  0  0  0  0
    0.3982   -1.2923    0.2644 C   0  0  0  0  0  0  0  0  0  0  0  0
    0.9990   -0.5847   -0.7545 C   0  0  0  0  0  0  0  0  0  0  0  0
    0.3028   -0.4408   -1.9330 C   0  0  0  0  0  0  0  0  0  0  0  0
   -0.9707   -0.9990   -2.0780 C   0  0  0  0  0  0  0  0  0  0  0  0
    1.0756    0.2578   -2.7260 O   0  0  0  0  0  0  0  0  0  0  0  0
    2.2193    0.5720   -2.1377 C   0  0  0  0  0  0  0  0  0  0  0  0
    3.3350    1.2743   -2.5330 C   0  0  0  0  0  0  0  0  0  0  0  0
    4.4028    1.4471   -1.6886 C   0  0  0  0  0  0  0  0  0  0  0  0
    4.4080    0.9199   -0.3919 C   0  0  0  0  0  0  0  0  0  0  0  0
    5.4931    1.0867    0.4876 N   0  0  0  0  0  0  0  0  0  0  0  0
    6.6566    0.2477    0.6715 C   0  0  0  0  0  0  0  0  0  0  0  0
    7.5761    1.0985    1.4877 C   0  0  0  0  0  0  0  0  0  0  0  0
    6.9060    2.2802    1.8200 O   0  0  0  0  0  0  0  0  0  0  0  0
    5.5881    2.2072    1.3895 C   0  0  0  0  0  0  0  0  0  0  0  0
    4.6573    2.9733    1.7239 O   0  0  0  0  0  0  0  0  0  0  0  0
    3.2940    0.2192    0.0012 C   0  0  0  0  0  0  0  0  0  0  0  0
    2.2257    0.0502   -0.8529 C   0  0  0  0  0  0  0  0  0  0  0  0
   -5.5490   -1.3393    1.2877 C   0  0  0  0  0  0  0  0  0  0  0  0
   -5.5733   -1.0437    2.5058 O   0  0  0  0  0  0  0  0  0  0  0  0
   -6.6322   -2.0264    0.7686 O   0  0  0  0  0  0  0  0  0  0  0  0
   -3.2975    1.8413    2.1964 H   0  0  0  0  0  0  0  0  0  0  0  0
   -3.5759    0.1577    2.6695 H   0  0  0  0  0  0  0  0  0  0  0  0
   -4.9994    1.2212    2.5064 H   0  0  0  0  0  0  0  0  0  0  0  0
   -3.0857    0.7435    0.1717 H   0  0  0  0  0  0  0  0  0  0  0  0
   -5.9580    0.8045   -0.4756 H   0  0  0  0  0  0  0  0  0  0  0  0
   -4.6521    1.8849   -1.0194 H   0  0  0  0  0  0  0  0  0  0  0  0
   -5.4439    2.1877    0.5390 H   0  0  0  0  0  0  0  0  0  0  0  0
   -3.4958   -1.4405    0.9763 H   0  0  0  0  0  0  0  0  0  0  0  0
   -4.5380   -0.5323   -1.5465 H   0  0  0  0  0  0  0  0  0  0  0  0
   -1.3107   -2.3927    0.9233 H   0  0  0  0  0  0  0  0  0  0  0  0
    0.9625   -1.3940    1.1829 H   0  0  0  0  0  0  0  0  0  0  0  0
   -1.5027   -0.8718   -3.0206 H   0  0  0  0  0  0  0  0  0  0  0  0
    3.3857    1.7016   -3.5187 H   0  0  0  0  0  0  0  0  0  0  0  0
    5.2942    1.9934   -1.9680 H   0  0  0  0  0  0  0  0  0  0  0  0
    7.0851    0.0060   -0.3220 H   0  0  0  0  0  0  0  0  0  0  0  0
    6.4113   -0.7137    1.1781 H   0  0  0  0  0  0  0  0  0  0  0  0
    7.8941    0.5922    2.4323 H   0  0  0  0  0  0  0  0  0  0  0  0
    8.4567    1.3682    0.8599 H   0  0  0  0  0  0  0  0  0  0  0  0
    3.2711   -0.1964    0.9914 H   0  0  0  0  0  0  0  0  0  0  0  0
   -7.5141   -2.1110    1.2932 H   0  0  0  0  0  0  0  0  0  0  0  0
  1  2  1  0
  2  3  1  0
  2  4  1  0
  4  5  1  0
  5  6  1  0
  6  7  2  0
  6  8  2  0
  6  9  1  0
  9 10  2  0
 10 11  1  0
 11 12  2  0
 12 13  1  0
 13 14  2  0
 13 15  1  0
 15 16  1  0
 16 17  2  0
 17 18  1  0
 18 19  2  0
 19 20  1  0
 20 21  1  0
 21 22  1  0
 22 23  1  0
 23 24  1  0
 24 25  2  0
 19 26  1  0
 26 27  2  0
  4 28  1  0
 28 29  2  0
 28 30  1  0
 14  9  1  0
 27 16  1  0
 27 12  1  0
 24 20  1  0
  1 31  1  0
  1 32  1  0
  1 33  1  0
  2 34  1  0
  3 35  1  0
  3 36  1  0
  3 37  1  0
  4 38  1  1
  5 39  1  0
 10 40  1  0
 11 41  1  0
 14 42  1  0
 17 43  1  0
 18 44  1  0
 21 45  1  0
 21 46  1  0
 22 47  1  0
 22 48  1  0
 26 49  1  0
 30 50  1  0
M  END
$$$$
