@<TRIPOS>MOLECULE
*****
 50 53 0 0 0
SMALL
GASTEIGER

@<TRIPOS>ATOM
      1 C          -4.0056    0.9849    2.0726 C.3     1  UNL1       -0.0607
      2 C          -4.0882    0.5554    0.6291 C.3     1  UNL1       -0.0194
      3 C          -5.0762    1.3878   -0.1417 C.3     1  UNL1       -0.0607
      4 C          -4.3597   -0.9274    0.5028 C.3     1  UNL1        0.1276
      5 N          -4.4339   -1.3138   -0.8699 N.3     1  UNL1       -0.1759
      6 S          -3.1882   -2.3994   -1.2708 S.O2    1  UNL1        0.0593
      7 O          -3.3432   -2.8469   -2.7133 O.2     1  UNL1       -0.1530
      8 O          -3.2577   -3.6436   -0.4386 O.2     1  UNL1       -0.1530
      9 C          -1.5758   -1.7078   -1.0608 C.ar    1  UNL1        0.1088
     10 C          -0.8709   -1.8470    0.1160 C.ar    1  UNL1       -0.0345
     11 C           0.3982   -1.2923    0.2644 C.ar    1  UNL1       -0.0485
     12 C           0.9990   -0.5847   -0.7545 C.ar    1  UNL1        0.0281
     13 C           0.3028   -0.4408   -1.9330 C.ar    1  UNL1        0.1381
     14 C          -0.9707   -0.9990   -2.0780 C.ar    1  UNL1        0.0076
     15 O           1.0756    0.2578   -2.7260 O.2     1  UNL1       -0.4547
     16 C           2.2193    0.5720   -2.1377 C.ar    1  UNL1        0.1364
     17 C           3.3350    1.2743   -2.5330 C.ar    1  UNL1       -0.0170
     18 C           4.4028    1.4471   -1.6886 C.ar    1  UNL1       -0.0367
     19 C           4.4080    0.9199   -0.3919 C.ar    1  UNL1        0.0403
     20 N           5.4931    1.0867    0.4876 N.am    1  UNL1       -0.2341
     21 C           6.6566    0.2477    0.6715 C.3     1  UNL1        0.0572
     22 C           7.5761    1.0985    1.4877 C.3     1  UNL1        0.1102
     23 O           6.9060    2.2802    1.8200 O.3     1  UNL1       -0.4484
     24 C           5.5881    2.2072    1.3895 C.2     1  UNL1        0.4073
     25 O           4.6573    2.9733    1.7239 O.2     1  UNL1       -0.2259
     26 C           3.2940    0.2192    0.0012 C.ar    1  UNL1       -0.0288
     27 C           2.2257    0.0502   -0.8529 C.ar    1  UNL1        0.0297
     28 C          -5.5490   -1.3393    1.2877 C.2     1  UNL1        0.3238
     29 O          -5.5733   -1.0437    2.5058 O.2     1  UNL1       -0.2492
     30 O          -6.6322   -2.0264    0.7686 O.3     1  UNL1       -0.4795
     31 H          -3.2975    1.8413    2.1964 H       1  UNL1        0.0233
     32 H          -3.5759    0.1577    2.6695 H       1  UNL1        0.0233
     33 H          -4.9994    1.2212    2.5064 H       1  UNL1        0.0233
     34 H          -3.0857    0.7435    0.1717 H       1  UNL1        0.0316
     35 H          -5.9580    0.8045   -0.4756 H       1  UNL1        0.0233
     36 H          -4.6521    1.8849   -1.0194 H       1  UNL1        0.0233
     37 H          -5.4439    2.1877    0.5390 H       1  UNL1        0.0233
     38 H          -3.4958   -1.4405    0.9763 H       1  UNL1        0.0595
     39 H          -4.5380   -0.5323   -1.5465 H       1  UNL1        0.1489
     40 H          -1.3107   -2.3927    0.9233 H       1  UNL1        0.0637
     41 H           0.9625   -1.3940    1.1829 H       1  UNL1        0.0625
     42 H          -1.5027   -0.8718   -3.0206 H       1  UNL1        0.0674
     43 H           3.3857    1.7016   -3.5187 H       1  UNL1        0.0655
     44 H           5.2942    1.9934   -1.9680 H       1  UNL1        0.0637
     45 H           7.0851    0.0060   -0.3220 H       1  UNL1        0.0503
     46 H           6.4113   -0.7137    1.1781 H       1  UNL1        0.0503
     47 H           7.8941    0.5922    2.4323 H       1  UNL1        0.0714
     48 H           8.4567    1.3682    0.8599 H       1  UNL1        0.0714
     49 H           3.2711   -0.1964    0.9914 H       1  UNL1        0.0643
     50 H          -7.5141   -2.1110    1.2932 H       1  UNL1        0.2951
@<TRIPOS>BOND
     1     1     2    1
     2     2     3    1
     3     2     4    1
     4     4     5    1
     5     5     6    1
     6     6     7    2
     7     6     8    2
     8     6     9    1
     9     9    10   ar
    10    10    11   ar
    11    11    12   ar
    12    12    13   ar
    13    13    14   ar
    14    13    15   ar
    15    15    16   ar
    16    16    17   ar
    17    17    18   ar
    18    18    19   ar
    19    19    20    1
    20    20    21    1
    21    21    22    1
    22    22    23    1
    23    23    24    1
    24    24    25    2
    25    19    26   ar
    26    26    27   ar
    27     4    28    1
    28    28    29    2
    29    28    30    1
    30    14     9   ar
    31    27    16   ar
    32    27    12   ar
    33    24    20   am
    34     1    31    1
    35     1    32    1
    36     1    33    1
    37     2    34    1
    38     3    35    1
    39     3    36    1
    40     3    37    1
    41     4    38    1
    42     5    39    1
    43    10    40    1
    44    11    41    1
    45    14    42    1
    46    17    43    1
    47    18    44    1
    48    21    45    1
    49    21    46    1
    50    22    47    1
    51    22    48    1
    52    26    49    1
    53    30    50    1
