@<TRIPOS>MOLECULE
*****
 47 49 0 0 0
SMALL
GASTEIGER

@<TRIPOS>ATOM
      1 C          -2.4045   -3.3482    2.3793 C.3     1  UNL1       -0.0380
      2 C          -1.3198   -2.4936    1.8321 C.ar    1  UNL1       -0.0293
      3 C          -1.5918   -1.3949    1.0536 C.ar    1  UNL1        0.0350
      4 N          -2.9457   -1.1133    0.7768 N.pl3   1  UNL1       -0.3131
      5 C          -3.6527   -0.1647    0.0052 C.ar    1  UNL1        0.0504
      6 C          -4.8740    0.4108    0.3290 C.ar    1  UNL1       -0.0255
      7 C          -5.4795    1.3038   -0.5020 C.ar    1  UNL1        0.0563
      8 C          -4.9403    1.6996   -1.7057 C.ar    1  UNL1        0.0398
      9 N          -3.7425    1.1418   -2.0354 N.ar    1  UNL1       -0.2607
     10 C          -3.1440    0.2543   -1.2064 C.ar    1  UNL1        0.0487
     11 C          -6.7658    1.8526   -0.0668 C.2     1  UNL1        0.2431
     12 N          -7.4857    2.7792   -0.8346 N.am    1  UNL1       -0.3253
     13 O          -7.2548    1.4865    1.0370 O.2     1  UNL1       -0.2704
     14 C          -0.4986   -0.6920    0.6130 C.ar    1  UNL1       -0.0282
     15 C           0.8158   -0.9991    0.8859 C.ar    1  UNL1        0.0388
     16 C           1.0314   -2.0994    1.6627 C.ar    1  UNL1       -0.0493
     17 C          -0.0286   -2.8417    2.1328 C.ar    1  UNL1       -0.0564
     18 C           1.8860   -0.1716    0.3568 C.2     1  UNL1        0.2483
     19 O           1.6035    0.8280   -0.3526 O.2     1  UNL1       -0.2699
     20 N           3.2491   -0.4670    0.6233 N.am    1  UNL1       -0.2815
     21 C           4.3538    0.2887    0.1458 C.ar    1  UNL1        0.0342
     22 C           4.7672    1.3179    0.9735 C.ar    1  UNL1       -0.0404
     23 C           5.8377    2.1212    0.6064 C.ar    1  UNL1       -0.0595
     24 C           6.5038    1.9030   -0.5903 C.ar    1  UNL1       -0.0500
     25 C           6.0826    0.8704   -1.4121 C.ar    1  UNL1        0.0566
     26 C           5.0118    0.0605   -1.0533 C.ar    1  UNL1       -0.0288
     27 C           6.7555    0.5841   -2.7097 C.3     1  UNL1        0.4175
     28 F           7.3708   -0.6589   -2.5496 F       1  UNL1       -0.1659
     29 F           7.7014    1.5636   -2.9361 F       1  UNL1       -0.1659
     30 F           5.8782    0.6038   -3.7665 F       1  UNL1       -0.1659
     31 H          -2.0186   -4.2343    2.8916 H       1  UNL1        0.0278
     32 H          -3.0710   -3.6426    1.5287 H       1  UNL1        0.0278
     33 H          -2.9573   -2.7352    3.1287 H       1  UNL1        0.0278
     34 H          -3.6907   -1.7246    1.2200 H       1  UNL1        0.1522
     35 H          -5.3144    0.1129    1.2706 H       1  UNL1        0.0644
     36 H          -5.4838    2.4022   -2.2896 H       1  UNL1        0.0837
     37 H          -2.2340   -0.0575   -1.6699 H       1  UNL1        0.0848
     38 H          -7.3970    3.8171   -0.7589 H       1  UNL1        0.1453
     39 H          -8.1618    2.3913   -1.5350 H       1  UNL1        0.1453
     40 H          -0.6646    0.1860    0.0090 H       1  UNL1        0.0644
     41 H           2.0315   -2.4123    1.9255 H       1  UNL1        0.0625
     42 H           0.1717   -3.7170    2.7523 H       1  UNL1        0.0621
     43 H           3.5481   -1.2751    1.1999 H       1  UNL1        0.1551
     44 H           4.2990    1.5539    1.9261 H       1  UNL1        0.0636
     45 H           6.2324    2.9517    1.1917 H       1  UNL1        0.0618
     46 H           7.3471    2.5253   -0.8936 H       1  UNL1        0.0623
     47 H           4.6431   -0.7674   -1.6703 H       1  UNL1        0.0642
@<TRIPOS>BOND
     1     1     2    1
     2     2     3   ar
     3     3     4    1
     4     4     5    1
     5     5     6   ar
     6     6     7   ar
     7     7     8   ar
     8     8     9   ar
     9     9    10   ar
    10     7    11    1
    11    11    12   am
    12    11    13    2
    13     3    14   ar
    14    14    15   ar
    15    15    16   ar
    16    16    17   ar
    17    15    18    1
    18    18    19    2
    19    18    20   am
    20    20    21    1
    21    21    22   ar
    22    22    23   ar
    23    23    24   ar
    24    24    25   ar
    25    25    26   ar
    26    25    27    1
    27    27    28    1
    28    27    29    1
    29    27    30    1
    30    17     2   ar
    31    26    21   ar
    32    10     5   ar
    33     1    31    1
    34     1    32    1
    35     1    33    1
    36     4    34    1
    37     6    35    1
    38     8    36    1
    39    10    37    1
    40    12    38    1
    41    12    39    1
    42    14    40    1
    43    16    41    1
    44    17    42    1
    45    20    43    1
    46    22    44    1
    47    23    45    1
    48    24    46    1
    49    26    47    1
