@<TRIPOS>MOLECULE
*****
 56 60 0 0 0
SMALL
GASTEIGER

@<TRIPOS>ATOM
      1 C           4.3280    1.4723    1.6981 C.3     1  UNL1        0.0365
      2 O           3.4967    1.4165    0.5986 O.3     1  UNL1       -0.3812
      3 C           4.1304    1.7361   -0.5678 C.3     1  UNL1        0.0652
      4 C           3.1873    1.6616   -1.7343 C.3     1  UNL1        0.0465
      5 N           2.5905    0.3933   -1.9508 N.ar    1  UNL1       -0.3456
      6 C           3.2649   -0.5928   -2.6137 C.ar    1  UNL1        0.0086
      7 C           2.4887   -1.7265   -2.6553 C.ar    1  UNL1       -0.0205
      8 C           2.8050   -3.0378   -3.2664 C.3     1  UNL1       -0.0376
      9 C           1.3057   -1.3983   -1.9907 C.ar    1  UNL1        0.0630
     10 C           1.3976   -0.0861   -1.5683 C.ar    1  UNL1        0.0568
     11 C           0.1439    0.2507   -0.8919 C.3     1  UNL1        0.0972
     12 C           0.3856    0.8305    0.4422 C.ar    1  UNL1       -0.0208
     13 C           0.6269    0.0170    1.5438 C.ar    1  UNL1       -0.0550
     14 C           0.8611    0.5705    2.7813 C.ar    1  UNL1       -0.0431
     15 C           0.8610    1.9372    2.9514 C.ar    1  UNL1        0.0410
     16 CL          1.1552    2.6808    4.5113 Cl      1  UNL1       -0.0835
     17 C           0.6233    2.7477    1.8673 C.ar    1  UNL1       -0.0431
     18 C           0.3903    2.1931    0.6358 C.ar    1  UNL1       -0.0550
     19 N          -0.7062   -0.8941   -0.9054 N.am    1  UNL1       -0.2530
     20 C          -2.0116   -1.0292   -0.3535 C.ar    1  UNL1        0.0545
     21 C          -2.7038   -2.2103   -0.3447 C.ar    1  UNL1       -0.0324
     22 C          -3.9946   -2.3330    0.1883 C.ar    1  UNL1       -0.0041
     23 C          -4.7179   -3.6304    0.1816 C.3     1  UNL1       -0.0361
     24 C          -4.5411   -1.1884    0.7113 C.ar    1  UNL1        0.1641
     25 N          -5.7342   -0.9792    1.2844 N.ar    1  UNL1       -0.1292
     26 N          -5.8521    0.2902    1.6513 N.ar    1  UNL1       -0.1340
     27 C          -4.7070    0.8827    1.2984 C.ar    1  UNL1        0.1347
     28 C          -4.4257    2.3243    1.5337 C.3     1  UNL1       -0.0041
     29 N          -3.8910   -0.0188    0.7180 N.ar    1  UNL1       -0.2846
     30 C          -2.6529    0.0728    0.2000 C.ar    1  UNL1        0.0344
     31 C           0.0008   -1.9194   -1.5846 C.2     1  UNL1        0.2538
     32 O          -0.3237   -3.1129   -1.8575 O.2     1  UNL1       -0.2695
     33 H           4.7673    2.4857    1.8602 H       1  UNL1        0.0523
     34 H           5.1012    0.6780    1.6359 H       1  UNL1        0.0523
     35 H           3.7133    1.2617    2.6005 H       1  UNL1        0.0523
     36 H           4.9189    0.9414   -0.7252 H       1  UNL1        0.0577
     37 H           4.6589    2.7176   -0.5224 H       1  UNL1        0.0577
     38 H           3.7597    1.9516   -2.6609 H       1  UNL1        0.0514
     39 H           2.4530    2.4836   -1.5854 H       1  UNL1        0.0514
     40 H           4.2623   -0.5156   -3.0495 H       1  UNL1        0.0812
     41 H           3.8170   -2.9574   -3.7237 H       1  UNL1        0.0278
     42 H           2.1071   -3.2400   -4.1244 H       1  UNL1        0.0278
     43 H           2.8382   -3.8641   -2.5430 H       1  UNL1        0.0278
     44 H          -0.4185    1.0492   -1.4720 H       1  UNL1        0.0619
     45 H           0.6307   -1.0369    1.4317 H       1  UNL1        0.0621
     46 H           1.0534   -0.0208    3.6664 H       1  UNL1        0.0632
     47 H           0.6274    3.8403    2.0239 H       1  UNL1        0.0632
     48 H           0.2069    2.8477   -0.1970 H       1  UNL1        0.0621
     49 H          -2.2725   -3.1191   -0.7565 H       1  UNL1        0.0640
     50 H          -5.4390   -3.5959    1.0459 H       1  UNL1        0.0279
     51 H          -4.0371   -4.4874    0.2802 H       1  UNL1        0.0279
     52 H          -5.3598   -3.7318   -0.7349 H       1  UNL1        0.0279
     53 H          -4.4903    2.4715    2.6395 H       1  UNL1        0.0308
     54 H          -3.3857    2.5498    1.2140 H       1  UNL1        0.0308
     55 H          -5.1629    2.9451    0.9843 H       1  UNL1        0.0308
     56 H          -2.1308    1.0254    0.2004 H       1  UNL1        0.0833
@<TRIPOS>BOND
     1     1     2    1
     2     2     3    1
     3     3     4    1
     4     4     5    1
     5     5     6   ar
     6     6     7   ar
     7     7     8    1
     8     7     9   ar
     9     9    10   ar
    10    10    11    1
    11    11    12    1
    12    12    13   ar
    13    13    14   ar
    14    14    15   ar
    15    15    16    1
    16    15    17   ar
    17    17    18   ar
    18    11    19    1
    19    19    20    1
    20    20    21   ar
    21    21    22   ar
    22    22    23    1
    23    22    24   ar
    24    24    25   ar
    25    25    26   ar
    26    26    27   ar
    27    27    28    1
    28    27    29   ar
    29    29    30   ar
    30    19    31   am
    31    31    32    2
    32    10     5   ar
    33    18    12   ar
    34    30    20   ar
    35    31     9    1
    36    29    24   ar
    37     1    33    1
    38     1    34    1
    39     1    35    1
    40     3    36    1
    41     3    37    1
    42     4    38    1
    43     4    39    1
    44     6    40    1
    45     8    41    1
    46     8    42    1
    47     8    43    1
    48    11    44    1
    49    13    45    1
    50    14    46    1
    51    17    47    1
    52    18    48    1
    53    21    49    1
    54    23    50    1
    55    23    51    1
    56    23    52    1
    57    28    53    1
    58    28    54    1
    59    28    55    1
    60    30    56    1
