@<TRIPOS>MOLECULE
*****
 46 47 0 0 0
SMALL
GASTEIGER

@<TRIPOS>ATOM
      1 C          -5.9295   -0.4872    0.6755 C.3     1  UNL1        0.0194
      2 C          -5.2972   -1.7032    0.0447 C.3     1  UNL1       -0.0467
      3 C          -6.0101    0.6059   -0.3375 C.3     1  UNL1       -0.0376
      4 C          -6.6536    1.8102    0.3393 C.3     1  UNL1       -0.0636
      5 N          -5.2067   -0.0652    1.8608 N.pl3   1  UNL1       -0.3209
      6 C          -3.8438    0.2147    1.4387 C.ar    1  UNL1        0.1589
      7 N          -3.2084    1.0627    1.0222 N.ar    1  UNL1       -0.2325
      8 C          -1.9273    1.0803    0.7025 C.ar    1  UNL1        0.0490
      9 C          -1.2601   -0.0897    0.8986 C.ar    1  UNL1        0.0953
     10 S          -2.5248   -1.1796    1.5441 S.2     1  UNL1       -0.0478
     11 C           0.1206   -0.5528    0.7014 C.2     1  UNL1        0.2565
     12 O           0.3404   -1.7370    1.0124 O.2     1  UNL1       -0.2692
     13 N           1.0189    0.3939    0.1867 N.am    1  UNL1       -0.2808
     14 C           2.4003    0.1645   -0.0867 C.ar    1  UNL1        0.0373
     15 C           2.5273   -0.3048   -1.3992 C.ar    1  UNL1       -0.0292
     16 C           1.4193   -0.5426   -2.3771 C.3     1  UNL1       -0.0380
     17 C           3.7813   -0.6071   -1.9239 C.ar    1  UNL1       -0.0564
     18 C           4.9061   -0.4403   -1.1378 C.ar    1  UNL1       -0.0493
     19 C           4.7621    0.0197    0.1432 C.ar    1  UNL1        0.0385
     20 C           3.5315    0.3245    0.6813 C.ar    1  UNL1       -0.0281
     21 C           5.8843    0.2255    1.0449 C.2     1  UNL1        0.2439
     22 O           5.8182    0.6584    2.2317 O.2     1  UNL1       -0.2702
     23 N           7.1958   -0.0561    0.6430 N.am    1  UNL1       -0.3144
     24 C           8.3973    0.0988    1.4230 C.3     1  UNL1        0.0004
     25 H          -6.9445   -0.7764    0.9908 H       1  UNL1        0.0495
     26 H          -4.2569   -1.4981   -0.2960 H       1  UNL1        0.0247
     27 H          -5.8582   -1.9464   -0.8730 H       1  UNL1        0.0247
     28 H          -5.3064   -2.5926    0.6955 H       1  UNL1        0.0247
     29 H          -6.5927    0.2401   -1.1964 H       1  UNL1        0.0280
     30 H          -5.0017    0.8750   -0.7291 H       1  UNL1        0.0280
     31 H          -5.8560    2.4915    0.6745 H       1  UNL1        0.0230
     32 H          -7.1917    1.4937    1.2743 H       1  UNL1        0.0230
     33 H          -7.3662    2.2436   -0.3844 H       1  UNL1        0.0230
     34 H          -5.6111    0.0141    2.8251 H       1  UNL1        0.1482
     35 H          -1.3654    1.9399    0.3007 H       1  UNL1        0.0843
     36 H           0.7940    1.3619   -0.0551 H       1  UNL1        0.1552
     37 H           0.4699   -0.5382   -1.8314 H       1  UNL1        0.0278
     38 H           1.3896    0.2959   -3.0993 H       1  UNL1        0.0278
     39 H           1.6091   -1.4666   -2.9469 H       1  UNL1        0.0278
     40 H           3.9463   -0.9751   -2.9343 H       1  UNL1        0.0621
     41 H           5.8735   -0.6711   -1.5374 H       1  UNL1        0.0625
     42 H           3.2738    0.6907    1.6629 H       1  UNL1        0.0644
     43 H           7.4589   -0.4191   -0.2906 H       1  UNL1        0.1487
     44 H           8.2135    0.3675    2.4767 H       1  UNL1        0.0426
     45 H           9.0762    0.8298    0.9035 H       1  UNL1        0.0426
     46 H           9.0043   -0.8533    1.4613 H       1  UNL1        0.0426
@<TRIPOS>BOND
     1     1     2    1
     2     1     3    1
     3     3     4    1
     4     1     5    1
     5     5     6    1
     6     6     7   ar
     7     7     8   ar
     8     8     9   ar
     9     9    10   ar
    10     9    11    1
    11    11    12    2
    12    11    13   am
    13    13    14    1
    14    14    15   ar
    15    15    16    1
    16    15    17   ar
    17    17    18   ar
    18    18    19   ar
    19    19    20   ar
    20    19    21    1
    21    21    22    2
    22    21    23   am
    23    23    24    1
    24    10     6   ar
    25    20    14   ar
    26     1    25    1
    27     2    26    1
    28     2    27    1
    29     2    28    1
    30     3    29    1
    31     3    30    1
    32     4    31    1
    33     4    32    1
    34     4    33    1
    35     5    34    1
    36     8    35    1
    37    13    36    1
    38    16    37    1
    39    16    38    1
    40    16    39    1
    41    17    40    1
    42    18    41    1
    43    20    42    1
    44    23    43    1
    45    24    44    1
    46    24    45    1
    47    24    46    1
