
     RDKit          3D

 63 65  0  0  0  0  0  0  0  0999 V2000
    9.6567    0.4354   -0.3325 C   0  0  0  0  0  0  0  0  0  0  0  0
    8.3939    0.8081   -1.1107 C   0  0  0  0  0  0  0  0  0  0  0  0
    7.2556    1.1445   -0.1865 C   0  0  0  0  0  0  0  0  0  0  0  0
    6.1035    1.4815   -0.9506 N   0  0  0  0  0  0  0  0  0  0  0  0
    5.4802    0.4439   -1.6823 C   0  0  0  0  0  0  0  0  0  0  0  0
    4.2986   -0.2108   -1.0362 C   0  0  0  0  0  0  0  0  0  0  0  0
    3.4923    0.6385   -0.2082 N   0  0  0  0  0  0  0  0  0  0  0  0
    2.0737    0.4772   -0.0604 C   0  0  0  0  0  0  0  0  0  0  0  0
    1.3351   -0.2236   -0.9784 C   0  0  0  0  0  0  0  0  0  0  0  0
   -0.0500   -0.3924   -0.7890 C   0  0  0  0  0  0  0  0  0  0  0  0
   -0.7101    0.1130    0.2802 C   0  0  0  0  0  0  0  0  0  0  0  0
   -2.1500   -0.0622    0.5367 C   0  0  0  0  0  0  0  0  0  0  0  0
   -2.6375    0.4125    1.5661 O   0  0  0  0  0  0  0  0  0  0  0  0
   -2.9312   -0.7620   -0.3811 N   0  0  0  0  0  0  0  0  0  0  0  0
   -4.3973   -0.9717   -0.1186 C   0  0  0  0  0  0  0  0  0  0  0  0
   -4.9997    0.3659   -0.0029 C   0  0  0  0  0  0  0  0  0  0  0  0
   -4.2897    1.3747   -0.3340 O   0  0  0  0  0  0  0  0  0  0  0  0
   -6.2968    0.5743    0.4529 N   0  0  0  0  0  0  0  0  0  0  0  0
   -6.8921    1.9092    0.5616 C   0  0  0  0  0  0  0  0  0  0  0  0
   -8.2724    1.7272    1.1371 C   0  0  0  0  0  0  0  0  0  0  0  0
   -9.2852    1.5751    1.5558 N   0  0  0  0  0  0  0  0  0  0  0  0
   -4.5359   -1.7116    1.1608 C   0  0  0  0  0  0  0  0  0  0  0  0
   -5.7359   -2.5413    1.3191 C   0  0  0  0  0  0  0  0  0  0  0  0
   -6.5954   -2.9028    0.1873 C   0  0  0  0  0  0  0  0  0  0  0  0
   -6.3588   -2.1659   -1.0931 C   0  0  0  0  0  0  0  0  0  0  0  0
   -4.9624   -1.7173   -1.2693 C   0  0  0  0  0  0  0  0  0  0  0  0
    0.0358    0.8319    1.2208 C   0  0  0  0  0  0  0  0  0  0  0  0
    1.4107    0.9958    1.0275 C   0  0  0  0  0  0  0  0  0  0  0  0
    4.1613    1.7093    0.5254 C   0  0  0  0  0  0  0  0  0  0  0  0
    5.1945    2.3833   -0.3129 C   0  0  0  0  0  0  0  0  0  0  0  0
    9.5206   -0.5078    0.2061 H   0  0  0  0  0  0  0  0  0  0  0  0
    9.8496    1.2389    0.4060 H   0  0  0  0  0  0  0  0  0  0  0  0
   10.4859    0.3524   -1.0510 H   0  0  0  0  0  0  0  0  0  0  0  0
    8.2044   -0.0356   -1.7928 H   0  0  0  0  0  0  0  0  0  0  0  0
    8.5966    1.7078   -1.7193 H   0  0  0  0  0  0  0  0  0  0  0  0
    7.0306    0.2129    0.4023 H   0  0  0  0  0  0  0  0  0  0  0  0
    7.5209    1.9104    0.5570 H   0  0  0  0  0  0  0  0  0  0  0  0
    6.2260   -0.3834   -1.8469 H   0  0  0  0  0  0  0  0  0  0  0  0
    5.2195    0.7579   -2.7361 H   0  0  0  0  0  0  0  0  0  0  0  0
    3.6866   -0.6365   -1.8559 H   0  0  0  0  0  0  0  0  0  0  0  0
    4.6141   -1.1081   -0.4356 H   0  0  0  0  0  0  0  0  0  0  0  0
    1.7612   -0.6611   -1.8592 H   0  0  0  0  0  0  0  0  0  0  0  0
   -0.6140   -0.9579   -1.5425 H   0  0  0  0  0  0  0  0  0  0  0  0
   -2.5640   -1.1528   -1.2437 H   0  0  0  0  0  0  0  0  0  0  0  0
   -6.9381   -0.2135    0.7612 H   0  0  0  0  0  0  0  0  0  0  0  0
   -6.9458    2.3915   -0.4143 H   0  0  0  0  0  0  0  0  0  0  0  0
   -6.3268    2.4615    1.3209 H   0  0  0  0  0  0  0  0  0  0  0  0
   -4.4832   -0.9885    2.0405 H   0  0  0  0  0  0  0  0  0  0  0  0
   -3.6465   -2.4238    1.2838 H   0  0  0  0  0  0  0  0  0  0  0  0
   -5.4516   -3.5574    1.8126 H   0  0  0  0  0  0  0  0  0  0  0  0
   -6.3666   -2.0644    2.1563 H   0  0  0  0  0  0  0  0  0  0  0  0
   -6.6336   -4.0164    0.0260 H   0  0  0  0  0  0  0  0  0  0  0  0
   -7.6695   -2.6650    0.4641 H   0  0  0  0  0  0  0  0  0  0  0  0
   -6.5542   -2.9222   -1.9156 H   0  0  0  0  0  0  0  0  0  0  0  0
   -7.1079   -1.3680   -1.3075 H   0  0  0  0  0  0  0  0  0  0  0  0
   -4.2863   -2.5866   -1.4684 H   0  0  0  0  0  0  0  0  0  0  0  0
   -4.9299   -1.1069   -2.2106 H   0  0  0  0  0  0  0  0  0  0  0  0
   -0.4179    1.2606    2.0858 H   0  0  0  0  0  0  0  0  0  0  0  0
    1.9873    1.5441    1.7595 H   0  0  0  0  0  0  0  0  0  0  0  0
    4.5416    1.2521    1.4418 H   0  0  0  0  0  0  0  0  0  0  0  0
    3.4108    2.5005    0.7843 H   0  0  0  0  0  0  0  0  0  0  0  0
    4.6931    2.9735   -1.1033 H   0  0  0  0  0  0  0  0  0  0  0  0
    5.7955    3.0521    0.3416 H   0  0  0  0  0  0  0  0  0  0  0  0
  1  2  1  0
  2  3  1  0
  3  4  1  0
  4  5  1  0
  5  6  1  0
  6  7  1  0
  7  8  1  0
  8  9  2  0
  9 10  1  0
 10 11  2  0
 11 12  1  0
 12 13  2  0
 12 14  1  0
 14 15  1  0
 15 16  1  0
 16 17  2  0
 16 18  1  0
 18 19  1  0
 19 20  1  0
 20 21  3  0
 15 22  1  0
 22 23  1  0
 23 24  1  0
 24 25  1  0
 25 26  1  0
 11 27  1  0
 27 28  2  0
  7 29  1  0
 29 30  1  0
 30  4  1  0
 28  8  1  0
 26 15  1  0
  1 31  1  0
  1 32  1  0
  1 33  1  0
  2 34  1  0
  2 35  1  0
  3 36  1  0
  3 37  1  0
  5 38  1  0
  5 39  1  0
  6 40  1  0
  6 41  1  0
  9 42  1  0
 10 43  1  0
 14 44  1  0
 18 45  1  0
 19 46  1  0
 19 47  1  0
 22 48  1  0
 22 49  1  0
 23 50  1  0
 23 51  1  0
 24 52  1  0
 24 53  1  0
 25 54  1  0
 25 55  1  0
 26 56  1  0
 26 57  1  0
 27 58  1  0
 28 59  1  0
 29 60  1  0
 29 61  1  0
 30 62  1  0
 30 63  1  0
M  END
$$$$
