@<TRIPOS>MOLECULE
*****
 63 65 0 0 0
SMALL
GASTEIGER

@<TRIPOS>ATOM
      1 C           9.6567    0.4354   -0.3325 C.3     1  UNL1       -0.0641
      2 C           8.3939    0.8081   -1.1107 C.3     1  UNL1       -0.0431
      3 C           7.2556    1.1445   -0.1865 C.3     1  UNL1       -0.0012
      4 N           6.1035    1.4815   -0.9506 N.3     1  UNL1       -0.2994
      5 C           5.4802    0.4439   -1.6823 C.3     1  UNL1        0.0147
      6 C           4.2986   -0.2108   -1.0362 C.3     1  UNL1        0.0250
      7 N           3.4923    0.6385   -0.2082 N.pl3   1  UNL1       -0.3275
      8 C           2.0737    0.4772   -0.0604 C.ar    1  UNL1        0.0298
      9 C           1.3351   -0.2236   -0.9784 C.ar    1  UNL1       -0.0399
     10 C          -0.0500   -0.3924   -0.7890 C.ar    1  UNL1       -0.0479
     11 C          -0.7101    0.1130    0.2802 C.ar    1  UNL1        0.0368
     12 C          -2.1500   -0.0622    0.5367 C.2     1  UNL1        0.2449
     13 O          -2.6375    0.4125    1.5661 O.2     1  UNL1       -0.2702
     14 N          -2.9312   -0.7620   -0.3811 N.am    1  UNL1       -0.2974
     15 C          -4.3973   -0.9717   -0.1186 C.3     1  UNL1        0.1108
     16 C          -4.9997    0.3659   -0.0029 C.2     1  UNL1        0.2373
     17 O          -4.2897    1.3747   -0.3340 O.2     1  UNL1       -0.2734
     18 N          -6.2968    0.5743    0.4529 N.am    1  UNL1       -0.3007
     19 C          -6.8921    1.9092    0.5616 C.3     1  UNL1        0.0991
     20 C          -8.2724    1.7272    1.1371 C.1     1  UNL1        0.0815
     21 N          -9.2852    1.5751    1.5558 N.1     1  UNL1       -0.1949
     22 C          -4.5359   -1.7116    1.1608 C.3     1  UNL1       -0.0230
     23 C          -5.7359   -2.5413    1.3191 C.3     1  UNL1       -0.0507
     24 C          -6.5954   -2.9028    0.1873 C.3     1  UNL1       -0.0529
     25 C          -6.3588   -2.1659   -1.0931 C.3     1  UNL1       -0.0507
     26 C          -4.9624   -1.7173   -1.2693 C.3     1  UNL1       -0.0230
     27 C           0.0358    0.8319    1.2208 C.ar    1  UNL1       -0.0479
     28 C           1.4107    0.9958    1.0275 C.ar    1  UNL1       -0.0399
     29 C           4.1613    1.7093    0.5254 C.3     1  UNL1        0.0250
     30 C           5.1945    2.3833   -0.3129 C.3     1  UNL1        0.0147
     31 H           9.5206   -0.5078    0.2061 H       1  UNL1        0.0230
     32 H           9.8496    1.2389    0.4060 H       1  UNL1        0.0230
     33 H          10.4859    0.3524   -1.0510 H       1  UNL1        0.0230
     34 H           8.2044   -0.0356   -1.7928 H       1  UNL1        0.0275
     35 H           8.5966    1.7078   -1.7193 H       1  UNL1        0.0275
     36 H           7.0306    0.2129    0.4023 H       1  UNL1        0.0426
     37 H           7.5209    1.9104    0.5570 H       1  UNL1        0.0426
     38 H           6.2260   -0.3834   -1.8469 H       1  UNL1        0.0442
     39 H           5.2195    0.7579   -2.7361 H       1  UNL1        0.0442
     40 H           3.6866   -0.6365   -1.8559 H       1  UNL1        0.0476
     41 H           4.6141   -1.1081   -0.4356 H       1  UNL1        0.0476
     42 H           1.7612   -0.6611   -1.8592 H       1  UNL1        0.0636
     43 H          -0.6140   -0.9579   -1.5425 H       1  UNL1        0.0626
     44 H          -2.5640   -1.1528   -1.2437 H       1  UNL1        0.1500
     45 H          -6.9381   -0.2135    0.7612 H       1  UNL1        0.1497
     46 H          -6.9458    2.3915   -0.4143 H       1  UNL1        0.0620
     47 H          -6.3268    2.4615    1.3209 H       1  UNL1        0.0620
     48 H          -4.4832   -0.9885    2.0405 H       1  UNL1        0.0291
     49 H          -3.6465   -2.4238    1.2838 H       1  UNL1        0.0291
     50 H          -5.4516   -3.5574    1.8126 H       1  UNL1        0.0266
     51 H          -6.3666   -2.0644    2.1563 H       1  UNL1        0.0266
     52 H          -6.6336   -4.0164    0.0260 H       1  UNL1        0.0265
     53 H          -7.6695   -2.6650    0.4641 H       1  UNL1        0.0265
     54 H          -6.5542   -2.9222   -1.9156 H       1  UNL1        0.0266
     55 H          -7.1079   -1.3680   -1.3075 H       1  UNL1        0.0266
     56 H          -4.2863   -2.5866   -1.4684 H       1  UNL1        0.0291
     57 H          -4.9299   -1.1069   -2.2106 H       1  UNL1        0.0291
     58 H          -0.4179    1.2606    2.0858 H       1  UNL1        0.0626
     59 H           1.9873    1.5441    1.7595 H       1  UNL1        0.0636
     60 H           4.5416    1.2521    1.4418 H       1  UNL1        0.0476
     61 H           3.4108    2.5005    0.7843 H       1  UNL1        0.0476
     62 H           4.6931    2.9735   -1.1033 H       1  UNL1        0.0442
     63 H           5.7955    3.0521    0.3416 H       1  UNL1        0.0442
@<TRIPOS>BOND
     1     1     2    1
     2     2     3    1
     3     3     4    1
     4     4     5    1
     5     5     6    1
     6     6     7    1
     7     7     8    1
     8     8     9   ar
     9     9    10   ar
    10    10    11   ar
    11    11    12    1
    12    12    13    2
    13    12    14   am
    14    14    15    1
    15    15    16    1
    16    16    17    2
    17    16    18   am
    18    18    19    1
    19    19    20    1
    20    20    21    3
    21    15    22    1
    22    22    23    1
    23    23    24    1
    24    24    25    1
    25    25    26    1
    26    11    27   ar
    27    27    28   ar
    28     7    29    1
    29    29    30    1
    30    30     4    1
    31    28     8   ar
    32    26    15    1
    33     1    31    1
    34     1    32    1
    35     1    33    1
    36     2    34    1
    37     2    35    1
    38     3    36    1
    39     3    37    1
    40     5    38    1
    41     5    39    1
    42     6    40    1
    43     6    41    1
    44     9    42    1
    45    10    43    1
    46    14    44    1
    47    18    45    1
    48    19    46    1
    49    19    47    1
    50    22    48    1
    51    22    49    1
    52    23    50    1
    53    23    51    1
    54    24    52    1
    55    24    53    1
    56    25    54    1
    57    25    55    1
    58    26    56    1
    59    26    57    1
    60    27    58    1
    61    28    59    1
    62    29    60    1
    63    29    61    1
    64    30    62    1
    65    30    63    1
