@<TRIPOS>MOLECULE
*****
 62 65 0 0 0
SMALL
GASTEIGER

@<TRIPOS>ATOM
      1 C           1.4523    3.2557    1.7513 C.3     1  UNL1       -0.0421
      2 C           1.1558    2.3707    0.5875 C.3     1  UNL1        0.0515
      3 C           2.1914    1.2966    0.4246 C.ar    1  UNL1       -0.0271
      4 C           3.3723    1.5748   -0.2717 C.ar    1  UNL1       -0.0562
      5 C           4.3421    0.6197   -0.4535 C.ar    1  UNL1       -0.0523
      6 C           4.1989   -0.6566    0.0405 C.ar    1  UNL1        0.0004
      7 C           5.2650   -1.6499   -0.1779 C.ar    1  UNL1        0.0711
      8 C           5.2133   -2.9343    0.2719 C.ar    1  UNL1       -0.0330
      9 C           6.2822   -3.7823    0.0042 C.ar    1  UNL1       -0.0229
     10 C           7.3759   -3.3410   -0.7011 C.ar    1  UNL1        0.1414
     11 F           8.4226   -4.1880   -0.9578 F       1  UNL1       -0.2039
     12 C           7.3814   -2.0363   -1.1340 C.ar    1  UNL1        0.0634
     13 N           6.3472   -1.2449   -0.8655 N.ar    1  UNL1       -0.2521
     14 C           3.0439   -0.9443    0.7265 C.ar    1  UNL1       -0.0523
     15 C           2.0517    0.0351    0.9116 C.ar    1  UNL1       -0.0562
     16 N          -0.1934    1.9143    0.4820 N.am    1  UNL1       -0.2605
     17 C          -1.0232    2.1688   -0.6916 C.3     1  UNL1        0.0224
     18 C          -2.4356    1.8219   -0.4068 C.3     1  UNL1        0.0076
     19 C          -2.7622    0.5055    0.1986 C.3     1  UNL1        0.1440
     20 C          -2.9593   -0.6184   -0.7489 C.3     1  UNL1        0.0199
     21 C          -1.9049   -1.0462   -1.6618 C.3     1  UNL1        0.0645
     22 C          -0.6106   -1.4818   -1.0320 C.3     1  UNL1       -0.0362
     23 C          -2.4577   -2.3718   -2.2987 C.3     1  UNL1       -0.0362
     24 O          -1.6270   -0.2779   -2.7633 O.3     1  UNL1       -0.3890
     25 C          -4.1046    0.6465    0.8933 C.ar    1  UNL1       -0.0040
     26 C          -4.5738   -0.3516    1.7357 C.ar    1  UNL1       -0.0548
     27 C          -5.7785   -0.2822    2.3666 C.ar    1  UNL1       -0.0614
     28 C          -6.5970    0.8117    2.1860 C.ar    1  UNL1       -0.0617
     29 C          -6.1606    1.8166    1.3575 C.ar    1  UNL1       -0.0614
     30 C          -4.9161    1.7228    0.7182 C.ar    1  UNL1       -0.0548
     31 O          -1.7780    0.2066    1.1983 O.3     1  UNL1       -0.4387
     32 C          -0.7947    1.1579    1.5113 C.2     1  UNL1        0.4042
     33 O          -0.4713    1.3174    2.7052 O.2     1  UNL1       -0.2262
     34 H           0.7077    4.0787    1.7585 H       1  UNL1        0.0251
     35 H           2.4345    3.7410    1.5633 H       1  UNL1        0.0251
     36 H           1.4049    2.7669    2.7222 H       1  UNL1        0.0251
     37 H           1.3423    3.0302   -0.3528 H       1  UNL1        0.0549
     38 H           3.4707    2.5811   -0.6534 H       1  UNL1        0.0621
     39 H           5.2444    0.8588   -0.9943 H       1  UNL1        0.0624
     40 H           4.3490   -3.2885    0.8311 H       1  UNL1        0.0640
     41 H           6.2382   -4.8170    0.3679 H       1  UNL1        0.0647
     42 H           8.2461   -1.6834   -1.6930 H       1  UNL1        0.0859
     43 H           2.9072   -1.9385    1.1242 H       1  UNL1        0.0624
     44 H           1.1808   -0.2943    1.4569 H       1  UNL1        0.0621
     45 H          -1.0287    3.3099   -0.8309 H       1  UNL1        0.0467
     46 H          -0.5734    1.8139   -1.6097 H       1  UNL1        0.0467
     47 H          -3.0780    2.0504   -1.3054 H       1  UNL1        0.0322
     48 H          -2.7211    2.6062    0.3946 H       1  UNL1        0.0322
     49 H          -3.3503   -1.5470   -0.2192 H       1  UNL1        0.0335
     50 H          -3.8564   -0.3467   -1.3944 H       1  UNL1        0.0335
     51 H          -0.6817   -1.6833    0.0462 H       1  UNL1        0.0257
     52 H           0.1962   -0.7045   -1.1829 H       1  UNL1        0.0257
     53 H          -0.1834   -2.4021   -1.4932 H       1  UNL1        0.0257
     54 H          -3.2092   -2.0991   -3.0684 H       1  UNL1        0.0257
     55 H          -1.5997   -2.9410   -2.7081 H       1  UNL1        0.0257
     56 H          -2.8886   -2.9596   -1.4638 H       1  UNL1        0.0257
     57 H          -2.4911    0.0675   -3.1246 H       1  UNL1        0.2101
     58 H          -3.9524   -1.2171    1.8932 H       1  UNL1        0.0622
     59 H          -6.0930   -1.1023    3.0192 H       1  UNL1        0.0618
     60 H          -7.5756    0.8752    2.6947 H       1  UNL1        0.0618
     61 H          -6.7643    2.6813    1.1906 H       1  UNL1        0.0618
     62 H          -4.6226    2.5278    0.0689 H       1  UNL1        0.0622
@<TRIPOS>BOND
     1     1     2    1
     2     2     3    1
     3     3     4   ar
     4     4     5   ar
     5     5     6   ar
     6     6     7    1
     7     7     8   ar
     8     8     9   ar
     9     9    10   ar
    10    10    11    1
    11    10    12   ar
    12    12    13   ar
    13     6    14   ar
    14    14    15   ar
    15     2    16    1
    16    16    17    1
    17    17    18    1
    18    18    19    1
    19    19    20    1
    20    20    21    1
    21    21    22    1
    22    21    23    1
    23    21    24    1
    24    19    25    1
    25    25    26   ar
    26    26    27   ar
    27    27    28   ar
    28    28    29   ar
    29    29    30   ar
    30    19    31    1
    31    31    32    1
    32    32    33    2
    33    15     3   ar
    34    32    16   am
    35    13     7   ar
    36    30    25   ar
    37     1    34    1
    38     1    35    1
    39     1    36    1
    40     2    37    1
    41     4    38    1
    42     5    39    1
    43     8    40    1
    44     9    41    1
    45    12    42    1
    46    14    43    1
    47    15    44    1
    48    17    45    1
    49    17    46    1
    50    18    47    1
    51    18    48    1
    52    20    49    1
    53    20    50    1
    54    22    51    1
    55    22    52    1
    56    22    53    1
    57    23    54    1
    58    23    55    1
    59    23    56    1
    60    24    57    1
    61    26    58    1
    62    27    59    1
    63    28    60    1
    64    29    61    1
    65    30    62    1
