
     RDKit          3D

 62 65  0  0  0  0  0  0  0  0999 V2000
    1.4523    3.2557    1.7513 C   0  0  0  0  0  0  0  0  0  0  0  0
    1.1558    2.3707    0.5875 C   0  0  1  0  0  0  0  0  0  0  0  0
    2.1914    1.2966    0.4246 C   0  0  0  0  0  0  0  0  0  0  0  0
    3.3723    1.5748   -0.2717 C   0  0  0  0  0  0  0  0  0  0  0  0
    4.3421    0.6197   -0.4535 C   0  0  0  0  0  0  0  0  0  0  0  0
    4.1989   -0.6566    0.0405 C   0  0  0  0  0  0  0  0  0  0  0  0
    5.2650   -1.6499   -0.1779 C   0  0  0  0  0  0  0  0  0  0  0  0
    5.2133   -2.9343    0.2719 C   0  0  0  0  0  0  0  0  0  0  0  0
    6.2822   -3.7823    0.0042 C   0  0  0  0  0  0  0  0  0  0  0  0
    7.3759   -3.3410   -0.7011 C   0  0  0  0  0  0  0  0  0  0  0  0
    8.4226   -4.1880   -0.9578 F   0  0  0  0  0  0  0  0  0  0  0  0
    7.3814   -2.0363   -1.1340 C   0  0  0  0  0  0  0  0  0  0  0  0
    6.3472   -1.2449   -0.8655 N   0  0  0  0  0  0  0  0  0  0  0  0
    3.0439   -0.9443    0.7265 C   0  0  0  0  0  0  0  0  0  0  0  0
    2.0517    0.0351    0.9116 C   0  0  0  0  0  0  0  0  0  0  0  0
   -0.1934    1.9143    0.4820 N   0  0  0  0  0  0  0  0  0  0  0  0
   -1.0232    2.1688   -0.6916 C   0  0  0  0  0  0  0  0  0  0  0  0
   -2.4356    1.8219   -0.4068 C   0  0  0  0  0  0  0  0  0  0  0  0
   -2.7622    0.5055    0.1986 C   0  0  2  0  0  0  0  0  0  0  0  0
   -2.9593   -0.6184   -0.7489 C   0  0  0  0  0  0  0  0  0  0  0  0
   -1.9049   -1.0462   -1.6618 C   0  0  0  0  0  0  0  0  0  0  0  0
   -0.6106   -1.4818   -1.0320 C   0  0  0  0  0  0  0  0  0  0  0  0
   -2.4577   -2.3718   -2.2987 C   0  0  0  0  0  0  0  0  0  0  0  0
   -1.6270   -0.2779   -2.7633 O   0  0  0  0  0  0  0  0  0  0  0  0
   -4.1046    0.6465    0.8933 C   0  0  0  0  0  0  0  0  0  0  0  0
   -4.5738   -0.3516    1.7357 C   0  0  0  0  0  0  0  0  0  0  0  0
   -5.7785   -0.2822    2.3666 C   0  0  0  0  0  0  0  0  0  0  0  0
   -6.5970    0.8117    2.1860 C   0  0  0  0  0  0  0  0  0  0  0  0
   -6.1606    1.8166    1.3575 C   0  0  0  0  0  0  0  0  0  0  0  0
   -4.9161    1.7228    0.7182 C   0  0  0  0  0  0  0  0  0  0  0  0
   -1.7780    0.2066    1.1983 O   0  0  0  0  0  0  0  0  0  0  0  0
   -0.7947    1.1579    1.5113 C   0  0  0  0  0  0  0  0  0  0  0  0
   -0.4713    1.3174    2.7052 O   0  0  0  0  0  0  0  0  0  0  0  0
    0.7077    4.0787    1.7585 H   0  0  0  0  0  0  0  0  0  0  0  0
    2.4345    3.7410    1.5633 H   0  0  0  0  0  0  0  0  0  0  0  0
    1.4049    2.7669    2.7222 H   0  0  0  0  0  0  0  0  0  0  0  0
    1.3423    3.0302   -0.3528 H   0  0  0  0  0  0  0  0  0  0  0  0
    3.4707    2.5811   -0.6534 H   0  0  0  0  0  0  0  0  0  0  0  0
    5.2444    0.8588   -0.9943 H   0  0  0  0  0  0  0  0  0  0  0  0
    4.3490   -3.2885    0.8311 H   0  0  0  0  0  0  0  0  0  0  0  0
    6.2382   -4.8170    0.3679 H   0  0  0  0  0  0  0  0  0  0  0  0
    8.2461   -1.6834   -1.6930 H   0  0  0  0  0  0  0  0  0  0  0  0
    2.9072   -1.9385    1.1242 H   0  0  0  0  0  0  0  0  0  0  0  0
    1.1808   -0.2943    1.4569 H   0  0  0  0  0  0  0  0  0  0  0  0
   -1.0287    3.3099   -0.8309 H   0  0  0  0  0  0  0  0  0  0  0  0
   -0.5734    1.8139   -1.6097 H   0  0  0  0  0  0  0  0  0  0  0  0
   -3.0780    2.0504   -1.3054 H   0  0  0  0  0  0  0  0  0  0  0  0
   -2.7211    2.6062    0.3946 H   0  0  0  0  0  0  0  0  0  0  0  0
   -3.3503   -1.5470   -0.2192 H   0  0  0  0  0  0  0  0  0  0  0  0
   -3.8564   -0.3467   -1.3944 H   0  0  0  0  0  0  0  0  0  0  0  0
   -0.6817   -1.6833    0.0462 H   0  0  0  0  0  0  0  0  0  0  0  0
    0.1962   -0.7045   -1.1829 H   0  0  0  0  0  0  0  0  0  0  0  0
   -0.1834   -2.4021   -1.4932 H   0  0  0  0  0  0  0  0  0  0  0  0
   -3.2092   -2.0991   -3.0684 H   0  0  0  0  0  0  0  0  0  0  0  0
   -1.5997   -2.9410   -2.7081 H   0  0  0  0  0  0  0  0  0  0  0  0
   -2.8886   -2.9596   -1.4638 H   0  0  0  0  0  0  0  0  0  0  0  0
   -2.4911    0.0675   -3.1246 H   0  0  0  0  0  0  0  0  0  0  0  0
   -3.9524   -1.2171    1.8932 H   0  0  0  0  0  0  0  0  0  0  0  0
   -6.0930   -1.1023    3.0192 H   0  0  0  0  0  0  0  0  0  0  0  0
   -7.5756    0.8752    2.6947 H   0  0  0  0  0  0  0  0  0  0  0  0
   -6.7643    2.6813    1.1906 H   0  0  0  0  0  0  0  0  0  0  0  0
   -4.6226    2.5278    0.0689 H   0  0  0  0  0  0  0  0  0  0  0  0
  1  2  1  0
  2  3  1  0
  3  4  2  0
  4  5  1  0
  5  6  2  0
  6  7  1  0
  7  8  2  0
  8  9  1  0
  9 10  2  0
 10 11  1  0
 10 12  1  0
 12 13  2  0
  6 14  1  0
 14 15  2  0
  2 16  1  0
 16 17  1  0
 17 18  1  0
 18 19  1  0
 19 20  1  6
 20 21  1  0
 21 22  1  0
 21 23  1  0
 21 24  1  0
 19 25  1  0
 25 26  2  0
 26 27  1  0
 27 28  2  0
 28 29  1  0
 29 30  2  0
 19 31  1  0
 31 32  1  0
 32 33  2  0
 15  3  1  0
 32 16  1  0
 13  7  1  0
 30 25  1  0
  1 34  1  0
  1 35  1  0
  1 36  1  0
  2 37  1  6
  4 38  1  0
  5 39  1  0
  8 40  1  0
  9 41  1  0
 12 42  1  0
 14 43  1  0
 15 44  1  0
 17 45  1  0
 17 46  1  0
 18 47  1  0
 18 48  1  0
 20 49  1  0
 20 50  1  0
 22 51  1  0
 22 52  1  0
 22 53  1  0
 23 54  1  0
 23 55  1  0
 23 56  1  0
 24 57  1  0
 26 58  1  0
 27 59  1  0
 28 60  1  0
 29 61  1  0
 30 62  1  0
M  END
$$$$
