@<TRIPOS>MOLECULE
*****
 25 26 0 0 0
SMALL
GASTEIGER

@<TRIPOS>ATOM
      1 O           2.0418   -0.0610   -1.6811 O.2     1  UNL1       -0.2657
      2 C           2.5584   -0.1895   -0.5335 C.2     1  UNL1        0.3215
      3 N           1.7221   -0.2564    0.5879 N.am    1  UNL1       -0.2771
      4 C           0.3092   -0.1820    0.4517 C.ar    1  UNL1        0.0496
      5 C          -0.4250   -1.3417    0.2758 C.ar    1  UNL1       -0.0277
      6 C          -1.7949   -1.3370    0.1379 C.ar    1  UNL1        0.0577
      7 C          -2.5835   -2.5876   -0.0515 C.3     1  UNL1        0.4175
      8 F          -1.8113   -3.5061   -0.7216 F       1  UNL1       -0.1659
      9 F          -2.9830   -3.0365    1.1937 F       1  UNL1       -0.1659
     10 F          -3.6908   -2.2609   -0.7944 F       1  UNL1       -0.1659
     11 C          -2.4546   -0.1358    0.1767 C.ar    1  UNL1       -0.0346
     12 C          -1.7808    1.0563    0.3493 C.ar    1  UNL1        0.0360
     13 C          -0.4122    0.9916    0.4819 C.ar    1  UNL1        0.0549
     14 S           0.6762    2.3807    0.7137 S.3     1  UNL1       -0.0420
     15 S           0.7935    3.5419   -1.0535 S.3     1  UNL1       -0.0070
     16 S          -0.9398    4.7583   -1.3082 S.3     1  UNL1       -0.0009
     17 S          -2.6532    3.5287   -1.4537 S.3     1  UNL1       -0.0070
     18 S          -2.8929    2.4705    0.3612 S.3     1  UNL1       -0.0438
     19 C           4.0308   -0.2690   -0.3705 C.3     1  UNL1        0.4697
     20 F           4.6786   -0.1847   -1.5895 F       1  UNL1       -0.1620
     21 F           4.3979   -1.4228    0.2709 F       1  UNL1       -0.1620
     22 F           4.4796    0.7894    0.3927 F       1  UNL1       -0.1620
     23 H           2.1820   -0.3644    1.5401 H       1  UNL1        0.1551
     24 H           0.0833   -2.3131    0.2419 H       1  UNL1        0.0642
     25 H          -3.5313   -0.0687    0.0738 H       1  UNL1        0.0635
@<TRIPOS>BOND
     1     1     2    2
     2     2     3   am
     3     3     4    1
     4     4     5   ar
     5     5     6   ar
     6     6     7    1
     7     7     8    1
     8     7     9    1
     9     7    10    1
    10     6    11   ar
    11    11    12   ar
    12    12    13   ar
    13    13    14    1
    14    14    15    1
    15    15    16    1
    16    16    17    1
    17    17    18    1
    18     2    19    1
    19    19    20    1
    20    19    21    1
    21    19    22    1
    22    13     4   ar
    23    18    12    1
    24     3    23    1
    25     5    24    1
    26    11    25    1
