
     RDKit          3D

 83 87  0  0  0  0  0  0  0  0999 V2000
   -3.3626   -0.4771    4.1638 C   0  0  0  0  0  0  0  0  0  0  0  0
   -4.1786   -1.2293    3.1272 C   0  0  0  0  0  0  0  0  0  0  0  0
   -5.1522   -0.2857    2.5922 N   0  0  0  0  0  0  0  0  0  0  0  0
   -6.0034   -0.9139    1.5810 C   0  0  0  0  0  0  0  0  0  0  0  0
   -5.2237   -1.3826    0.4095 C   0  0  0  0  0  0  0  0  0  0  0  0
   -4.6497   -2.6293    0.3549 C   0  0  0  0  0  0  0  0  0  0  0  0
   -3.9338   -3.0211   -0.7512 C   0  0  0  0  0  0  0  0  0  0  0  0
   -3.7776   -2.1623   -1.8357 C   0  0  0  0  0  0  0  0  0  0  0  0
   -2.8640   -2.6684   -3.2474 Cl  0  0  0  0  0  0  0  0  0  0  0  0
   -4.3459   -0.9166   -1.7938 C   0  0  0  0  0  0  0  0  0  0  0  0
   -4.1783    0.0046   -2.9367 C   0  0  0  0  0  0  0  0  0  0  0  0
   -4.2465    1.3698   -2.4763 N   0  0  0  0  0  0  0  0  0  0  0  0
   -3.0835    2.0436   -2.0686 C   0  0  0  0  0  0  0  0  0  0  0  0
   -3.2097    3.2263   -1.5995 O   0  0  0  0  0  0  0  0  0  0  0  0
   -1.6985    1.5326   -2.1186 C   0  0  1  0  0  0  0  0  0  0  0  0
   -1.1141    1.5979   -3.4902 C   0  0  0  0  0  0  0  0  0  0  0  0
   -0.5614    2.8574   -3.8495 N   0  0  0  0  0  0  0  0  0  0  0  0
   -0.5902    3.9017   -2.9076 C   0  0  0  0  0  0  0  0  0  0  0  0
   -0.5010    3.5854   -1.4676 C   0  0  0  0  0  0  0  0  0  0  0  0
   -0.8760    2.1999   -1.0720 C   0  0  2  0  0  0  0  0  0  0  0  0
    0.3009    1.3845   -0.6488 C   0  0  0  0  0  0  0  0  0  0  0  0
    1.4393    1.4431   -1.4100 C   0  0  0  0  0  0  0  0  0  0  0  0
    2.5625    0.6909   -1.0663 C   0  0  0  0  0  0  0  0  0  0  0  0
    2.5469   -0.1224    0.0428 C   0  0  0  0  0  0  0  0  0  0  0  0
    3.7148   -0.8553    0.3333 O   0  0  0  0  0  0  0  0  0  0  0  0
    4.8562   -0.7530   -0.4889 C   0  0  0  0  0  0  0  0  0  0  0  0
    5.9771   -1.6318    0.0271 C   0  0  0  0  0  0  0  0  0  0  0  0
    6.2682   -1.1859    1.3248 O   0  0  0  0  0  0  0  0  0  0  0  0
    7.2464   -1.7064    2.1531 C   0  0  0  0  0  0  0  0  0  0  0  0
    6.9792   -2.7631    3.0037 C   0  0  0  0  0  0  0  0  0  0  0  0
    5.3570   -3.4416    3.0162 Cl  0  0  0  0  0  0  0  0  0  0  0  0
    7.9945   -3.2136    3.7846 C   0  0  0  0  0  0  0  0  0  0  0  0
    9.2817   -2.6841    3.7858 C   0  0  0  0  0  0  0  0  0  0  0  0
   10.3365   -3.2468    4.6845 C   0  0  0  0  0  0  0  0  0  0  0  0
    9.5202   -1.6280    2.9254 C   0  0  0  0  0  0  0  0  0  0  0  0
    8.4958   -1.1488    2.1145 C   0  0  0  0  0  0  0  0  0  0  0  0
    8.9044    0.1929    1.0648 Cl  0  0  0  0  0  0  0  0  0  0  0  0
    1.4106   -0.1923    0.8190 C   0  0  0  0  0  0  0  0  0  0  0  0
    0.2808    0.5647    0.4725 C   0  0  0  0  0  0  0  0  0  0  0  0
   -5.5604    1.9858   -2.4837 C   0  0  0  0  0  0  0  0  0  0  0  0
   -5.6954    3.4366   -2.9345 C   0  0  0  0  0  0  0  0  0  0  0  0
   -5.9486    3.0523   -1.5378 C   0  0  0  0  0  0  0  0  0  0  0  0
   -5.0559   -0.5330   -0.6923 C   0  0  0  0  0  0  0  0  0  0  0  0
   -2.2991   -0.8332    4.0535 H   0  0  0  0  0  0  0  0  0  0  0  0
   -3.4454    0.6135    4.0417 H   0  0  0  0  0  0  0  0  0  0  0  0
   -3.7393   -0.7118    5.1880 H   0  0  0  0  0  0  0  0  0  0  0  0
   -4.7237   -2.0689    3.6072 H   0  0  0  0  0  0  0  0  0  0  0  0
   -3.5231   -1.6426    2.3490 H   0  0  0  0  0  0  0  0  0  0  0  0
   -4.6255    0.5275    2.2393 H   0  0  0  0  0  0  0  0  0  0  0  0
   -6.6951   -0.1160    1.2221 H   0  0  0  0  0  0  0  0  0  0  0  0
   -6.5856   -1.7219    2.0415 H   0  0  0  0  0  0  0  0  0  0  0  0
   -4.7546   -3.3327    1.1872 H   0  0  0  0  0  0  0  0  0  0  0  0
   -3.4759   -4.0056   -0.8066 H   0  0  0  0  0  0  0  0  0  0  0  0
   -5.0022   -0.1453   -3.6874 H   0  0  0  0  0  0  0  0  0  0  0  0
   -3.2582   -0.2762   -3.4520 H   0  0  0  0  0  0  0  0  0  0  0  0
   -1.7736    0.4234   -1.8549 H   0  0  0  0  0  0  0  0  0  0  0  0
   -1.8470    1.3090   -4.2800 H   0  0  0  0  0  0  0  0  0  0  0  0
   -0.2799    0.8438   -3.6245 H   0  0  0  0  0  0  0  0  0  0  0  0
   -0.9716    3.1804   -4.7466 H   0  0  0  0  0  0  0  0  0  0  0  0
    0.3159    4.5679   -3.1385 H   0  0  0  0  0  0  0  0  0  0  0  0
   -1.4629    4.5701   -3.1637 H   0  0  0  0  0  0  0  0  0  0  0  0
   -1.2390    4.2777   -0.9437 H   0  0  0  0  0  0  0  0  0  0  0  0
    0.4917    3.8873   -1.0248 H   0  0  0  0  0  0  0  0  0  0  0  0
   -1.5370    2.2315   -0.1428 H   0  0  0  0  0  0  0  0  0  0  0  0
    1.5360    2.0661   -2.3026 H   0  0  0  0  0  0  0  0  0  0  0  0
    3.4693    0.7331   -1.6683 H   0  0  0  0  0  0  0  0  0  0  0  0
    5.2002    0.3146   -0.4689 H   0  0  0  0  0  0  0  0  0  0  0  0
    4.6236   -0.9502   -1.5614 H   0  0  0  0  0  0  0  0  0  0  0  0
    5.7973   -2.7001   -0.0787 H   0  0  0  0  0  0  0  0  0  0  0  0
    6.8934   -1.4053   -0.5909 H   0  0  0  0  0  0  0  0  0  0  0  0
    7.7843   -4.0439    4.4507 H   0  0  0  0  0  0  0  0  0  0  0  0
   11.2662   -2.6801    4.4676 H   0  0  0  0  0  0  0  0  0  0  0  0
   10.0337   -2.9955    5.7185 H   0  0  0  0  0  0  0  0  0  0  0  0
   10.4618   -4.3376    4.5401 H   0  0  0  0  0  0  0  0  0  0  0  0
   10.5070   -1.2021    2.9108 H   0  0  0  0  0  0  0  0  0  0  0  0
    1.3973   -0.8352    1.6935 H   0  0  0  0  0  0  0  0  0  0  0  0
   -0.6192    0.5323    1.0559 H   0  0  0  0  0  0  0  0  0  0  0  0
   -6.4168    1.3347   -2.8380 H   0  0  0  0  0  0  0  0  0  0  0  0
   -4.7436    3.9520   -3.1647 H   0  0  0  0  0  0  0  0  0  0  0  0
   -6.5517    3.6855   -3.6062 H   0  0  0  0  0  0  0  0  0  0  0  0
   -7.0391    3.1101   -1.2240 H   0  0  0  0  0  0  0  0  0  0  0  0
   -5.3019    3.3575   -0.7096 H   0  0  0  0  0  0  0  0  0  0  0  0
   -5.5290    0.4273   -0.5916 H   0  0  0  0  0  0  0  0  0  0  0  0
  1  2  1  0
  2  3  1  0
  3  4  1  0
  4  5  1  0
  5  6  2  0
  6  7  1  0
  7  8  2  0
  8  9  1  0
  8 10  1  0
 10 11  1  0
 11 12  1  0
 12 13  1  0
 13 14  2  0
 13 15  1  0
 15 16  1  0
 16 17  1  0
 17 18  1  0
 18 19  1  0
 19 20  1  0
 20 21  1  0
 21 22  2  0
 22 23  1  0
 23 24  2  0
 24 25  1  0
 25 26  1  0
 26 27  1  0
 27 28  1  0
 28 29  1  0
 29 30  2  0
 30 31  1  0
 30 32  1  0
 32 33  2  0
 33 34  1  0
 33 35  1  0
 35 36  2  0
 36 37  1  0
 24 38  1  0
 38 39  2  0
 12 40  1  0
 40 41  1  0
 41 42  1  0
 10 43  2  0
 43  5  1  0
 20 15  1  0
 39 21  1  0
 42 40  1  0
 36 29  1  0
  1 44  1  0
  1 45  1  0
  1 46  1  0
  2 47  1  0
  2 48  1  0
  3 49  1  0
  4 50  1  0
  4 51  1  0
  6 52  1  0
  7 53  1  0
 11 54  1  0
 11 55  1  0
 15 56  1  1
 16 57  1  0
 16 58  1  0
 17 59  1  0
 18 60  1  0
 18 61  1  0
 19 62  1  0
 19 63  1  0
 20 64  1  1
 22 65  1  0
 23 66  1  0
 26 67  1  0
 26 68  1  0
 27 69  1  0
 27 70  1  0
 32 71  1  0
 34 72  1  0
 34 73  1  0
 34 74  1  0
 35 75  1  0
 38 76  1  0
 39 77  1  0
 40 78  1  0
 41 79  1  0
 41 80  1  0
 42 81  1  0
 42 82  1  0
 43 83  1  0
M  END
$$$$
