@<TRIPOS>MOLECULE
*****
 83 87 0 0 0
SMALL
GASTEIGER

@<TRIPOS>ATOM
      1 C          -3.3626   -0.4771    4.1638 C.3     1  UNL1       -0.0526
      2 C          -4.1786   -1.2293    3.1272 C.3     1  UNL1       -0.0066
      3 N          -5.1522   -0.2857    2.5922 N.3     1  UNL1       -0.3123
      4 C          -6.0034   -0.9139    1.5810 C.3     1  UNL1        0.0212
      5 C          -5.2237   -1.3826    0.4095 C.ar    1  UNL1       -0.0332
      6 C          -4.6497   -2.6293    0.3549 C.ar    1  UNL1       -0.0560
      7 C          -3.9338   -3.0211   -0.7512 C.ar    1  UNL1       -0.0428
      8 C          -3.7776   -2.1623   -1.8357 C.ar    1  UNL1        0.0457
      9 CL         -2.8640   -2.6684   -3.2474 Cl      1  UNL1       -0.0832
     10 C          -4.3459   -0.9166   -1.7938 C.ar    1  UNL1       -0.0115
     11 C          -4.1783    0.0046   -2.9367 C.3     1  UNL1        0.0414
     12 N          -4.2465    1.3698   -2.4763 N.am    1  UNL1       -0.2938
     13 C          -3.0835    2.0436   -2.0686 C.2     1  UNL1        0.2210
     14 O          -3.2097    3.2263   -1.5995 O.2     1  UNL1       -0.2752
     15 C          -1.6985    1.5326   -2.1186 C.3     1  UNL1        0.0550
     16 C          -1.1141    1.5979   -3.4902 C.3     1  UNL1        0.0076
     17 N          -0.5614    2.8574   -3.8495 N.3     1  UNL1       -0.3152
     18 C          -0.5902    3.9017   -2.9076 C.3     1  UNL1       -0.0035
     19 C          -0.5010    3.5854   -1.4676 C.3     1  UNL1       -0.0329
     20 C          -0.8760    2.1999   -1.0720 C.3     1  UNL1       -0.0024
     21 C           0.3009    1.3845   -0.6488 C.ar    1  UNL1       -0.0432
     22 C           1.4393    1.4431   -1.4100 C.ar    1  UNL1       -0.0548
     23 C           2.5625    0.6909   -1.0663 C.ar    1  UNL1       -0.0197
     24 C           2.5469   -0.1224    0.0428 C.ar    1  UNL1        0.1207
     25 O           3.7148   -0.8553    0.3333 O.3     1  UNL1       -0.4886
     26 C           4.8562   -0.7530   -0.4889 C.3     1  UNL1        0.1235
     27 C           5.9771   -1.6318    0.0271 C.3     1  UNL1        0.1236
     28 O           6.2682   -1.1859    1.3248 O.3     1  UNL1       -0.4857
     29 C           7.2464   -1.7064    2.1531 C.ar    1  UNL1        0.1571
     30 C           6.9792   -2.7631    3.0037 C.ar    1  UNL1        0.0842
     31 CL          5.3570   -3.4416    3.0162 Cl      1  UNL1       -0.0797
     32 C           7.9945   -3.2136    3.7846 C.ar    1  UNL1       -0.0368
     33 C           9.2817   -2.6841    3.7858 C.ar    1  UNL1       -0.0475
     34 C          10.3365   -3.2468    4.6845 C.3     1  UNL1       -0.0396
     35 C           9.5202   -1.6280    2.9254 C.ar    1  UNL1       -0.0368
     36 C           8.4958   -1.1488    2.1145 C.ar    1  UNL1        0.0842
     37 CL          8.9044    0.1929    1.0648 Cl      1  UNL1       -0.0797
     38 C           1.4106   -0.1923    0.8190 C.ar    1  UNL1       -0.0197
     39 C           0.2808    0.5647    0.4725 C.ar    1  UNL1       -0.0548
     40 C          -5.5604    1.9858   -2.4837 C.3     1  UNL1        0.0265
     41 C          -5.6954    3.4366   -2.9345 C.3     1  UNL1       -0.0326
     42 C          -5.9486    3.0523   -1.5378 C.3     1  UNL1       -0.0326
     43 C          -5.0559   -0.5330   -0.6923 C.ar    1  UNL1       -0.0513
     44 H          -2.2991   -0.8332    4.0535 H       1  UNL1        0.0242
     45 H          -3.4454    0.6135    4.0417 H       1  UNL1        0.0242
     46 H          -3.7393   -0.7118    5.1880 H       1  UNL1        0.0242
     47 H          -4.7237   -2.0689    3.6072 H       1  UNL1        0.0421
     48 H          -3.5231   -1.6426    2.3490 H       1  UNL1        0.0421
     49 H          -4.6255    0.5275    2.2393 H       1  UNL1        0.1222
     50 H          -6.6951   -0.1160    1.2221 H       1  UNL1        0.0473
     51 H          -6.5856   -1.7219    2.0415 H       1  UNL1        0.0473
     52 H          -4.7546   -3.3327    1.1872 H       1  UNL1        0.0621
     53 H          -3.4759   -4.0056   -0.8066 H       1  UNL1        0.0632
     54 H          -5.0022   -0.1453   -3.6874 H       1  UNL1        0.0514
     55 H          -3.2582   -0.2762   -3.4520 H       1  UNL1        0.0514
     56 H          -1.7736    0.4234   -1.8549 H       1  UNL1        0.0413
     57 H          -1.8470    1.3090   -4.2800 H       1  UNL1        0.0432
     58 H          -0.2799    0.8438   -3.6245 H       1  UNL1        0.0432
     59 H          -0.9716    3.1804   -4.7466 H       1  UNL1        0.1220
     60 H           0.3159    4.5679   -3.1385 H       1  UNL1        0.0424
     61 H          -1.4629    4.5701   -3.1637 H       1  UNL1        0.0424
     62 H          -1.2390    4.2777   -0.9437 H       1  UNL1        0.0283
     63 H           0.4917    3.8873   -1.0248 H       1  UNL1        0.0283
     64 H          -1.5370    2.2315   -0.1428 H       1  UNL1        0.0357
     65 H           1.5360    2.0661   -2.3026 H       1  UNL1        0.0622
     66 H           3.4693    0.7331   -1.6683 H       1  UNL1        0.0654
     67 H           5.2002    0.3146   -0.4689 H       1  UNL1        0.0731
     68 H           4.6236   -0.9502   -1.5614 H       1  UNL1        0.0731
     69 H           5.7973   -2.7001   -0.0787 H       1  UNL1        0.0731
     70 H           6.8934   -1.4053   -0.5909 H       1  UNL1        0.0731
     71 H           7.7843   -4.0439    4.4507 H       1  UNL1        0.0636
     72 H          11.2662   -2.6801    4.4676 H       1  UNL1        0.0278
     73 H          10.0337   -2.9955    5.7185 H       1  UNL1        0.0278
     74 H          10.4618   -4.3376    4.5401 H       1  UNL1        0.0278
     75 H          10.5070   -1.2021    2.9108 H       1  UNL1        0.0636
     76 H           1.3973   -0.8352    1.6935 H       1  UNL1        0.0654
     77 H          -0.6192    0.5323    1.0559 H       1  UNL1        0.0622
     78 H          -6.4168    1.3347   -2.8380 H       1  UNL1        0.0500
     79 H          -4.7436    3.9520   -3.1647 H       1  UNL1        0.0284
     80 H          -6.5517    3.6855   -3.6062 H       1  UNL1        0.0284
     81 H          -7.0391    3.1101   -1.2240 H       1  UNL1        0.0284
     82 H          -5.3019    3.3575   -0.7096 H       1  UNL1        0.0284
     83 H          -5.5290    0.4273   -0.5916 H       1  UNL1        0.0624
@<TRIPOS>BOND
     1     1     2    1
     2     2     3    1
     3     3     4    1
     4     4     5    1
     5     5     6   ar
     6     6     7   ar
     7     7     8   ar
     8     8     9    1
     9     8    10   ar
    10    10    11    1
    11    11    12    1
    12    12    13   am
    13    13    14    2
    14    13    15    1
    15    15    16    1
    16    16    17    1
    17    17    18    1
    18    18    19    1
    19    19    20    1
    20    20    21    1
    21    21    22   ar
    22    22    23   ar
    23    23    24   ar
    24    24    25    1
    25    25    26    1
    26    26    27    1
    27    27    28    1
    28    28    29    1
    29    29    30   ar
    30    30    31    1
    31    30    32   ar
    32    32    33   ar
    33    33    34    1
    34    33    35   ar
    35    35    36   ar
    36    36    37    1
    37    24    38   ar
    38    38    39   ar
    39    12    40    1
    40    40    41    1
    41    41    42    1
    42    10    43   ar
    43    43     5   ar
    44    20    15    1
    45    39    21   ar
    46    42    40    1
    47    36    29   ar
    48     1    44    1
    49     1    45    1
    50     1    46    1
    51     2    47    1
    52     2    48    1
    53     3    49    1
    54     4    50    1
    55     4    51    1
    56     6    52    1
    57     7    53    1
    58    11    54    1
    59    11    55    1
    60    15    56    1
    61    16    57    1
    62    16    58    1
    63    17    59    1
    64    18    60    1
    65    18    61    1
    66    19    62    1
    67    19    63    1
    68    20    64    1
    69    22    65    1
    70    23    66    1
    71    26    67    1
    72    26    68    1
    73    27    69    1
    74    27    70    1
    75    32    71    1
    76    34    72    1
    77    34    73    1
    78    34    74    1
    79    35    75    1
    80    38    76    1
    81    39    77    1
    82    40    78    1
    83    41    79    1
    84    41    80    1
    85    42    81    1
    86    42    82    1
    87    43    83    1
