@<TRIPOS>MOLECULE
*****
 54 58 0 0 0
SMALL
GASTEIGER

@<TRIPOS>ATOM
      1 N          -7.4888   -0.9475    1.1450 N.pl3   1  UNL1       -0.3134
      2 C          -6.3021   -0.1969    1.0171 C.2     1  UNL1        0.2764
      3 N          -6.1749    0.6843    0.0904 N.2     1  UNL1       -0.2194
      4 C          -4.9779    1.4506   -0.0501 C.3     1  UNL1        0.1603
      5 C          -3.9821    0.6947   -0.8857 C.ar    1  UNL1        0.0228
      6 C          -2.7577    0.3927   -0.3630 C.ar    1  UNL1       -0.0321
      7 C          -1.7529   -0.2932   -1.0698 C.ar    1  UNL1        0.0342
      8 N          -0.5395   -0.5522   -0.4091 N.am    1  UNL1       -0.2802
      9 C           0.5821   -1.1325   -0.9997 C.2     1  UNL1        0.2681
     10 O           0.6246   -1.4793   -2.1922 O.2     1  UNL1       -0.2681
     11 C           1.8086   -1.3665   -0.2058 C.ar    1  UNL1        0.1439
     12 C           2.9385   -1.9111   -0.7672 C.ar    1  UNL1        0.0619
     13 N           4.0687   -2.1281   -0.0443 N.ar    1  UNL1       -0.2177
     14 C           4.1065   -1.8122    1.2475 C.ar    1  UNL1        0.2344
     15 O           5.2294   -2.0120    2.0324 O.3     1  UNL1       -0.4624
     16 C           6.4286   -2.5693    1.4953 C.3     1  UNL1        0.1516
     17 C           6.8553   -1.6162    0.4423 C.1     1  UNL1       -0.0611
     18 C           7.2171   -0.8251   -0.4293 C.1     1  UNL1       -0.0955
     19 C           7.6663    0.0959   -1.4579 C.3     1  UNL1        0.0208
     20 C           7.9265    1.5142   -1.1054 C.3     1  UNL1       -0.0382
     21 C           9.1096    0.6337   -1.3661 C.3     1  UNL1       -0.0382
     22 C           2.9739   -1.2583    1.8419 C.ar    1  UNL1        0.0899
     23 N           1.8729   -1.0561    1.1009 N.ar    1  UNL1       -0.2435
     24 C          -2.0468   -0.6657   -2.3498 C.ar    1  UNL1       -0.0377
     25 C          -3.2929   -0.3736   -2.9211 C.ar    1  UNL1       -0.0243
     26 C          -4.2369    0.3017   -2.1757 C.ar    1  UNL1        0.1292
     27 F          -5.4393    0.5692   -2.7427 F       1  UNL1       -0.2051
     28 C          -5.3488    2.7575   -0.7610 C.3     1  UNL1        0.2686
     29 F          -4.1996    3.4907   -0.9003 F       1  UNL1       -0.2062
     30 F          -6.1775    3.4522    0.1130 F       1  UNL1       -0.2062
     31 C          -4.3137    1.8284    1.2553 C.3     1  UNL1        0.0344
     32 C          -5.0657    2.0811    2.4828 C.3     1  UNL1       -0.0064
     33 C          -4.3893    0.7482    2.2322 C.3     1  UNL1        0.1091
     34 O          -5.2012   -0.3447    1.8615 O.2     1  UNL1       -0.4622
     35 H          -8.3022   -0.5355    1.6229 H       1  UNL1        0.1466
     36 H          -7.5402   -1.9011    0.7622 H       1  UNL1        0.1466
     37 H          -2.5197    0.6818    0.6396 H       1  UNL1        0.0640
     38 H          -0.4292   -0.3017    0.6245 H       1  UNL1        0.1552
     39 H           2.9404   -2.1758   -1.8013 H       1  UNL1        0.0854
     40 H           6.1628   -3.5454    1.0576 H       1  UNL1        0.0837
     41 H           7.1956   -2.6957    2.2603 H       1  UNL1        0.0837
     42 H           7.2563   -0.1091   -2.4708 H       1  UNL1        0.0433
     43 H           7.7240    1.8656   -0.0769 H       1  UNL1        0.0277
     44 H           7.7636    2.2946   -1.8785 H       1  UNL1        0.0277
     45 H           9.6903    0.2333   -0.5064 H       1  UNL1        0.0277
     46 H           9.6409    0.6776   -2.3269 H       1  UNL1        0.0277
     47 H           3.0338   -1.0112    2.8980 H       1  UNL1        0.0884
     48 H          -1.3454   -1.1925   -2.9574 H       1  UNL1        0.0637
     49 H          -3.4511   -0.6996   -3.9314 H       1  UNL1        0.0647
     50 H          -5.8512    2.5225   -1.6938 H       1  UNL1        0.1047
     51 H          -3.4100    2.4480    1.1035 H       1  UNL1        0.0366
     52 H          -6.1660    2.1177    2.4507 H       1  UNL1        0.0306
     53 H          -4.6084    2.6970    3.2629 H       1  UNL1        0.0306
     54 H          -3.5054    0.4751    2.8163 H       1  UNL1        0.0737
@<TRIPOS>BOND
     1     1     2    1
     2     2     3    2
     3     3     4    1
     4     4     5    1
     5     5     6   ar
     6     6     7   ar
     7     7     8    1
     8     8     9   am
     9     9    10    2
    10     9    11    1
    11    11    12   ar
    12    12    13   ar
    13    13    14   ar
    14    14    15    1
    15    15    16    1
    16    16    17    1
    17    17    18    3
    18    18    19    1
    19    19    20    1
    20    20    21    1
    21    14    22   ar
    22    22    23   ar
    23     7    24   ar
    24    24    25   ar
    25    25    26   ar
    26    26    27    1
    27     4    28    1
    28    28    29    1
    29    28    30    1
    30     4    31    1
    31    31    32    1
    32    32    33    1
    33    33    34    1
    34    34     2    1
    35    26     5   ar
    36    33    31    1
    37    23    11   ar
    38    21    19    1
    39     1    35    1
    40     1    36    1
    41     6    37    1
    42     8    38    1
    43    12    39    1
    44    16    40    1
    45    16    41    1
    46    19    42    1
    47    20    43    1
    48    20    44    1
    49    21    45    1
    50    21    46    1
    51    22    47    1
    52    24    48    1
    53    25    49    1
    54    28    50    1
    55    31    51    1
    56    32    52    1
    57    32    53    1
    58    33    54    1
