@<TRIPOS>MOLECULE
*****
 45 48 0 0 0
SMALL
GASTEIGER

@<TRIPOS>ATOM
      1 CL          8.1711    3.6691   -0.4447 Cl      1  UNL1       -0.0758
      2 C           6.8854    2.3230   -0.4385 C.ar    1  UNL1        0.0786
      3 C           5.9580    2.1573   -1.6023 C.ar    1  UNL1       -0.0356
      4 C           5.0811    1.1322   -1.4429 C.ar    1  UNL1       -0.0460
      5 C           5.0779    0.3726   -0.3456 C.ar    1  UNL1        0.0149
      6 S           6.3835    0.9622    0.7758 S.2     1  UNL1       -0.0773
      7 C           4.2514   -0.7417    0.0187 C.2     1  UNL1       -0.0289
      8 C           3.3279   -1.1144   -0.8409 C.2     1  UNL1        0.0704
      9 S           2.2701   -2.4522   -0.5030 S.O2    1  UNL1        0.0546
     10 O           2.9184   -3.2819    0.5954 O.2     1  UNL1       -0.1534
     11 O           2.0768   -3.2627   -1.7289 O.2     1  UNL1       -0.1534
     12 N           0.7613   -1.9048    0.1550 N.3     1  UNL1       -0.1668
     13 C           0.1315   -1.0741   -0.8206 C.3     1  UNL1        0.0368
     14 C           0.3545    0.3769   -0.4534 C.3     1  UNL1        0.0295
     15 N          -0.4679    0.5868    0.7358 N.am    1  UNL1       -0.2934
     16 C          -1.5286    1.5640    0.8622 C.3     1  UNL1        0.0548
     17 C          -2.8447    1.0164    0.4467 C.ar    1  UNL1        0.0346
     18 C          -3.5172    0.9719   -0.7613 C.ar    1  UNL1       -0.0304
     19 C          -4.7370    0.3332   -0.5935 C.ar    1  UNL1        0.0181
     20 C          -4.7872   -0.0081    0.7454 C.ar    1  UNL1        0.0496
     21 N          -3.6520    0.4036    1.3613 N.ar    1  UNL1       -0.3566
     22 C          -5.9164   -0.6672    1.1870 C.ar    1  UNL1       -0.0197
     23 C          -6.9105   -0.9386    0.2699 C.ar    1  UNL1        0.0295
     24 N          -6.8071   -0.5822   -1.0220 N.ar    1  UNL1       -0.2625
     25 C          -5.7305    0.0620   -1.5102 C.ar    1  UNL1        0.0367
     26 C          -0.1052   -0.3016    1.7956 C.2     1  UNL1        0.2317
     27 O          -0.6416   -0.1708    2.9315 O.2     1  UNL1       -0.2741
     28 C           0.9108   -1.3430    1.4577 C.3     1  UNL1        0.0970
     29 H           6.0804    2.8451   -2.4147 H       1  UNL1        0.0638
     30 H           4.3769    0.9460   -2.2391 H       1  UNL1        0.0629
     31 H           4.3715   -1.2612    0.9552 H       1  UNL1        0.0642
     32 H           3.1722   -0.6245   -1.7883 H       1  UNL1        0.0835
     33 H          -0.9827   -1.2441   -0.7988 H       1  UNL1        0.0459
     34 H           0.4924   -1.3384   -1.8327 H       1  UNL1        0.0459
     35 H           0.1865    1.0889   -1.2527 H       1  UNL1        0.0478
     36 H           1.4153    0.4541   -0.1018 H       1  UNL1        0.0478
     37 H          -1.2863    2.3939    0.1769 H       1  UNL1        0.0528
     38 H          -1.5920    1.9972    1.8665 H       1  UNL1        0.0528
     39 H          -3.0642    1.4030   -1.6434 H       1  UNL1        0.0642
     40 H          -3.4757    0.2499    2.3776 H       1  UNL1        0.1656
     41 H          -6.0139   -0.9603    2.2235 H       1  UNL1        0.0653
     42 H          -7.7763   -1.4584    0.6693 H       1  UNL1        0.0830
     43 H          -5.6128    0.3623   -2.5353 H       1  UNL1        0.0836
     44 H           1.9088   -0.8429    1.4958 H       1  UNL1        0.0539
     45 H           0.8859   -2.0983    2.2718 H       1  UNL1        0.0539
@<TRIPOS>BOND
     1     1     2    1
     2     2     3   ar
     3     3     4   ar
     4     4     5   ar
     5     5     6   ar
     6     5     7    1
     7     7     8    2
     8     8     9    1
     9     9    10    2
    10     9    11    2
    11     9    12    1
    12    12    13    1
    13    13    14    1
    14    14    15    1
    15    15    16    1
    16    16    17    1
    17    17    18   ar
    18    18    19   ar
    19    19    20   ar
    20    20    21   ar
    21    20    22   ar
    22    22    23   ar
    23    23    24   ar
    24    24    25   ar
    25    15    26   am
    26    26    27    2
    27    26    28    1
    28     6     2   ar
    29    28    12    1
    30    21    17   ar
    31    25    19   ar
    32     3    29    1
    33     4    30    1
    34     7    31    1
    35     8    32    1
    36    13    33    1
    37    13    34    1
    38    14    35    1
    39    14    36    1
    40    16    37    1
    41    16    38    1
    42    18    39    1
    43    21    40    1
    44    22    41    1
    45    23    42    1
    46    25    43    1
    47    28    44    1
    48    28    45    1
