@<TRIPOS>MOLECULE
*****
 68 72 0 0 0
SMALL
GASTEIGER

@<TRIPOS>ATOM
      1 C          -5.0836   -4.1879   -1.4514 C.3     1  UNL1        0.0003
      2 N          -4.5420   -3.9453   -0.1400 N.pl3   1  UNL1       -0.3165
      3 C          -3.7242   -2.8052    0.1222 C.ar    1  UNL1        0.2172
      4 N          -4.3072   -1.6799    0.4976 N.ar    1  UNL1       -0.2144
      5 C          -3.6056   -0.5677    0.7613 C.ar    1  UNL1        0.0779
      6 C          -4.3523    0.5993    1.1648 C.ar    1  UNL1        0.0026
      7 C          -5.7224    0.5820    1.2809 C.ar    1  UNL1       -0.0518
      8 C          -6.4528    1.6860    1.6580 C.ar    1  UNL1       -0.0486
      9 C          -5.8191    2.8799    1.9418 C.ar    1  UNL1        0.0410
     10 C          -6.2901    4.1059    2.3299 C.ar    1  UNL1        0.1456
     11 N          -7.6014    4.5527    2.5725 N.pl3   1  UNL1       -0.3413
     12 N          -5.1750    4.8896    2.4548 N.ar    1  UNL1       -0.1581
     13 N          -4.0999    4.1698    2.1563 N.ar    1  UNL1       -0.2752
     14 C          -4.4600    2.9132    1.8323 C.ar    1  UNL1        0.0682
     15 C          -3.7273    1.7894    1.4468 C.ar    1  UNL1       -0.0270
     16 C          -2.2303   -0.6057    0.6342 C.ar    1  UNL1        0.0045
     17 C          -1.5899   -1.7660    0.2457 C.ar    1  UNL1        0.1272
     18 N          -0.1798   -1.8930    0.0841 N.pl3   1  UNL1       -0.3115
     19 C           0.7950   -0.8962    0.4542 C.3     1  UNL1        0.0249
     20 C           1.4980   -0.5002   -0.8309 C.3     1  UNL1        0.0513
     21 C           2.5102    0.5310   -0.7124 C.2     1  UNL1        0.2178
     22 O           2.1197    1.7676   -0.8622 O.2     1  UNL1       -0.2755
     23 N           3.8854    0.4155   -0.4595 N.am    1  UNL1       -0.3122
     24 C           4.7758    1.5862   -0.3790 C.3     1  UNL1        0.0231
     25 C           5.3051    1.9160   -1.7595 C.3     1  UNL1       -0.0345
     26 C           6.7228    1.5295   -1.9964 C.3     1  UNL1       -0.0514
     27 C           7.6660    2.1530   -0.9955 C.3     1  UNL1       -0.0529
     28 C           6.9715    2.4264    0.3220 C.3     1  UNL1       -0.0514
     29 C           5.9194    1.4012    0.5572 C.3     1  UNL1       -0.0345
     30 C           2.0934   -1.7412   -1.4963 C.3     1  UNL1       -0.0388
     31 C           1.8382   -2.9802   -0.6611 C.3     1  UNL1       -0.0338
     32 C           0.3399   -3.1110   -0.5161 C.3     1  UNL1        0.0221
     33 C           0.0267   -4.3488    0.2481 C.3     1  UNL1       -0.0465
     34 N          -2.3901   -2.8349    0.0029 N.ar    1  UNL1       -0.1995
     35 H          -4.2517   -4.1675   -2.1853 H       1  UNL1        0.0426
     36 H          -5.8689   -3.4447   -1.7520 H       1  UNL1        0.0426
     37 H          -5.5384   -5.2052   -1.5118 H       1  UNL1        0.0426
     38 H          -4.7733   -4.6322    0.6083 H       1  UNL1        0.1486
     39 H          -6.2590   -0.3527    1.0630 H       1  UNL1        0.0624
     40 H          -7.5212    1.6490    1.7455 H       1  UNL1        0.0625
     41 H          -7.8967    5.5135    2.2699 H       1  UNL1        0.1438
     42 H          -8.3202    3.9638    3.0558 H       1  UNL1        0.1438
     43 H          -3.1155    4.5217    2.1698 H       1  UNL1        0.1890
     44 H          -2.6706    1.9224    1.3879 H       1  UNL1        0.0645
     45 H          -1.6455    0.2810    0.8447 H       1  UNL1        0.0673
     46 H           0.3152    0.0471    0.8055 H       1  UNL1        0.0472
     47 H           1.4943   -1.2039    1.2282 H       1  UNL1        0.0472
     48 H           0.7004   -0.1459   -1.5207 H       1  UNL1        0.0410
     49 H           4.2904   -0.5304   -0.3240 H       1  UNL1        0.1490
     50 H           4.1623    2.4361   -0.0787 H       1  UNL1        0.0498
     51 H           4.6992    1.2946   -2.4874 H       1  UNL1        0.0283
     52 H           5.0940    2.9553   -1.9993 H       1  UNL1        0.0283
     53 H           6.9101    0.4463   -2.0535 H       1  UNL1        0.0266
     54 H           7.0254    1.9403   -3.0060 H       1  UNL1        0.0266
     55 H           8.4813    1.4311   -0.8032 H       1  UNL1        0.0265
     56 H           8.1371    3.0849   -1.3867 H       1  UNL1        0.0265
     57 H           7.6914    2.3566    1.1757 H       1  UNL1        0.0266
     58 H           6.5282    3.4256    0.3732 H       1  UNL1        0.0266
     59 H           5.5917    1.3614    1.6312 H       1  UNL1        0.0283
     60 H           6.3507    0.3725    0.3728 H       1  UNL1        0.0283
     61 H           1.7433   -1.8473   -2.5404 H       1  UNL1        0.0274
     62 H           3.1804   -1.5884   -1.5657 H       1  UNL1        0.0274
     63 H           2.2827   -2.8142    0.3284 H       1  UNL1        0.0283
     64 H           2.2758   -3.8570   -1.1763 H       1  UNL1        0.0283
     65 H          -0.1456   -3.1977   -1.5179 H       1  UNL1        0.0497
     66 H          -0.7019   -5.0136   -0.2661 H       1  UNL1        0.0248
     67 H           0.9411   -4.9493    0.3654 H       1  UNL1        0.0248
     68 H          -0.3007   -4.0843    1.2861 H       1  UNL1        0.0248
@<TRIPOS>BOND
     1     1     2    1
     2     2     3    1
     3     3     4   ar
     4     4     5   ar
     5     5     6    1
     6     6     7   ar
     7     7     8   ar
     8     8     9   ar
     9     9    10   ar
    10    10    11    1
    11    10    12   ar
    12    12    13   ar
    13    13    14   ar
    14    14    15   ar
    15     5    16   ar
    16    16    17   ar
    17    17    18    1
    18    18    19    1
    19    19    20    1
    20    20    21    1
    21    21    22    2
    22    21    23   am
    23    23    24    1
    24    24    25    1
    25    25    26    1
    26    26    27    1
    27    27    28    1
    28    28    29    1
    29    20    30    1
    30    30    31    1
    31    31    32    1
    32    32    33    1
    33    17    34   ar
    34    34     3   ar
    35    15     6   ar
    36    32    18    1
    37    14     9   ar
    38    29    24    1
    39     1    35    1
    40     1    36    1
    41     1    37    1
    42     2    38    1
    43     7    39    1
    44     8    40    1
    45    11    41    1
    46    11    42    1
    47    13    43    1
    48    15    44    1
    49    16    45    1
    50    19    46    1
    51    19    47    1
    52    20    48    1
    53    23    49    1
    54    24    50    1
    55    25    51    1
    56    25    52    1
    57    26    53    1
    58    26    54    1
    59    27    55    1
    60    27    56    1
    61    28    57    1
    62    28    58    1
    63    29    59    1
    64    29    60    1
    65    30    61    1
    66    30    62    1
    67    31    63    1
    68    31    64    1
    69    32    65    1
    70    33    66    1
    71    33    67    1
    72    33    68    1
