
     RDKit          3D

 68 72  0  0  0  0  0  0  0  0999 V2000
   -5.0836   -4.1879   -1.4514 C   0  0  0  0  0  0  0  0  0  0  0  0
   -4.5420   -3.9453   -0.1400 N   0  0  0  0  0  0  0  0  0  0  0  0
   -3.7242   -2.8052    0.1222 C   0  0  0  0  0  0  0  0  0  0  0  0
   -4.3072   -1.6799    0.4976 N   0  0  0  0  0  0  0  0  0  0  0  0
   -3.6056   -0.5677    0.7613 C   0  0  0  0  0  0  0  0  0  0  0  0
   -4.3523    0.5993    1.1648 C   0  0  0  0  0  0  0  0  0  0  0  0
   -5.7224    0.5820    1.2809 C   0  0  0  0  0  0  0  0  0  0  0  0
   -6.4528    1.6860    1.6580 C   0  0  0  0  0  0  0  0  0  0  0  0
   -5.8191    2.8799    1.9418 C   0  0  0  0  0  0  0  0  0  0  0  0
   -6.2901    4.1059    2.3299 C   0  0  0  0  0  0  0  0  0  0  0  0
   -7.6014    4.5527    2.5725 N   0  0  0  0  0  0  0  0  0  0  0  0
   -5.1750    4.8896    2.4548 N   0  0  0  0  0  0  0  0  0  0  0  0
   -4.0999    4.1698    2.1563 N   0  0  0  0  0  0  0  0  0  0  0  0
   -4.4600    2.9132    1.8323 C   0  0  0  0  0  0  0  0  0  0  0  0
   -3.7273    1.7894    1.4468 C   0  0  0  0  0  0  0  0  0  0  0  0
   -2.2303   -0.6057    0.6342 C   0  0  0  0  0  0  0  0  0  0  0  0
   -1.5899   -1.7660    0.2457 C   0  0  0  0  0  0  0  0  0  0  0  0
   -0.1798   -1.8930    0.0841 N   0  0  0  0  0  0  0  0  0  0  0  0
    0.7950   -0.8962    0.4542 C   0  0  0  0  0  0  0  0  0  0  0  0
    1.4980   -0.5002   -0.8309 C   0  0  1  0  0  0  0  0  0  0  0  0
    2.5102    0.5310   -0.7124 C   0  0  0  0  0  0  0  0  0  0  0  0
    2.1197    1.7676   -0.8622 O   0  0  0  0  0  0  0  0  0  0  0  0
    3.8854    0.4155   -0.4595 N   0  0  0  0  0  0  0  0  0  0  0  0
    4.7758    1.5862   -0.3790 C   0  0  0  0  0  0  0  0  0  0  0  0
    5.3051    1.9160   -1.7595 C   0  0  0  0  0  0  0  0  0  0  0  0
    6.7228    1.5295   -1.9964 C   0  0  0  0  0  0  0  0  0  0  0  0
    7.6660    2.1530   -0.9955 C   0  0  0  0  0  0  0  0  0  0  0  0
    6.9715    2.4264    0.3220 C   0  0  0  0  0  0  0  0  0  0  0  0
    5.9194    1.4012    0.5572 C   0  0  0  0  0  0  0  0  0  0  0  0
    2.0934   -1.7412   -1.4963 C   0  0  0  0  0  0  0  0  0  0  0  0
    1.8382   -2.9802   -0.6611 C   0  0  0  0  0  0  0  0  0  0  0  0
    0.3399   -3.1110   -0.5161 C   0  0  1  0  0  0  0  0  0  0  0  0
    0.0267   -4.3488    0.2481 C   0  0  0  0  0  0  0  0  0  0  0  0
   -2.3901   -2.8349    0.0029 N   0  0  0  0  0  0  0  0  0  0  0  0
   -4.2517   -4.1675   -2.1853 H   0  0  0  0  0  0  0  0  0  0  0  0
   -5.8689   -3.4447   -1.7520 H   0  0  0  0  0  0  0  0  0  0  0  0
   -5.5384   -5.2052   -1.5118 H   0  0  0  0  0  0  0  0  0  0  0  0
   -4.7733   -4.6322    0.6083 H   0  0  0  0  0  0  0  0  0  0  0  0
   -6.2590   -0.3527    1.0630 H   0  0  0  0  0  0  0  0  0  0  0  0
   -7.5212    1.6490    1.7455 H   0  0  0  0  0  0  0  0  0  0  0  0
   -7.8967    5.5135    2.2699 H   0  0  0  0  0  0  0  0  0  0  0  0
   -8.3202    3.9638    3.0558 H   0  0  0  0  0  0  0  0  0  0  0  0
   -3.1155    4.5217    2.1698 H   0  0  0  0  0  0  0  0  0  0  0  0
   -2.6706    1.9224    1.3879 H   0  0  0  0  0  0  0  0  0  0  0  0
   -1.6455    0.2810    0.8447 H   0  0  0  0  0  0  0  0  0  0  0  0
    0.3152    0.0471    0.8055 H   0  0  0  0  0  0  0  0  0  0  0  0
    1.4943   -1.2039    1.2282 H   0  0  0  0  0  0  0  0  0  0  0  0
    0.7004   -0.1459   -1.5207 H   0  0  0  0  0  0  0  0  0  0  0  0
    4.2904   -0.5304   -0.3240 H   0  0  0  0  0  0  0  0  0  0  0  0
    4.1623    2.4361   -0.0787 H   0  0  0  0  0  0  0  0  0  0  0  0
    4.6992    1.2946   -2.4874 H   0  0  0  0  0  0  0  0  0  0  0  0
    5.0940    2.9553   -1.9993 H   0  0  0  0  0  0  0  0  0  0  0  0
    6.9101    0.4463   -2.0535 H   0  0  0  0  0  0  0  0  0  0  0  0
    7.0254    1.9403   -3.0060 H   0  0  0  0  0  0  0  0  0  0  0  0
    8.4813    1.4311   -0.8032 H   0  0  0  0  0  0  0  0  0  0  0  0
    8.1371    3.0849   -1.3867 H   0  0  0  0  0  0  0  0  0  0  0  0
    7.6914    2.3566    1.1757 H   0  0  0  0  0  0  0  0  0  0  0  0
    6.5282    3.4256    0.3732 H   0  0  0  0  0  0  0  0  0  0  0  0
    5.5917    1.3614    1.6312 H   0  0  0  0  0  0  0  0  0  0  0  0
    6.3507    0.3725    0.3728 H   0  0  0  0  0  0  0  0  0  0  0  0
    1.7433   -1.8473   -2.5404 H   0  0  0  0  0  0  0  0  0  0  0  0
    3.1804   -1.5884   -1.5657 H   0  0  0  0  0  0  0  0  0  0  0  0
    2.2827   -2.8142    0.3284 H   0  0  0  0  0  0  0  0  0  0  0  0
    2.2758   -3.8570   -1.1763 H   0  0  0  0  0  0  0  0  0  0  0  0
   -0.1456   -3.1977   -1.5179 H   0  0  0  0  0  0  0  0  0  0  0  0
   -0.7019   -5.0136   -0.2661 H   0  0  0  0  0  0  0  0  0  0  0  0
    0.9411   -4.9493    0.3654 H   0  0  0  0  0  0  0  0  0  0  0  0
   -0.3007   -4.0843    1.2861 H   0  0  0  0  0  0  0  0  0  0  0  0
  1  2  1  0
  2  3  1  0
  3  4  2  0
  4  5  1  0
  5  6  1  0
  6  7  2  0
  7  8  1  0
  8  9  2  0
  9 10  1  0
 10 11  1  0
 10 12  2  0
 12 13  1  0
 13 14  1  0
 14 15  2  0
  5 16  2  0
 16 17  1  0
 17 18  1  0
 18 19  1  0
 19 20  1  0
 20 21  1  0
 21 22  2  0
 21 23  1  0
 23 24  1  0
 24 25  1  0
 25 26  1  0
 26 27  1  0
 27 28  1  0
 28 29  1  0
 20 30  1  0
 30 31  1  0
 31 32  1  0
 32 33  1  0
 17 34  2  0
 34  3  1  0
 15  6  1  0
 32 18  1  0
 14  9  1  0
 29 24  1  0
  1 35  1  0
  1 36  1  0
  1 37  1  0
  2 38  1  0
  7 39  1  0
  8 40  1  0
 11 41  1  0
 11 42  1  0
 13 43  1  0
 15 44  1  0
 16 45  1  0
 19 46  1  0
 19 47  1  0
 20 48  1  6
 23 49  1  0
 24 50  1  0
 25 51  1  0
 25 52  1  0
 26 53  1  0
 26 54  1  0
 27 55  1  0
 27 56  1  0
 28 57  1  0
 28 58  1  0
 29 59  1  0
 29 60  1  0
 30 61  1  0
 30 62  1  0
 31 63  1  0
 31 64  1  0
 32 65  1  6
 33 66  1  0
 33 67  1  0
 33 68  1  0
M  END
$$$$
