@<TRIPOS>MOLECULE
*****
 24 24 0 0 0
SMALL
GASTEIGER

@<TRIPOS>ATOM
      1 C           0.2006    1.2350    0.6023 C.3     1  UNL1        0.2312
      2 O          -0.3952    2.4709    0.6111 O.3     1  UNL1       -0.3557
      3 O           1.3210    1.2531   -0.2949 O.2     1  UNL1       -0.4540
      4 C           2.0304    0.0693   -0.4636 C.2     1  UNL1        0.2060
      5 C           1.4461   -1.0833   -0.1775 C.2     1  UNL1       -0.0041
      6 C           0.0634   -1.1802    0.3174 C.3     1  UNL1        0.1116
      7 O          -0.6226   -2.2505   -0.2673 O.3     1  UNL1       -0.3848
      8 C          -0.6928    0.1225    0.1243 C.3     1  UNL1        0.1806
      9 O          -1.8992    0.0736    0.8083 O.3     1  UNL1       -0.2032
     10 S          -3.2322    0.1669   -0.1860 S.O2    1  UNL1        0.2080
     11 O          -4.3330    1.2572    0.4255 O.3     1  UNL1       -0.2311
     12 O          -2.9018    0.5669   -1.5977 O.2     1  UNL1       -0.1181
     13 O          -3.9336   -1.1684   -0.2790 O.2     1  UNL1       -0.1181
     14 C           3.4065    0.0970   -0.9514 C.2     1  UNL1        0.3717
     15 O           4.0952   -1.0963   -1.1121 O.3     1  UNL1       -0.4750
     16 O           3.9462    1.2019   -1.2184 O.2     1  UNL1       -0.2417
     17 H           0.5392    0.9874    1.6435 H       1  UNL1        0.1083
     18 H          -0.3615    2.8966    1.4840 H       1  UNL1        0.2136
     19 H           1.9790   -2.0179   -0.3012 H       1  UNL1        0.0637
     20 H           0.1279   -1.4097    1.4136 H       1  UNL1        0.0668
     21 H          -0.9221   -2.9204    0.3941 H       1  UNL1        0.2103
     22 H          -0.8894    0.2150   -0.9565 H       1  UNL1        0.0714
     23 H          -4.0771    1.6273    1.3075 H       1  UNL1        0.2469
     24 H           5.1051   -1.1141   -1.3261 H       1  UNL1        0.2955
@<TRIPOS>BOND
     1     1     2    1
     2     1     3    1
     3     3     4    1
     4     4     5    2
     5     5     6    1
     6     6     7    1
     7     6     8    1
     8     8     9    1
     9     9    10    1
    10    10    11    1
    11    10    12    2
    12    10    13    2
    13     4    14    1
    14    14    15    1
    15    14    16    2
    16     8     1    1
    17     1    17    1
    18     2    18    1
    19     5    19    1
    20     6    20    1
    21     7    21    1
    22     8    22    1
    23    11    23    1
    24    15    24    1
