
     RDKit          3D

 24 24  0  0  0  0  0  0  0  0999 V2000
    0.2006    1.2350    0.6023 C   0  0  2  0  0  0  0  0  0  0  0  0
   -0.3952    2.4709    0.6111 O   0  0  0  0  0  0  0  0  0  0  0  0
    1.3210    1.2531   -0.2949 O   0  0  0  0  0  0  0  0  0  0  0  0
    2.0304    0.0693   -0.4636 C   0  0  0  0  0  0  0  0  0  0  0  0
    1.4461   -1.0833   -0.1775 C   0  0  0  0  0  0  0  0  0  0  0  0
    0.0634   -1.1802    0.3174 C   0  0  2  0  0  0  0  0  0  0  0  0
   -0.6226   -2.2505   -0.2673 O   0  0  0  0  0  0  0  0  0  0  0  0
   -0.6928    0.1225    0.1243 C   0  0  1  0  0  0  0  0  0  0  0  0
   -1.8992    0.0736    0.8083 O   0  0  0  0  0  0  0  0  0  0  0  0
   -3.2322    0.1669   -0.1860 S   0  0  0  0  0  0  0  0  0  0  0  0
   -4.3330    1.2572    0.4255 O   0  0  0  0  0  0  0  0  0  0  0  0
   -2.9018    0.5669   -1.5977 O   0  0  0  0  0  0  0  0  0  0  0  0
   -3.9336   -1.1684   -0.2790 O   0  0  0  0  0  0  0  0  0  0  0  0
    3.4065    0.0970   -0.9514 C   0  0  0  0  0  0  0  0  0  0  0  0
    4.0952   -1.0963   -1.1121 O   0  0  0  0  0  0  0  0  0  0  0  0
    3.9462    1.2019   -1.2184 O   0  0  0  0  0  0  0  0  0  0  0  0
    0.5392    0.9874    1.6435 H   0  0  0  0  0  0  0  0  0  0  0  0
   -0.3615    2.8966    1.4840 H   0  0  0  0  0  0  0  0  0  0  0  0
    1.9790   -2.0179   -0.3012 H   0  0  0  0  0  0  0  0  0  0  0  0
    0.1279   -1.4097    1.4136 H   0  0  0  0  0  0  0  0  0  0  0  0
   -0.9221   -2.9204    0.3941 H   0  0  0  0  0  0  0  0  0  0  0  0
   -0.8894    0.2150   -0.9565 H   0  0  0  0  0  0  0  0  0  0  0  0
   -4.0771    1.6273    1.3075 H   0  0  0  0  0  0  0  0  0  0  0  0
    5.1051   -1.1141   -1.3261 H   0  0  0  0  0  0  0  0  0  0  0  0
  1  2  1  0
  1  3  1  0
  3  4  1  0
  4  5  2  0
  5  6  1  0
  6  7  1  0
  6  8  1  0
  8  9  1  0
  9 10  1  0
 10 11  1  0
 10 12  2  0
 10 13  2  0
  4 14  1  0
 14 15  1  0
 14 16  2  0
  8  1  1  0
  1 17  1  1
  2 18  1  0
  5 19  1  0
  6 20  1  1
  7 21  1  0
  8 22  1  6
 11 23  1  0
 15 24  1  0
M  END
$$$$
