@<TRIPOS>MOLECULE
*****
 74 78 0 0 0
SMALL
GASTEIGER

@<TRIPOS>ATOM
      1 C          -0.0060    3.4281   -2.8148 C.3     1  UNL1        0.0790
      2 O          -1.0505    2.4999   -2.6031 O.3     1  UNL1       -0.4914
      3 C          -0.8787    1.4249   -1.7494 C.ar    1  UNL1        0.1623
      4 C           0.3160    1.2618   -1.1053 C.ar    1  UNL1       -0.0038
      5 C           0.5243    0.2051   -0.2488 C.ar    1  UNL1        0.0442
      6 C           1.7286    0.0541    0.3900 C.ar    1  UNL1        0.1354
      7 N           2.8321    0.9348    0.2397 N.pl3   1  UNL1       -0.2781
      8 C           4.0488    0.6537    0.9623 C.ar    1  UNL1        0.1636
      9 N           4.5245   -0.1215    1.7174 N.ar    1  UNL1       -0.2327
     10 C           5.7151   -0.1329    2.2354 C.ar    1  UNL1        0.0405
     11 C           6.5541    0.8827    1.8725 C.ar    1  UNL1        0.0198
     12 C           7.9504    1.2095    2.2417 C.3     1  UNL1        0.0572
     13 C           8.9123    0.5332    1.3223 C.2     1  UNL1        0.2221
     14 O           8.4406   -0.1916    0.4045 O.2     1  UNL1       -0.2751
     15 N          10.3095    0.6772    1.4455 N.am    1  UNL1       -0.2851
     16 C          11.1331   -0.0142    0.5114 C.ar    1  UNL1        0.0361
     17 C          11.6043   -1.2889    0.7285 C.ar    1  UNL1       -0.0403
     18 C          12.3943   -1.8825   -0.2311 C.ar    1  UNL1       -0.0573
     19 C          12.7229   -1.2193   -1.4106 C.ar    1  UNL1       -0.0263
     20 C          12.2448    0.0524   -1.6123 C.ar    1  UNL1        0.1252
     21 F          12.5369    0.7373   -2.7443 F       1  UNL1       -0.2054
     22 C          11.4544    0.6605   -0.6644 C.ar    1  UNL1       -0.0052
     23 S           5.5022    1.8344    0.7455 S.2     1  UNL1       -0.0566
     24 N           1.8479   -1.0260    1.2225 N.ar    1  UNL1       -0.2199
     25 C           0.8341   -1.8887    1.3998 C.ar    1  UNL1        0.1187
     26 N          -0.3349   -1.7152    0.7603 N.ar    1  UNL1       -0.2352
     27 C          -0.5275   -0.6632   -0.0844 C.ar    1  UNL1        0.0797
     28 C          -1.7505   -0.5123   -0.7330 C.ar    1  UNL1        0.0098
     29 C          -1.9562    0.5390   -1.5827 C.ar    1  UNL1        0.1639
     30 O          -3.1128    0.8042   -2.2766 O.3     1  UNL1       -0.4882
     31 C          -4.2799    0.1136   -2.2133 C.3     1  UNL1        0.0909
     32 C          -4.9766    0.1960   -0.8769 C.3     1  UNL1       -0.0058
     33 C          -6.2513   -0.6258   -0.9221 C.3     1  UNL1        0.0020
     34 N          -6.9883   -0.6260    0.2601 N.3     1  UNL1       -0.3022
     35 C          -7.6209    0.5442    0.6882 C.3     1  UNL1       -0.0008
     36 C          -9.0892    0.4931    0.2945 C.3     1  UNL1       -0.0352
     37 C          -9.5861   -0.9339    0.3804 C.3     1  UNL1       -0.0155
     38 C         -11.0469   -1.0233    0.7154 C.3     1  UNL1        0.0471
     39 O         -11.7738   -0.3731   -0.2710 O.3     1  UNL1       -0.3947
     40 C          -8.7571   -1.6792    1.4240 C.3     1  UNL1       -0.0352
     41 C          -7.3307   -1.8384    0.8755 C.3     1  UNL1       -0.0008
     42 H          -0.2566    4.1419   -3.6235 H       1  UNL1        0.0660
     43 H           0.9463    2.9338   -3.1184 H       1  UNL1        0.0660
     44 H           0.2315    3.9927   -1.8770 H       1  UNL1        0.0660
     45 H           1.1446    1.9658   -1.2499 H       1  UNL1        0.0663
     46 H           2.8158    1.7728   -0.3612 H       1  UNL1        0.1555
     47 H           6.0561   -0.9181    2.9398 H       1  UNL1        0.0838
     48 H           8.1259    2.3095    2.2458 H       1  UNL1        0.0413
     49 H           8.1929    0.8781    3.2704 H       1  UNL1        0.0413
     50 H          10.6748    1.2793    2.2099 H       1  UNL1        0.1548
     51 H          11.3364   -1.7829    1.6515 H       1  UNL1        0.0636
     52 H          12.7758   -2.8872   -0.0801 H       1  UNL1        0.0619
     53 H          13.3466   -1.6969   -2.1603 H       1  UNL1        0.0646
     54 H          11.0763    1.6688   -0.8268 H       1  UNL1        0.0665
     55 H           0.9148   -2.7536    2.0601 H       1  UNL1        0.1048
     56 H          -2.5047   -1.2644   -0.5600 H       1  UNL1        0.0677
     57 H          -4.9762    0.5043   -3.0159 H       1  UNL1        0.0697
     58 H          -4.1372   -0.9712   -2.5141 H       1  UNL1        0.0697
     59 H          -5.2345    1.2799   -0.7363 H       1  UNL1        0.0310
     60 H          -4.3469   -0.1609   -0.0669 H       1  UNL1        0.0310
     61 H          -6.0064   -1.6550   -1.2313 H       1  UNL1        0.0428
     62 H          -6.8641   -0.1969   -1.7558 H       1  UNL1        0.0428
     63 H          -7.5989    0.7263    1.8005 H       1  UNL1        0.0427
     64 H          -7.1595    1.4260    0.2264 H       1  UNL1        0.0427
     65 H          -9.2432    0.9116   -0.7281 H       1  UNL1        0.0281
     66 H          -9.7101    1.1020    0.9765 H       1  UNL1        0.0281
     67 H          -9.3810   -1.4226   -0.6059 H       1  UNL1        0.0324
     68 H         -11.2355   -0.6359    1.7202 H       1  UNL1        0.0560
     69 H         -11.3256   -2.0965    0.6743 H       1  UNL1        0.0560
     70 H         -12.5908    0.0146    0.1055 H       1  UNL1        0.2094
     71 H          -8.7686   -1.0770    2.3351 H       1  UNL1        0.0281
     72 H          -9.1484   -2.6730    1.6407 H       1  UNL1        0.0281
     73 H          -7.2553   -2.6771    0.1858 H       1  UNL1        0.0427
     74 H          -6.7075   -2.1079    1.7754 H       1  UNL1        0.0427
@<TRIPOS>BOND
     1     1     2    1
     2     2     3    1
     3     3     4   ar
     4     4     5   ar
     5     5     6   ar
     6     6     7    1
     7     7     8    1
     8     8     9   ar
     9     9    10   ar
    10    10    11   ar
    11    11    12    1
    12    12    13    1
    13    13    14    2
    14    13    15   am
    15    15    16    1
    16    16    17   ar
    17    17    18   ar
    18    18    19   ar
    19    19    20   ar
    20    20    21    1
    21    20    22   ar
    22    11    23   ar
    23     6    24   ar
    24    24    25   ar
    25    25    26   ar
    26    26    27   ar
    27    27    28   ar
    28    28    29   ar
    29    29    30    1
    30    30    31    1
    31    31    32    1
    32    32    33    1
    33    33    34    1
    34    34    35    1
    35    35    36    1
    36    36    37    1
    37    37    38    1
    38    38    39    1
    39    37    40    1
    40    40    41    1
    41    29     3   ar
    42    41    34    1
    43    27     5   ar
    44    23     8   ar
    45    22    16   ar
    46     1    42    1
    47     1    43    1
    48     1    44    1
    49     4    45    1
    50     7    46    1
    51    10    47    1
    52    12    48    1
    53    12    49    1
    54    15    50    1
    55    17    51    1
    56    18    52    1
    57    19    53    1
    58    22    54    1
    59    25    55    1
    60    28    56    1
    61    31    57    1
    62    31    58    1
    63    32    59    1
    64    32    60    1
    65    33    61    1
    66    33    62    1
    67    35    63    1
    68    35    64    1
    69    36    65    1
    70    36    66    1
    71    37    67    1
    72    38    68    1
    73    38    69    1
    74    39    70    1
    75    40    71    1
    76    40    72    1
    77    41    73    1
    78    41    74    1
