
     RDKit          3D

 74 78  0  0  0  0  0  0  0  0999 V2000
   -0.0060    3.4281   -2.8148 C   0  0  0  0  0  0  0  0  0  0  0  0
   -1.0505    2.4999   -2.6031 O   0  0  0  0  0  0  0  0  0  0  0  0
   -0.8787    1.4249   -1.7494 C   0  0  0  0  0  0  0  0  0  0  0  0
    0.3160    1.2618   -1.1053 C   0  0  0  0  0  0  0  0  0  0  0  0
    0.5243    0.2051   -0.2488 C   0  0  0  0  0  0  0  0  0  0  0  0
    1.7286    0.0541    0.3900 C   0  0  0  0  0  0  0  0  0  0  0  0
    2.8321    0.9348    0.2397 N   0  0  0  0  0  0  0  0  0  0  0  0
    4.0488    0.6537    0.9623 C   0  0  0  0  0  0  0  0  0  0  0  0
    4.5245   -0.1215    1.7174 N   0  0  0  0  0  0  0  0  0  0  0  0
    5.7151   -0.1329    2.2354 C   0  0  0  0  0  0  0  0  0  0  0  0
    6.5541    0.8827    1.8725 C   0  0  0  0  0  0  0  0  0  0  0  0
    7.9504    1.2095    2.2417 C   0  0  0  0  0  0  0  0  0  0  0  0
    8.9123    0.5332    1.3223 C   0  0  0  0  0  0  0  0  0  0  0  0
    8.4406   -0.1916    0.4045 O   0  0  0  0  0  0  0  0  0  0  0  0
   10.3095    0.6772    1.4455 N   0  0  0  0  0  0  0  0  0  0  0  0
   11.1331   -0.0142    0.5114 C   0  0  0  0  0  0  0  0  0  0  0  0
   11.6043   -1.2889    0.7285 C   0  0  0  0  0  0  0  0  0  0  0  0
   12.3943   -1.8825   -0.2311 C   0  0  0  0  0  0  0  0  0  0  0  0
   12.7229   -1.2193   -1.4106 C   0  0  0  0  0  0  0  0  0  0  0  0
   12.2448    0.0524   -1.6123 C   0  0  0  0  0  0  0  0  0  0  0  0
   12.5369    0.7373   -2.7443 F   0  0  0  0  0  0  0  0  0  0  0  0
   11.4544    0.6605   -0.6644 C   0  0  0  0  0  0  0  0  0  0  0  0
    5.5022    1.8344    0.7455 S   0  0  0  0  0  0  0  0  0  0  0  0
    1.8479   -1.0260    1.2225 N   0  0  0  0  0  0  0  0  0  0  0  0
    0.8341   -1.8887    1.3998 C   0  0  0  0  0  0  0  0  0  0  0  0
   -0.3349   -1.7152    0.7603 N   0  0  0  0  0  0  0  0  0  0  0  0
   -0.5275   -0.6632   -0.0844 C   0  0  0  0  0  0  0  0  0  0  0  0
   -1.7505   -0.5123   -0.7330 C   0  0  0  0  0  0  0  0  0  0  0  0
   -1.9562    0.5390   -1.5827 C   0  0  0  0  0  0  0  0  0  0  0  0
   -3.1128    0.8042   -2.2766 O   0  0  0  0  0  0  0  0  0  0  0  0
   -4.2799    0.1136   -2.2133 C   0  0  0  0  0  0  0  0  0  0  0  0
   -4.9766    0.1960   -0.8769 C   0  0  0  0  0  0  0  0  0  0  0  0
   -6.2513   -0.6258   -0.9221 C   0  0  0  0  0  0  0  0  0  0  0  0
   -6.9883   -0.6260    0.2601 N   0  0  0  0  0  0  0  0  0  0  0  0
   -7.6209    0.5442    0.6882 C   0  0  0  0  0  0  0  0  0  0  0  0
   -9.0892    0.4931    0.2945 C   0  0  0  0  0  0  0  0  0  0  0  0
   -9.5861   -0.9339    0.3804 C   0  0  0  0  0  0  0  0  0  0  0  0
  -11.0469   -1.0233    0.7154 C   0  0  0  0  0  0  0  0  0  0  0  0
  -11.7738   -0.3731   -0.2710 O   0  0  0  0  0  0  0  0  0  0  0  0
   -8.7571   -1.6792    1.4240 C   0  0  0  0  0  0  0  0  0  0  0  0
   -7.3307   -1.8384    0.8755 C   0  0  0  0  0  0  0  0  0  0  0  0
   -0.2566    4.1419   -3.6235 H   0  0  0  0  0  0  0  0  0  0  0  0
    0.9463    2.9338   -3.1184 H   0  0  0  0  0  0  0  0  0  0  0  0
    0.2315    3.9927   -1.8770 H   0  0  0  0  0  0  0  0  0  0  0  0
    1.1446    1.9658   -1.2499 H   0  0  0  0  0  0  0  0  0  0  0  0
    2.8158    1.7728   -0.3612 H   0  0  0  0  0  0  0  0  0  0  0  0
    6.0561   -0.9181    2.9398 H   0  0  0  0  0  0  0  0  0  0  0  0
    8.1259    2.3095    2.2458 H   0  0  0  0  0  0  0  0  0  0  0  0
    8.1929    0.8781    3.2704 H   0  0  0  0  0  0  0  0  0  0  0  0
   10.6748    1.2793    2.2099 H   0  0  0  0  0  0  0  0  0  0  0  0
   11.3364   -1.7829    1.6515 H   0  0  0  0  0  0  0  0  0  0  0  0
   12.7758   -2.8872   -0.0801 H   0  0  0  0  0  0  0  0  0  0  0  0
   13.3466   -1.6969   -2.1603 H   0  0  0  0  0  0  0  0  0  0  0  0
   11.0763    1.6688   -0.8268 H   0  0  0  0  0  0  0  0  0  0  0  0
    0.9148   -2.7536    2.0601 H   0  0  0  0  0  0  0  0  0  0  0  0
   -2.5047   -1.2644   -0.5600 H   0  0  0  0  0  0  0  0  0  0  0  0
   -4.9762    0.5043   -3.0159 H   0  0  0  0  0  0  0  0  0  0  0  0
   -4.1372   -0.9712   -2.5141 H   0  0  0  0  0  0  0  0  0  0  0  0
   -5.2345    1.2799   -0.7363 H   0  0  0  0  0  0  0  0  0  0  0  0
   -4.3469   -0.1609   -0.0669 H   0  0  0  0  0  0  0  0  0  0  0  0
   -6.0064   -1.6550   -1.2313 H   0  0  0  0  0  0  0  0  0  0  0  0
   -6.8641   -0.1969   -1.7558 H   0  0  0  0  0  0  0  0  0  0  0  0
   -7.5989    0.7263    1.8005 H   0  0  0  0  0  0  0  0  0  0  0  0
   -7.1595    1.4260    0.2264 H   0  0  0  0  0  0  0  0  0  0  0  0
   -9.2432    0.9116   -0.7281 H   0  0  0  0  0  0  0  0  0  0  0  0
   -9.7101    1.1020    0.9765 H   0  0  0  0  0  0  0  0  0  0  0  0
   -9.3810   -1.4226   -0.6059 H   0  0  0  0  0  0  0  0  0  0  0  0
  -11.2355   -0.6359    1.7202 H   0  0  0  0  0  0  0  0  0  0  0  0
  -11.3256   -2.0965    0.6743 H   0  0  0  0  0  0  0  0  0  0  0  0
  -12.5908    0.0146    0.1055 H   0  0  0  0  0  0  0  0  0  0  0  0
   -8.7686   -1.0770    2.3351 H   0  0  0  0  0  0  0  0  0  0  0  0
   -9.1484   -2.6730    1.6407 H   0  0  0  0  0  0  0  0  0  0  0  0
   -7.2553   -2.6771    0.1858 H   0  0  0  0  0  0  0  0  0  0  0  0
   -6.7075   -2.1079    1.7754 H   0  0  0  0  0  0  0  0  0  0  0  0
  1  2  1  0
  2  3  1  0
  3  4  2  0
  4  5  1  0
  5  6  2  0
  6  7  1  0
  7  8  1  0
  8  9  2  0
  9 10  1  0
 10 11  2  0
 11 12  1  0
 12 13  1  0
 13 14  2  0
 13 15  1  0
 15 16  1  0
 16 17  2  0
 17 18  1  0
 18 19  2  0
 19 20  1  0
 20 21  1  0
 20 22  2  0
 11 23  1  0
  6 24  1  0
 24 25  2  0
 25 26  1  0
 26 27  2  0
 27 28  1  0
 28 29  2  0
 29 30  1  0
 30 31  1  0
 31 32  1  0
 32 33  1  0
 33 34  1  0
 34 35  1  0
 35 36  1  0
 36 37  1  0
 37 38  1  0
 38 39  1  0
 37 40  1  0
 40 41  1  0
 29  3  1  0
 41 34  1  0
 27  5  1  0
 23  8  1  0
 22 16  1  0
  1 42  1  0
  1 43  1  0
  1 44  1  0
  4 45  1  0
  7 46  1  0
 10 47  1  0
 12 48  1  0
 12 49  1  0
 15 50  1  0
 17 51  1  0
 18 52  1  0
 19 53  1  0
 22 54  1  0
 25 55  1  0
 28 56  1  0
 31 57  1  0
 31 58  1  0
 32 59  1  0
 32 60  1  0
 33 61  1  0
 33 62  1  0
 35 63  1  0
 35 64  1  0
 36 65  1  0
 36 66  1  0
 37 67  1  0
 38 68  1  0
 38 69  1  0
 39 70  1  0
 40 71  1  0
 40 72  1  0
 41 73  1  0
 41 74  1  0
M  END
$$$$
