@<TRIPOS>MOLECULE
*****
 62 64 0 0 0
SMALL
GASTEIGER

@<TRIPOS>ATOM
      1 C          -4.5335   -3.2427    1.6522 C.3     1  UNK1        0.1037
      2 N          -3.4803   -4.1767    2.0067 N.3     1  UNK1       -0.3184
      3 C          -3.9990   -1.8316    1.7024 C.3     1  UNK1       -0.0191
      4 C          -2.8510   -1.6360    0.7363 C.3     1  UNK1        0.0259
      5 C          -2.4402   -0.1932    0.9231 C.2     1  UNK1        0.2137
      6 O          -3.2763    0.0565    1.8634 O.2     1  UNK1       -0.2758
      7 N          -1.4578    0.6176    0.2766 N.am    1  UNK1       -0.3033
      8 C          -1.3533    1.9667    0.7386 C.3     1  UNK1        0.1083
      9 C          -0.0833    2.3329    1.4338 C.3     1  UNK1        0.0213
     10 S           1.4240    2.1998    0.5489 S.3     1  UNK1       -0.1474
     11 C           2.0738    0.6332    0.1057 C.3     1  UNK1        0.0609
     12 C           2.6569   -0.1918    1.1737 C.ar    1  UNK1       -0.0239
     13 C           2.3607   -0.1594    2.5082 C.ar    1  UNK1       -0.0568
     14 C           2.8605   -0.9745    3.4842 C.ar    1  UNK1       -0.0614
     15 C           3.7759   -1.9616    3.1258 C.ar    1  UNK1       -0.0612
     16 C           4.1169   -2.0432    1.7930 C.ar    1  UNK1       -0.0537
     17 C           3.5830   -1.1924    0.8468 C.ar    1  UNK1       -0.0132
     18 C           4.1353   -1.3415   -0.4912 C.ar    1  UNK1       -0.0119
     19 C           4.9907   -2.3345   -0.9013 C.ar    1  UNK1       -0.0537
     20 C           5.4392   -2.4654   -2.1978 C.ar    1  UNK1       -0.0612
     21 C           5.0233   -1.5666   -3.1537 C.ar    1  UNK1       -0.0614
     22 C           4.1534   -0.5383   -2.7808 C.ar    1  UNK1       -0.0555
     23 C           3.7274   -0.4473   -1.4520 C.ar    1  UNK1       -0.0101
     24 C           2.8846    0.6929   -1.1678 C.3     1  UNK1        0.0965
     25 O           2.0187    0.8980   -2.2671 O.3     1  UNK1       -0.3857
     26 C          -1.6330    2.8827   -0.4215 C.2     1  UNK1        0.2346
     27 O          -1.9032    2.3295   -1.5322 O.2     1  UNK1       -0.2737
     28 N          -1.6130    4.3017   -0.3490 N.am    2  GLY2       -0.3033
     29 CA         -1.9272    4.8684   -1.6451 C.3     2  GLY2        0.1089
     30 C          -1.8888    6.3605   -1.5001 C.2     2  GLY2        0.3221
     31 O          -2.1366    7.2577   -2.5217 O.3     2  GLY2       -0.4795
     32 OXT        -1.5996    6.6548   -0.3191 O.2     2  GLY2       -0.2492
     33 C          -5.0745   -3.5847    0.3153 C.2     1  UNK1        0.3217
     34 O          -5.0232   -4.4132   -0.7973 O.3     1  UNK1       -0.4795
     35 O          -6.0109   -2.7604    0.0406 O.2     1  UNK1       -0.2493
     36 H          -5.3247   -3.3313    2.4207 H       1  UNK1        0.0574
     37 H          -3.8611   -5.0029    2.5295 H       1  UNK1        0.1190
     38 H          -2.8672   -4.4154    1.2117 H       1  UNK1        0.1190
     39 H          -4.7718   -1.0809    1.4750 H       1  UNK1        0.0290
     40 H          -3.6205   -1.6374    2.7214 H       1  UNK1        0.0290
     41 H          -1.9965   -2.2997    0.9416 H       1  UNK1        0.0359
     42 H          -3.1473   -1.7334   -0.3144 H       1  UNK1        0.0359
     43 H          -1.0947   -0.0795   -0.3994 H       1  UNK1        0.1495
     44 H          -2.1665    2.1103    1.5117 H       1  UNK1        0.0603
     45 H          -0.2281    3.4440    1.7000 H       1  UNK1        0.0399
     46 H          -0.1317    1.8086    2.4346 H       1  UNK1        0.0399
     47 H           1.1688   -0.0165   -0.2276 H       1  UNK1        0.0490
     48 H           1.6742    0.5758    2.8728 H       1  UNK1        0.0621
     49 H           2.5624   -0.8740    4.5390 H       1  UNK1        0.0618
     50 H           4.1541   -2.5920    3.9153 H       1  UNK1        0.0618
     51 H           4.8283   -2.8376    1.6407 H       1  UNK1        0.0624
     52 H           5.3418   -3.0516   -0.2211 H       1  UNK1        0.0624
     53 H           6.1259   -3.2809   -2.4762 H       1  UNK1        0.0618
     54 H           5.3510   -1.6258   -4.2031 H       1  UNK1        0.0618
     55 H           3.8549    0.1400   -3.5539 H       1  UNK1        0.0621
     56 H           3.5391    1.6120   -1.1403 H       1  UNK1        0.0658
     57 H           1.2772    0.2492   -2.1290 H       1  UNK1        0.2103
     58 H          -1.3850    4.7092    0.5850 H       2  GLY2        0.1493
     59 HA1        -2.9632    4.5519   -1.9684 H       2  GLY2        0.0577
     60 HA2        -1.2476    4.5123   -2.4257 H       2  GLY2        0.0577
     61 H          -2.2505    8.2392   -2.2675 H       2  GLY2        0.2951
     62 H          -5.7605   -5.0917   -1.0143 H       1  UNK1        0.2951
@<TRIPOS>BOND
     1     1     2    1
     2     1     3    1
     3     3     4    1
     4     4     5    1
     5     5     6    2
     6     5     7   am
     7     7     8    1
     8     8     9    1
     9     9    10    1
    10    10    11    1
    11    11    12    1
    12    12    13   ar
    13    13    14   ar
    14    14    15   ar
    15    15    16   ar
    16    16    17   ar
    17    17    18    1
    18    18    19   ar
    19    19    20   ar
    20    20    21   ar
    21    21    22   ar
    22    22    23   ar
    23    23    24    1
    24    24    25    1
    25     8    26    1
    26    26    27    2
    27    26    28   am
    28    28    29    1
    29    29    30    1
    30    30    31    1
    31    30    32    2
    32     1    33    1
    33    33    34    1
    34    33    35    2
    35    24    11    1
    36    17    12   ar
    37    23    18   ar
    38     1    36    1
    39     2    37    1
    40     2    38    1
    41     3    39    1
    42     3    40    1
    43     4    41    1
    44     4    42    1
    45     7    43    1
    46     8    44    1
    47     9    45    1
    48     9    46    1
    49    11    47    1
    50    13    48    1
    51    14    49    1
    52    15    50    1
    53    16    51    1
    54    19    52    1
    55    20    53    1
    56    21    54    1
    57    22    55    1
    58    24    56    1
    59    25    57    1
    60    28    58    1
    61    29    59    1
    62    29    60    1
    63    31    61    1
    64    34    62    1
