
     RDKit          3D

 62 64  0  0  0  0  0  0  0  0999 V2000
   -4.5335   -3.2427    1.6522 C   0  0  1  0  0  0  0  0  0  0  0  0
   -3.4803   -4.1767    2.0067 N   0  0  0  0  0  0  0  0  0  0  0  0
   -3.9990   -1.8316    1.7024 C   0  0  0  0  0  0  0  0  0  0  0  0
   -2.8510   -1.6360    0.7363 C   0  0  0  0  0  0  0  0  0  0  0  0
   -2.4402   -0.1932    0.9231 C   0  0  0  0  0  0  0  0  0  0  0  0
   -3.2763    0.0565    1.8634 O   0  0  0  0  0  0  0  0  0  0  0  0
   -1.4578    0.6176    0.2766 N   0  0  0  0  0  0  0  0  0  0  0  0
   -1.3533    1.9667    0.7386 C   0  0  1  0  0  0  0  0  0  0  0  0
   -0.0833    2.3329    1.4338 C   0  0  0  0  0  0  0  0  0  0  0  0
    1.4240    2.1998    0.5489 S   0  0  0  0  0  0  0  0  0  0  0  0
    2.0738    0.6332    0.1057 C   0  0  2  0  0  0  0  0  0  0  0  0
    2.6569   -0.1918    1.1737 C   0  0  0  0  0  0  0  0  0  0  0  0
    2.3607   -0.1594    2.5082 C   0  0  0  0  0  0  0  0  0  0  0  0
    2.8605   -0.9745    3.4842 C   0  0  0  0  0  0  0  0  0  0  0  0
    3.7759   -1.9616    3.1258 C   0  0  0  0  0  0  0  0  0  0  0  0
    4.1169   -2.0432    1.7930 C   0  0  0  0  0  0  0  0  0  0  0  0
    3.5830   -1.1924    0.8468 C   0  0  0  0  0  0  0  0  0  0  0  0
    4.1353   -1.3415   -0.4912 C   0  0  0  0  0  0  0  0  0  0  0  0
    4.9907   -2.3345   -0.9013 C   0  0  0  0  0  0  0  0  0  0  0  0
    5.4392   -2.4654   -2.1978 C   0  0  0  0  0  0  0  0  0  0  0  0
    5.0233   -1.5666   -3.1537 C   0  0  0  0  0  0  0  0  0  0  0  0
    4.1534   -0.5383   -2.7808 C   0  0  0  0  0  0  0  0  0  0  0  0
    3.7274   -0.4473   -1.4520 C   0  0  0  0  0  0  0  0  0  0  0  0
    2.8846    0.6929   -1.1678 C   0  0  1  0  0  0  0  0  0  0  0  0
    2.0187    0.8980   -2.2671 O   0  0  0  0  0  0  0  0  0  0  0  0
   -1.6330    2.8827   -0.4215 C   0  0  0  0  0  0  0  0  0  0  0  0
   -1.9032    2.3295   -1.5322 O   0  0  0  0  0  0  0  0  0  0  0  0
   -1.6130    4.3017   -0.3490 N   0  0  0  0  0  0  0  0  0  0  0  0
   -1.9272    4.8684   -1.6451 C   0  0  0  0  0  0  0  0  0  0  0  0
   -1.8888    6.3605   -1.5001 C   0  0  0  0  0  0  0  0  0  0  0  0
   -2.1366    7.2577   -2.5217 O   0  0  0  0  0  0  0  0  0  0  0  0
   -1.5996    6.6548   -0.3191 O   0  0  0  0  0  0  0  0  0  0  0  0
   -5.0745   -3.5847    0.3153 C   0  0  0  0  0  0  0  0  0  0  0  0
   -5.0232   -4.4132   -0.7973 O   0  0  0  0  0  0  0  0  0  0  0  0
   -6.0109   -2.7604    0.0406 O   0  0  0  0  0  0  0  0  0  0  0  0
   -5.3247   -3.3313    2.4207 H   0  0  0  0  0  0  0  0  0  0  0  0
   -3.8611   -5.0029    2.5295 H   0  0  0  0  0  0  0  0  0  0  0  0
   -2.8672   -4.4154    1.2117 H   0  0  0  0  0  0  0  0  0  0  0  0
   -4.7718   -1.0809    1.4750 H   0  0  0  0  0  0  0  0  0  0  0  0
   -3.6205   -1.6374    2.7214 H   0  0  0  0  0  0  0  0  0  0  0  0
   -1.9965   -2.2997    0.9416 H   0  0  0  0  0  0  0  0  0  0  0  0
   -3.1473   -1.7334   -0.3144 H   0  0  0  0  0  0  0  0  0  0  0  0
   -1.0947   -0.0795   -0.3994 H   0  0  0  0  0  0  0  0  0  0  0  0
   -2.1665    2.1103    1.5117 H   0  0  0  0  0  0  0  0  0  0  0  0
   -0.2281    3.4440    1.7000 H   0  0  0  0  0  0  0  0  0  0  0  0
   -0.1317    1.8086    2.4346 H   0  0  0  0  0  0  0  0  0  0  0  0
    1.1688   -0.0165   -0.2276 H   0  0  0  0  0  0  0  0  0  0  0  0
    1.6742    0.5758    2.8728 H   0  0  0  0  0  0  0  0  0  0  0  0
    2.5624   -0.8740    4.5390 H   0  0  0  0  0  0  0  0  0  0  0  0
    4.1541   -2.5920    3.9153 H   0  0  0  0  0  0  0  0  0  0  0  0
    4.8283   -2.8376    1.6407 H   0  0  0  0  0  0  0  0  0  0  0  0
    5.3418   -3.0516   -0.2211 H   0  0  0  0  0  0  0  0  0  0  0  0
    6.1259   -3.2809   -2.4762 H   0  0  0  0  0  0  0  0  0  0  0  0
    5.3510   -1.6258   -4.2031 H   0  0  0  0  0  0  0  0  0  0  0  0
    3.8549    0.1400   -3.5539 H   0  0  0  0  0  0  0  0  0  0  0  0
    3.5391    1.6120   -1.1403 H   0  0  0  0  0  0  0  0  0  0  0  0
    1.2772    0.2492   -2.1290 H   0  0  0  0  0  0  0  0  0  0  0  0
   -1.3850    4.7092    0.5850 H   0  0  0  0  0  0  0  0  0  0  0  0
   -2.9632    4.5519   -1.9684 H   0  0  0  0  0  0  0  0  0  0  0  0
   -1.2476    4.5123   -2.4257 H   0  0  0  0  0  0  0  0  0  0  0  0
   -2.2505    8.2392   -2.2675 H   0  0  0  0  0  0  0  0  0  0  0  0
   -5.7605   -5.0917   -1.0143 H   0  0  0  0  0  0  0  0  0  0  0  0
  1  2  1  0
  1  3  1  0
  3  4  1  0
  4  5  1  0
  5  6  2  0
  5  7  1  0
  7  8  1  0
  8  9  1  0
  9 10  1  0
 10 11  1  0
 11 12  1  0
 12 13  2  0
 13 14  1  0
 14 15  2  0
 15 16  1  0
 16 17  2  0
 17 18  1  0
 18 19  2  0
 19 20  1  0
 20 21  2  0
 21 22  1  0
 22 23  2  0
 23 24  1  0
 24 25  1  0
  8 26  1  0
 26 27  2  0
 26 28  1  0
 28 29  1  0
 29 30  1  0
 30 31  1  0
 30 32  2  0
  1 33  1  0
 33 34  1  0
 33 35  2  0
 24 11  1  0
 17 12  1  0
 23 18  1  0
  1 36  1  1
  2 37  1  0
  2 38  1  0
  3 39  1  0
  3 40  1  0
  4 41  1  0
  4 42  1  0
  7 43  1  0
  8 44  1  1
  9 45  1  0
  9 46  1  0
 11 47  1  6
 13 48  1  0
 14 49  1  0
 15 50  1  0
 16 51  1  0
 19 52  1  0
 20 53  1  0
 21 54  1  0
 22 55  1  0
 24 56  1  1
 25 57  1  0
 28 58  1  0
 29 59  1  0
 29 60  1  0
 31 61  1  0
 34 62  1  0
M  END
$$$$
