
     RDKit          3D

 45 48  0  0  0  0  0  0  0  0999 V2000
    0.6170   -0.9990   -1.6281 O   0  0  0  0  0  0  0  0  0  0  0  0
    1.4223   -0.3709   -0.8773 C   0  0  0  0  0  0  0  0  0  0  0  0
    0.9336    0.7927   -0.1312 C   0  0  0  0  0  0  0  0  0  0  0  0
   -0.5026    1.0250   -0.5603 C   0  0  0  0  0  0  0  0  0  0  0  0
   -1.5170    0.4295    0.0845 N   0  0  0  0  0  0  0  0  0  0  0  0
   -2.8144    0.5971   -0.2501 C   0  0  0  0  0  0  0  0  0  0  0  0
   -3.8729   -0.0287    0.4291 N   0  0  0  0  0  0  0  0  0  0  0  0
   -5.2379    0.1911    0.0335 C   0  0  0  0  0  0  0  0  0  0  0  0
   -6.2179   -0.4139    1.0121 C   0  0  0  0  0  0  0  0  0  0  0  0
   -5.8527   -0.3084    2.3174 O   0  0  0  0  0  0  0  0  0  0  0  0
   -4.5495   -0.4928    2.6508 C   0  0  0  0  0  0  0  0  0  0  0  0
   -3.6265   -0.9069    1.5405 C   0  0  0  0  0  0  0  0  0  0  0  0
   -3.0484    1.4441   -1.3292 C   0  0  0  0  0  0  0  0  0  0  0  0
   -2.0194    2.0592   -1.9969 C   0  0  0  0  0  0  0  0  0  0  0  0
   -2.2718    2.8104   -2.9582 O   0  0  0  0  0  0  0  0  0  0  0  0
   -0.7603    1.8398   -1.6015 N   0  0  0  0  0  0  0  0  0  0  0  0
    2.7329   -0.8498   -0.8248 N   0  0  0  0  0  0  0  0  0  0  0  0
    3.2830   -2.0407   -1.4825 C   0  0  0  0  0  0  0  0  0  0  0  0
    4.6942   -1.5961   -1.8098 C   0  0  0  0  0  0  0  0  0  0  0  0
    5.0109   -0.6885   -0.6672 C   0  0  0  0  0  0  0  0  0  0  0  0
    6.2596   -0.3118   -0.2178 C   0  0  0  0  0  0  0  0  0  0  0  0
    7.7450   -0.8641   -0.9610 Cl  0  0  0  0  0  0  0  0  0  0  0  0
    6.3184    0.5359    0.8634 C   0  0  0  0  0  0  0  0  0  0  0  0
    5.1463    0.9720    1.4501 C   0  0  0  0  0  0  0  0  0  0  0  0
    3.9124    0.5803    0.9811 C   0  0  0  0  0  0  0  0  0  0  0  0
    3.8212   -0.2780   -0.1128 C   0  0  0  0  0  0  0  0  0  0  0  0
    0.8223    0.5721    0.9656 H   0  0  0  0  0  0  0  0  0  0  0  0
    1.4784    1.7264   -0.3143 H   0  0  0  0  0  0  0  0  0  0  0  0
   -5.4745    1.2568   -0.1489 H   0  0  0  0  0  0  0  0  0  0  0  0
   -5.3828   -0.3301   -0.9389 H   0  0  0  0  0  0  0  0  0  0  0  0
   -7.1835    0.1492    0.8760 H   0  0  0  0  0  0  0  0  0  0  0  0
   -6.4831   -1.4725    0.7399 H   0  0  0  0  0  0  0  0  0  0  0  0
   -4.1575    0.4974    3.0293 H   0  0  0  0  0  0  0  0  0  0  0  0
   -4.4319   -1.2336    3.4967 H   0  0  0  0  0  0  0  0  0  0  0  0
   -3.7887   -1.9806    1.2500 H   0  0  0  0  0  0  0  0  0  0  0  0
   -2.5868   -0.8323    1.9299 H   0  0  0  0  0  0  0  0  0  0  0  0
   -4.0839    1.5846   -1.6045 H   0  0  0  0  0  0  0  0  0  0  0  0
    0.0725    2.2745   -2.0635 H   0  0  0  0  0  0  0  0  0  0  0  0
    3.2495   -2.8837   -0.7744 H   0  0  0  0  0  0  0  0  0  0  0  0
    2.7467   -2.3149   -2.3870 H   0  0  0  0  0  0  0  0  0  0  0  0
    4.7621   -1.0690   -2.7613 H   0  0  0  0  0  0  0  0  0  0  0  0
    5.3428   -2.4936   -1.7441 H   0  0  0  0  0  0  0  0  0  0  0  0
    7.2775    0.8456    1.2342 H   0  0  0  0  0  0  0  0  0  0  0  0
    5.1998    1.6476    2.3115 H   0  0  0  0  0  0  0  0  0  0  0  0
    3.0157    0.9285    1.4475 H   0  0  0  0  0  0  0  0  0  0  0  0
  1  2  2  0
  2  3  1  0
  3  4  1  0
  4  5  2  0
  5  6  1  0
  6  7  1  0
  7  8  1  0
  8  9  1  0
  9 10  1  0
 10 11  1  0
 11 12  1  0
  6 13  2  0
 13 14  1  0
 14 15  2  0
 14 16  1  0
  2 17  1  0
 17 18  1  0
 18 19  1  0
 19 20  1  0
 20 21  2  0
 21 22  1  0
 21 23  1  0
 23 24  2  0
 24 25  1  0
 25 26  2  0
 16  4  1  0
 26 17  1  0
 12  7  1  0
 26 20  1  0
  3 27  1  0
  3 28  1  0
  8 29  1  0
  8 30  1  0
  9 31  1  0
  9 32  1  0
 11 33  1  0
 11 34  1  0
 12 35  1  0
 12 36  1  0
 13 37  1  0
 16 38  1  0
 18 39  1  0
 18 40  1  0
 19 41  1  0
 19 42  1  0
 23 43  1  0
 24 44  1  0
 25 45  1  0
M  END
$$$$
