@<TRIPOS>MOLECULE
*****
 45 48 0 0 0
SMALL
GASTEIGER

@<TRIPOS>ATOM
      1 O           0.6170   -0.9990   -1.6281 O.2     1  UNL1       -0.2748
      2 C           1.4223   -0.3709   -0.8773 C.2     1  UNL1        0.2271
      3 C           0.9336    0.7927   -0.1312 C.3     1  UNL1        0.0826
      4 C          -0.5026    1.0250   -0.5603 C.ar    1  UNL1        0.1206
      5 N          -1.5170    0.4295    0.0845 N.ar    1  UNL1       -0.2186
      6 C          -2.8144    0.5971   -0.2501 C.ar    1  UNL1        0.1285
      7 N          -3.8729   -0.0287    0.4291 N.pl3   1  UNL1       -0.3106
      8 C          -5.2379    0.1911    0.0335 C.3     1  UNL1        0.0370
      9 C          -6.2179   -0.4139    1.0121 C.3     1  UNL1        0.0634
     10 O          -5.8527   -0.3084    2.3174 O.3     1  UNL1       -0.3767
     11 C          -4.5495   -0.4928    2.6508 C.3     1  UNL1        0.0634
     12 C          -3.6265   -0.9069    1.5405 C.3     1  UNL1        0.0370
     13 C          -3.0484    1.4441   -1.3292 C.ar    1  UNL1        0.0427
     14 C          -2.0194    2.0592   -1.9969 C.ar    1  UNL1        0.2533
     15 O          -2.2718    2.8104   -2.9582 O.2     1  UNL1       -0.2677
     16 N          -0.7603    1.8398   -1.6015 N.ar    1  UNL1       -0.3104
     17 N           2.7329   -0.8498   -0.8248 N.am    1  UNL1       -0.2704
     18 C           3.2830   -2.0407   -1.4825 C.3     1  UNL1        0.0239
     19 C           4.6942   -1.5961   -1.8098 C.3     1  UNL1       -0.0083
     20 C           5.0109   -0.6885   -0.6672 C.ar    1  UNL1       -0.0062
     21 C           6.2596   -0.3118   -0.2178 C.ar    1  UNL1        0.0460
     22 CL          7.7450   -0.8641   -0.9610 Cl      1  UNL1       -0.0832
     23 C           6.3184    0.5359    0.8634 C.ar    1  UNL1       -0.0430
     24 C           5.1463    0.9720    1.4501 C.ar    1  UNL1       -0.0586
     25 C           3.9124    0.5803    0.9811 C.ar    1  UNL1       -0.0399
     26 C           3.8212   -0.2780   -0.1128 C.ar    1  UNL1        0.0409
     27 H           0.8223    0.5721    0.9656 H       1  UNL1        0.0438
     28 H           1.4784    1.7264   -0.3143 H       1  UNL1        0.0438
     29 H          -5.4745    1.2568   -0.1489 H       1  UNL1        0.0487
     30 H          -5.3828   -0.3301   -0.9389 H       1  UNL1        0.0487
     31 H          -7.1835    0.1492    0.8760 H       1  UNL1        0.0575
     32 H          -6.4831   -1.4725    0.7399 H       1  UNL1        0.0575
     33 H          -4.1575    0.4974    3.0293 H       1  UNL1        0.0575
     34 H          -4.4319   -1.2336    3.4967 H       1  UNL1        0.0575
     35 H          -3.7887   -1.9806    1.2500 H       1  UNL1        0.0487
     36 H          -2.5868   -0.8323    1.9299 H       1  UNL1        0.0487
     37 H          -4.0839    1.5846   -1.6045 H       1  UNL1        0.0706
     38 H           0.0725    2.2745   -2.0635 H       1  UNL1        0.1700
     39 H           3.2495   -2.8837   -0.7744 H       1  UNL1        0.0472
     40 H           2.7467   -2.3149   -2.3870 H       1  UNL1        0.0472
     41 H           4.7621   -1.0690   -2.7613 H       1  UNL1        0.0330
     42 H           5.3428   -2.4936   -1.7441 H       1  UNL1        0.0330
     43 H           7.2775    0.8456    1.2342 H       1  UNL1        0.0632
     44 H           5.1998    1.6476    2.3115 H       1  UNL1        0.0619
     45 H           3.0157    0.9285    1.4475 H       1  UNL1        0.0636
@<TRIPOS>BOND
     1     1     2    2
     2     2     3    1
     3     3     4    1
     4     4     5   ar
     5     5     6   ar
     6     6     7    1
     7     7     8    1
     8     8     9    1
     9     9    10    1
    10    10    11    1
    11    11    12    1
    12     6    13   ar
    13    13    14   ar
    14    14    15    2
    15    14    16   ar
    16     2    17   am
    17    17    18    1
    18    18    19    1
    19    19    20    1
    20    20    21   ar
    21    21    22    1
    22    21    23   ar
    23    23    24   ar
    24    24    25   ar
    25    25    26   ar
    26    16     4   ar
    27    26    17    1
    28    12     7    1
    29    26    20   ar
    30     3    27    1
    31     3    28    1
    32     8    29    1
    33     8    30    1
    34     9    31    1
    35     9    32    1
    36    11    33    1
    37    11    34    1
    38    12    35    1
    39    12    36    1
    40    13    37    1
    41    16    38    1
    42    18    39    1
    43    18    40    1
    44    19    41    1
    45    19    42    1
    46    23    43    1
    47    24    44    1
    48    25    45    1
