@<TRIPOS>MOLECULE
*****
 41 43 0 0 0
SMALL
GASTEIGER

@<TRIPOS>ATOM
      1 C          -3.7241    0.3677    0.4207 C.3     1  UNL1        0.0080
      2 C          -3.8321    0.2667    1.9297 C.3     1  UNL1        0.0188
      3 N          -3.2209   -1.0100    2.2276 N.am    1  UNL1       -0.3147
      4 C          -3.6963   -1.8232    1.1617 C.2     1  UNL1        0.2137
      5 O          -3.8288   -3.0793    0.9624 O.2     1  UNL1       -0.2758
      6 C          -4.1393   -1.0039    0.0184 C.3     1  UNL1        0.0322
      7 C          -2.3538    0.7245   -0.0261 C.ar    1  UNL1       -0.0387
      8 C          -1.2025   -0.0434    0.1583 C.ar    1  UNL1       -0.0128
      9 C           0.0583    0.3724   -0.2954 C.ar    1  UNL1        0.1626
     10 O           0.9838   -0.5658    0.0203 O.3     1  UNL1       -0.4852
     11 C           2.3421   -0.6398   -0.1961 C.3     1  UNL1        0.1004
     12 C           3.0734   -0.7504    1.1509 C.3     1  UNL1       -0.0158
     13 C           4.4451   -1.2318    0.7718 C.3     1  UNL1       -0.0496
     14 C           4.2628   -2.0224   -0.5020 C.3     1  UNL1       -0.0496
     15 C           2.7787   -1.9591   -0.8202 C.3     1  UNL1       -0.0158
     16 C           0.1191    1.5871   -0.9406 C.ar    1  UNL1        0.1615
     17 O           1.3867    1.9181   -1.3513 O.3     1  UNL1       -0.4915
     18 C           1.6468    3.1284   -2.0316 C.3     1  UNL1        0.0790
     19 C          -0.9749    2.3927   -1.1555 C.ar    1  UNL1       -0.0160
     20 C          -2.1933    1.9456   -0.6934 C.ar    1  UNL1       -0.0546
     21 H          -4.4674    1.1531    0.0675 H       1  UNL1        0.0369
     22 H          -3.3328    1.1066    2.4423 H       1  UNL1        0.0468
     23 H          -4.9250    0.2337    2.1654 H       1  UNL1        0.0468
     24 H          -2.5897   -1.4591    2.9368 H       1  UNL1        0.1487
     25 H          -3.7877   -1.3355   -0.9645 H       1  UNL1        0.0365
     26 H          -5.2527   -1.0298    0.0221 H       1  UNL1        0.0365
     27 H          -1.4408   -0.9619    0.6802 H       1  UNL1        0.0658
     28 H           2.7756    0.2159   -0.7239 H       1  UNL1        0.0733
     29 H           2.5256   -1.5156    1.7415 H       1  UNL1        0.0301
     30 H           3.0888    0.2286    1.6332 H       1  UNL1        0.0301
     31 H           5.1198   -0.3463    0.6122 H       1  UNL1        0.0266
     32 H           4.8715   -1.8483    1.5822 H       1  UNL1        0.0266
     33 H           4.6083   -3.0611   -0.3304 H       1  UNL1        0.0266
     34 H           4.8891   -1.5793   -1.3093 H       1  UNL1        0.0266
     35 H           2.5927   -1.9760   -1.9078 H       1  UNL1        0.0301
     36 H           2.2730   -2.7616   -0.2809 H       1  UNL1        0.0301
     37 H           2.7072    3.3657   -2.0732 H       1  UNL1        0.0660
     38 H           1.1617    3.1061   -3.0499 H       1  UNL1        0.0660
     39 H           1.1146    3.9693   -1.5084 H       1  UNL1        0.0660
     40 H          -0.8260    3.3288   -1.6719 H       1  UNL1        0.0655
     41 H          -3.0366    2.5925   -0.8726 H       1  UNL1        0.0622
@<TRIPOS>BOND
     1     1     2    1
     2     2     3    1
     3     3     4   am
     4     4     5    2
     5     4     6    1
     6     1     7    1
     7     7     8   ar
     8     8     9   ar
     9     9    10    1
    10    10    11    1
    11    11    12    1
    12    12    13    1
    13    13    14    1
    14    14    15    1
    15     9    16   ar
    16    16    17    1
    17    17    18    1
    18    16    19   ar
    19    19    20   ar
    20     6     1    1
    21    20     7   ar
    22    15    11    1
    23     1    21    1
    24     2    22    1
    25     2    23    1
    26     3    24    1
    27     6    25    1
    28     6    26    1
    29     8    27    1
    30    11    28    1
    31    12    29    1
    32    12    30    1
    33    13    31    1
    34    13    32    1
    35    14    33    1
    36    14    34    1
    37    15    35    1
    38    15    36    1
    39    18    37    1
    40    18    38    1
    41    18    39    1
    42    19    40    1
    43    20    41    1
