
     RDKit          3D

 41 43  0  0  0  0  0  0  0  0999 V2000
   -3.7241    0.3677    0.4207 C   0  0  2  0  0  0  0  0  0  0  0  0
   -3.8321    0.2667    1.9297 C   0  0  0  0  0  0  0  0  0  0  0  0
   -3.2209   -1.0100    2.2276 N   0  0  0  0  0  0  0  0  0  0  0  0
   -3.6963   -1.8232    1.1617 C   0  0  0  0  0  0  0  0  0  0  0  0
   -3.8288   -3.0793    0.9624 O   0  0  0  0  0  0  0  0  0  0  0  0
   -4.1393   -1.0039    0.0184 C   0  0  0  0  0  0  0  0  0  0  0  0
   -2.3538    0.7245   -0.0261 C   0  0  0  0  0  0  0  0  0  0  0  0
   -1.2025   -0.0434    0.1583 C   0  0  0  0  0  0  0  0  0  0  0  0
    0.0583    0.3724   -0.2954 C   0  0  0  0  0  0  0  0  0  0  0  0
    0.9838   -0.5658    0.0203 O   0  0  0  0  0  0  0  0  0  0  0  0
    2.3421   -0.6398   -0.1961 C   0  0  0  0  0  0  0  0  0  0  0  0
    3.0734   -0.7504    1.1509 C   0  0  0  0  0  0  0  0  0  0  0  0
    4.4451   -1.2318    0.7718 C   0  0  0  0  0  0  0  0  0  0  0  0
    4.2628   -2.0224   -0.5020 C   0  0  0  0  0  0  0  0  0  0  0  0
    2.7787   -1.9591   -0.8202 C   0  0  0  0  0  0  0  0  0  0  0  0
    0.1191    1.5871   -0.9406 C   0  0  0  0  0  0  0  0  0  0  0  0
    1.3867    1.9181   -1.3513 O   0  0  0  0  0  0  0  0  0  0  0  0
    1.6468    3.1284   -2.0316 C   0  0  0  0  0  0  0  0  0  0  0  0
   -0.9749    2.3927   -1.1555 C   0  0  0  0  0  0  0  0  0  0  0  0
   -2.1933    1.9456   -0.6934 C   0  0  0  0  0  0  0  0  0  0  0  0
   -4.4674    1.1531    0.0675 H   0  0  0  0  0  0  0  0  0  0  0  0
   -3.3328    1.1066    2.4423 H   0  0  0  0  0  0  0  0  0  0  0  0
   -4.9250    0.2337    2.1654 H   0  0  0  0  0  0  0  0  0  0  0  0
   -2.5897   -1.4591    2.9368 H   0  0  0  0  0  0  0  0  0  0  0  0
   -3.7877   -1.3355   -0.9645 H   0  0  0  0  0  0  0  0  0  0  0  0
   -5.2527   -1.0298    0.0221 H   0  0  0  0  0  0  0  0  0  0  0  0
   -1.4408   -0.9619    0.6802 H   0  0  0  0  0  0  0  0  0  0  0  0
    2.7756    0.2159   -0.7239 H   0  0  0  0  0  0  0  0  0  0  0  0
    2.5256   -1.5156    1.7415 H   0  0  0  0  0  0  0  0  0  0  0  0
    3.0888    0.2286    1.6332 H   0  0  0  0  0  0  0  0  0  0  0  0
    5.1198   -0.3463    0.6122 H   0  0  0  0  0  0  0  0  0  0  0  0
    4.8715   -1.8483    1.5822 H   0  0  0  0  0  0  0  0  0  0  0  0
    4.6083   -3.0611   -0.3304 H   0  0  0  0  0  0  0  0  0  0  0  0
    4.8891   -1.5793   -1.3093 H   0  0  0  0  0  0  0  0  0  0  0  0
    2.5927   -1.9760   -1.9078 H   0  0  0  0  0  0  0  0  0  0  0  0
    2.2730   -2.7616   -0.2809 H   0  0  0  0  0  0  0  0  0  0  0  0
    2.7072    3.3657   -2.0732 H   0  0  0  0  0  0  0  0  0  0  0  0
    1.1617    3.1061   -3.0499 H   0  0  0  0  0  0  0  0  0  0  0  0
    1.1146    3.9693   -1.5084 H   0  0  0  0  0  0  0  0  0  0  0  0
   -0.8260    3.3288   -1.6719 H   0  0  0  0  0  0  0  0  0  0  0  0
   -3.0366    2.5925   -0.8726 H   0  0  0  0  0  0  0  0  0  0  0  0
  1  2  1  0
  2  3  1  0
  3  4  1  0
  4  5  2  0
  4  6  1  0
  1  7  1  0
  7  8  2  0
  8  9  1  0
  9 10  1  0
 10 11  1  0
 11 12  1  0
 12 13  1  0
 13 14  1  0
 14 15  1  0
  9 16  2  0
 16 17  1  0
 17 18  1  0
 16 19  1  0
 19 20  2  0
  6  1  1  0
 20  7  1  0
 15 11  1  0
  1 21  1  6
  2 22  1  0
  2 23  1  0
  3 24  1  0
  6 25  1  0
  6 26  1  0
  8 27  1  0
 11 28  1  0
 12 29  1  0
 12 30  1  0
 13 31  1  0
 13 32  1  0
 14 33  1  0
 14 34  1  0
 15 35  1  0
 15 36  1  0
 18 37  1  0
 18 38  1  0
 18 39  1  0
 19 40  1  0
 20 41  1  0
M  END
$$$$
