@<TRIPOS>MOLECULE
*****
 46 49 0 0 0
SMALL
GASTEIGER

@<TRIPOS>ATOM
      1 C          -5.9786    0.3973    1.0960 C.3     1  UNL1       -0.0611
      2 C          -4.6302    0.4268    1.8196 C.3     1  UNL1       -0.0271
      3 C          -3.5142    0.5864    0.8492 C.ar    1  UNL1       -0.0054
      4 C          -3.3010    1.8568    0.3076 C.ar    1  UNL1        0.1235
      5 O          -4.1134    2.9171    0.6740 O.3     1  UNL1       -0.5064
      6 C          -2.2682    2.0300   -0.5961 C.ar    1  UNL1        0.0222
      7 C          -1.4766    0.9546   -0.9414 C.ar    1  UNL1        0.1295
      8 O          -0.4276    1.0724   -1.8436 O.3     1  UNL1       -0.5060
      9 C          -1.6922   -0.2984   -0.4025 C.ar    1  UNL1        0.0423
     10 C          -2.7225   -0.4847    0.5028 C.ar    1  UNL1       -0.0424
     11 C          -0.9199   -1.5030   -0.6938 C.ar    1  UNL1        0.0772
     12 C           0.4050   -1.8200   -0.4776 C.ar    1  UNL1        0.0303
     13 C           0.6387   -3.1080   -0.9430 C.ar    1  UNL1        0.0680
     14 C           1.9512   -3.7994   -0.8812 C.3     1  UNL1       -0.0200
     15 N          -0.5227   -3.5763   -1.4377 N.ar    1  UNL1       -0.1780
     16 N          -1.4402   -2.6091   -1.2821 N.ar    1  UNL1       -0.2760
     17 C           1.3552   -0.9066    0.1457 C.ar    1  UNL1       -0.0104
     18 C           1.2685   -0.3929    1.4444 C.ar    1  UNL1       -0.0502
     19 C           2.2687    0.4618    1.8687 C.ar    1  UNL1       -0.0157
     20 C           3.3461    0.8402    1.0937 C.ar    1  UNL1        0.1621
     21 O           4.2846    1.7081    1.6420 O.3     1  UNL1       -0.4849
     22 C           5.3266    2.1958    0.8185 C.3     1  UNL1        0.1237
     23 C           5.6949    1.2205   -0.2761 C.3     1  UNL1        0.1237
     24 O           4.5236    0.7429   -0.9127 O.3     1  UNL1       -0.4849
     25 C           3.4256    0.3235   -0.2003 C.ar    1  UNL1        0.1626
     26 C           2.4313   -0.5307   -0.6327 C.ar    1  UNL1       -0.0085
     27 H          -6.6528    1.2037    1.4111 H       1  UNL1        0.0233
     28 H          -5.7624    0.4511    0.0019 H       1  UNL1        0.0233
     29 H          -6.4492   -0.6112    1.2434 H       1  UNL1        0.0233
     30 H          -4.6564    1.3210    2.4714 H       1  UNL1        0.0312
     31 H          -4.5452   -0.4589    2.4576 H       1  UNL1        0.0312
     32 H          -3.7909    3.8557    0.8092 H       1  UNL1        0.2921
     33 H          -2.0950    3.0085   -1.0197 H       1  UNL1        0.0691
     34 H          -0.5146    1.6878   -2.6662 H       1  UNL1        0.2922
     35 H          -2.9562   -1.4486    0.9720 H       1  UNL1        0.0629
     36 H           2.5907   -3.4031   -1.7120 H       1  UNL1        0.0293
     37 H           1.8518   -4.8972   -0.8864 H       1  UNL1        0.0293
     38 H           2.5251   -3.5558    0.0452 H       1  UNL1        0.0293
     39 H          -2.4123   -2.8186   -1.6216 H       1  UNL1        0.1889
     40 H           0.4264   -0.7046    2.0138 H       1  UNL1        0.0625
     41 H           2.1631    0.8379    2.8785 H       1  UNL1        0.0655
     42 H           6.1937    2.3986    1.4773 H       1  UNL1        0.0731
     43 H           5.0726    3.1677    0.3503 H       1  UNL1        0.0731
     44 H           6.2715    1.7584   -1.0565 H       1  UNL1        0.0731
     45 H           6.2802    0.4017    0.1580 H       1  UNL1        0.0731
     46 H           2.5473   -0.8992   -1.6455 H       1  UNL1        0.0661
@<TRIPOS>BOND
     1     1     2    1
     2     2     3    1
     3     3     4   ar
     4     4     5    1
     5     4     6   ar
     6     6     7   ar
     7     7     8    1
     8     7     9   ar
     9     9    10   ar
    10     9    11    1
    11    11    12   ar
    12    12    13   ar
    13    13    14    1
    14    13    15   ar
    15    15    16   ar
    16    12    17    1
    17    17    18   ar
    18    18    19   ar
    19    19    20   ar
    20    20    21    1
    21    21    22    1
    22    22    23    1
    23    23    24    1
    24    24    25    1
    25    25    26   ar
    26    10     3   ar
    27    16    11   ar
    28    26    17   ar
    29    25    20   ar
    30     1    27    1
    31     1    28    1
    32     1    29    1
    33     2    30    1
    34     2    31    1
    35     5    32    1
    36     6    33    1
    37     8    34    1
    38    10    35    1
    39    14    36    1
    40    14    37    1
    41    14    38    1
    42    16    39    1
    43    18    40    1
    44    19    41    1
    45    22    42    1
    46    22    43    1
    47    23    44    1
    48    23    45    1
    49    26    46    1
