
     RDKit          3D

 75 77  0  0  0  0  0  0  0  0999 V2000
    3.0942    0.4325   -3.8059 C   0  0  0  0  0  0  0  0  0  0  0  0
    2.1876   -0.5971   -3.2268 C   0  0  0  0  0  0  0  0  0  0  0  0
    2.3233   -1.8648   -4.0702 C   0  0  0  0  0  0  0  0  0  0  0  0
    2.3568   -0.8887   -1.7682 C   0  0  0  0  0  0  0  0  0  0  0  0
    2.1437    0.2206   -0.9346 N   0  0  0  0  0  0  0  0  0  0  0  0
    0.9924    0.1182   -0.0664 C   0  0  0  0  0  0  0  0  0  0  0  0
    0.0949    1.3044   -0.3364 C   0  0  1  0  0  0  0  0  0  0  0  0
   -0.3013    1.2865   -1.6600 O   0  0  0  0  0  0  0  0  0  0  0  0
    0.0612    2.6825   -2.5117 P   0  0  0  0  0  0  0  0  0  0  0  0
   -1.2289    3.7717   -2.2991 O   0  0  0  0  0  0  0  0  0  0  0  0
    1.4920    3.4102   -2.0158 O   0  0  0  0  0  0  0  0  0  0  0  0
    0.1935    2.3160   -3.9836 O   0  0  0  0  0  0  0  0  0  0  0  0
   -1.1351    1.2838    0.5723 C   0  0  2  0  0  0  0  0  0  0  0  0
   -0.7615    1.4750    2.0061 C   0  0  0  0  0  0  0  0  0  0  0  0
   -1.9466    1.4576    2.9003 C   0  0  0  0  0  0  0  0  0  0  0  0
   -2.5280    2.6978    3.1158 C   0  0  0  0  0  0  0  0  0  0  0  0
   -3.6379    2.8744    3.9186 C   0  0  0  0  0  0  0  0  0  0  0  0
   -4.1741    1.7540    4.5217 C   0  0  0  0  0  0  0  0  0  0  0  0
   -3.5940    0.5295    4.3045 C   0  0  0  0  0  0  0  0  0  0  0  0
   -2.4897    0.3454    3.5072 C   0  0  0  0  0  0  0  0  0  0  0  0
   -1.9482    0.1110    0.3710 N   0  0  0  0  0  0  0  0  0  0  0  0
   -3.2837   -0.0098   -0.1602 C   0  0  0  0  0  0  0  0  0  0  0  0
   -3.8908    1.0297   -0.5235 O   0  0  0  0  0  0  0  0  0  0  0  0
   -3.7482   -1.3140   -0.2046 O   0  0  0  0  0  0  0  0  0  0  0  0
   -5.0472   -1.5467   -0.7089 C   0  0  1  0  0  0  0  0  0  0  0  0
   -5.0194   -2.4577   -1.9219 C   0  0  0  0  0  0  0  0  0  0  0  0
   -6.3109   -3.2274   -1.7441 C   0  0  0  0  0  0  0  0  0  0  0  0
   -6.3507   -3.4449   -0.3878 O   0  0  0  0  0  0  0  0  0  0  0  0
   -5.9104   -2.3103    0.2496 C   0  0  0  0  0  0  0  0  0  0  0  0
    3.4396    1.0654   -0.2986 S   0  0  0  0  0  0  0  0  0  0  0  0
    2.8688    2.1974    0.5592 O   0  0  0  0  0  0  0  0  0  0  0  0
    4.2290    1.7514   -1.3608 O   0  0  0  0  0  0  0  0  0  0  0  0
    4.4734    0.0865    0.7451 C   0  0  0  0  0  0  0  0  0  0  0  0
    4.1671    0.0516    2.1080 C   0  0  0  0  0  0  0  0  0  0  0  0
    4.9461   -0.7001    2.9628 C   0  0  0  0  0  0  0  0  0  0  0  0
    6.0173   -1.4068    2.4565 C   0  0  0  0  0  0  0  0  0  0  0  0
    6.8521   -2.1944    3.2784 N   0  0  0  0  0  0  0  0  0  0  0  0
    6.3349   -1.3837    1.1106 C   0  0  0  0  0  0  0  0  0  0  0  0
    5.5547   -0.6266    0.2331 C   0  0  0  0  0  0  0  0  0  0  0  0
    4.1278    0.1761   -3.5518 H   0  0  0  0  0  0  0  0  0  0  0  0
    2.7819    1.4633   -3.6223 H   0  0  0  0  0  0  0  0  0  0  0  0
    3.0545    0.3194   -4.9378 H   0  0  0  0  0  0  0  0  0  0  0  0
    1.1422   -0.2540   -3.4232 H   0  0  0  0  0  0  0  0  0  0  0  0
    3.3934   -2.0720   -4.2664 H   0  0  0  0  0  0  0  0  0  0  0  0
    1.8571   -1.7178   -5.0671 H   0  0  0  0  0  0  0  0  0  0  0  0
    1.8708   -2.7150   -3.5474 H   0  0  0  0  0  0  0  0  0  0  0  0
    3.3180   -1.4266   -1.5945 H   0  0  0  0  0  0  0  0  0  0  0  0
    1.5798   -1.6771   -1.5245 H   0  0  0  0  0  0  0  0  0  0  0  0
    1.3624    0.1502    0.9830 H   0  0  0  0  0  0  0  0  0  0  0  0
    0.4506   -0.8242   -0.1745 H   0  0  0  0  0  0  0  0  0  0  0  0
    0.5954    2.2658   -0.1087 H   0  0  0  0  0  0  0  0  0  0  0  0
   -2.0657    3.2913   -2.5740 H   0  0  0  0  0  0  0  0  0  0  0  0
    1.3462    4.3864   -1.9118 H   0  0  0  0  0  0  0  0  0  0  0  0
   -1.7308    2.1782    0.2398 H   0  0  0  0  0  0  0  0  0  0  0  0
   -0.1301    0.5903    2.2998 H   0  0  0  0  0  0  0  0  0  0  0  0
   -0.1894    2.4158    2.1352 H   0  0  0  0  0  0  0  0  0  0  0  0
   -2.1439    3.6148    2.6632 H   0  0  0  0  0  0  0  0  0  0  0  0
   -4.0781    3.8707    4.0718 H   0  0  0  0  0  0  0  0  0  0  0  0
   -5.0524    1.8266    5.1691 H   0  0  0  0  0  0  0  0  0  0  0  0
   -4.0246   -0.3367    4.7826 H   0  0  0  0  0  0  0  0  0  0  0  0
   -2.0077   -0.5895    3.3119 H   0  0  0  0  0  0  0  0  0  0  0  0
   -1.3903   -0.7107    0.6903 H   0  0  0  0  0  0  0  0  0  0  0  0
   -5.4990   -0.5562   -1.0035 H   0  0  0  0  0  0  0  0  0  0  0  0
   -5.0047   -1.8994   -2.8851 H   0  0  0  0  0  0  0  0  0  0  0  0
   -4.1211   -3.1147   -1.8048 H   0  0  0  0  0  0  0  0  0  0  0  0
   -6.1949   -4.1835   -2.2964 H   0  0  0  0  0  0  0  0  0  0  0  0
   -7.1107   -2.5921   -2.1487 H   0  0  0  0  0  0  0  0  0  0  0  0
   -5.2548   -2.6329    1.0906 H   0  0  0  0  0  0  0  0  0  0  0  0
   -6.7047   -1.6629    0.6328 H   0  0  0  0  0  0  0  0  0  0  0  0
    3.3109    0.6247    2.4709 H   0  0  0  0  0  0  0  0  0  0  0  0
    4.7211   -0.7403    4.0394 H   0  0  0  0  0  0  0  0  0  0  0  0
    7.0053   -3.1726    2.9472 H   0  0  0  0  0  0  0  0  0  0  0  0
    7.3919   -2.1159    4.1501 H   0  0  0  0  0  0  0  0  0  0  0  0
    7.1622   -1.9189    0.6639 H   0  0  0  0  0  0  0  0  0  0  0  0
    5.7159   -0.5410   -0.8312 H   0  0  0  0  0  0  0  0  0  0  0  0
  1  2  1  0
  2  3  1  0
  2  4  1  0
  4  5  1  0
  5  6  1  0
  6  7  1  0
  7  8  1  0
  8  9  1  0
  9 10  1  0
  9 11  1  0
  9 12  2  0
  7 13  1  0
 13 14  1  0
 14 15  1  0
 15 16  2  0
 16 17  1  0
 17 18  2  0
 18 19  1  0
 19 20  2  0
 13 21  1  0
 21 22  1  0
 22 23  2  0
 22 24  1  0
 24 25  1  0
 25 26  1  0
 26 27  1  0
 27 28  1  0
 28 29  1  0
  5 30  1  0
 30 31  2  0
 30 32  2  0
 30 33  1  0
 33 34  2  0
 34 35  1  0
 35 36  2  0
 36 37  1  0
 36 38  1  0
 38 39  2  0
 20 15  1  0
 29 25  1  0
 39 33  1  0
  1 40  1  0
  1 41  1  0
  1 42  1  0
  2 43  1  0
  3 44  1  0
  3 45  1  0
  3 46  1  0
  4 47  1  0
  4 48  1  0
  6 49  1  0
  6 50  1  0
  7 51  1  6
 10 52  1  0
 11 53  1  0
 13 54  1  6
 14 55  1  0
 14 56  1  0
 16 57  1  0
 17 58  1  0
 18 59  1  0
 19 60  1  0
 20 61  1  0
 21 62  1  0
 25 63  1  6
 26 64  1  0
 26 65  1  0
 27 66  1  0
 27 67  1  0
 29 68  1  0
 29 69  1  0
 34 70  1  0
 35 71  1  0
 37 72  1  0
 37 73  1  0
 38 74  1  0
 39 75  1  0
M  END
$$$$
