@<TRIPOS>MOLECULE
*****
 75 77 0 0 0
SMALL
GASTEIGER

@<TRIPOS>ATOM
      1 C           3.0942    0.4325   -3.8059 C.3     1  UNL1       -0.0615
      2 C           2.1876   -0.5971   -3.2268 C.3     1  UNL1       -0.0323
      3 C           2.3233   -1.8648   -4.0702 C.3     1  UNL1       -0.0615
      4 C           2.3568   -0.8887   -1.7682 C.3     1  UNL1        0.0229
      5 N           2.1437    0.2206   -0.9346 N.3     1  UNL1       -0.1738
      6 C           0.9924    0.1182   -0.0664 C.3     1  UNL1        0.0491
      7 C           0.0949    1.3044   -0.3364 C.3     1  UNL1        0.1030
      8 O          -0.3013    1.2865   -1.6600 O.3     1  UNL1       -0.2803
      9 P           0.0612    2.6825   -2.5117 P.3     1  UNL1        0.4727
     10 O          -1.2289    3.7717   -2.2991 O.3     1  UNL1       -0.3026
     11 O           1.4920    3.4102   -2.0158 O.3     1  UNL1       -0.3026
     12 O           0.1935    2.3160   -3.9836 O.2     1  UNL1       -0.2275
     13 C          -1.1351    1.2838    0.5723 C.3     1  UNL1        0.0582
     14 C          -0.7615    1.4750    2.0061 C.3     1  UNL1       -0.0066
     15 C          -1.9466    1.4576    2.9003 C.ar    1  UNL1       -0.0455
     16 C          -2.5280    2.6978    3.1158 C.ar    1  UNL1       -0.0585
     17 C          -3.6379    2.8744    3.9186 C.ar    1  UNL1       -0.0615
     18 C          -4.1741    1.7540    4.5217 C.ar    1  UNL1       -0.0617
     19 C          -3.5940    0.5295    4.3045 C.ar    1  UNL1       -0.0615
     20 C          -2.4897    0.3454    3.5072 C.ar    1  UNL1       -0.0585
     21 N          -1.9482    0.1110    0.3710 N.am    1  UNL1       -0.2754
     22 C          -3.2837   -0.0098   -0.1602 C.2     1  UNL1        0.4009
     23 O          -3.8908    1.0297   -0.5235 O.2     1  UNL1       -0.2265
     24 O          -3.7482   -1.3140   -0.2046 O.3     1  UNL1       -0.4447
     25 C          -5.0472   -1.5467   -0.7089 C.3     1  UNL1        0.1299
     26 C          -5.0194   -2.4577   -1.9219 C.3     1  UNL1        0.0101
     27 C          -6.3109   -3.2274   -1.7441 C.3     1  UNL1        0.0513
     28 O          -6.3507   -3.4449   -0.3878 O.3     1  UNL1       -0.3760
     29 C          -5.9104   -2.3103    0.2496 C.3     1  UNL1        0.0848
     30 S           3.4396    1.0654   -0.2986 S.O2    1  UNL1        0.0609
     31 O           2.8688    2.1974    0.5592 O.2     1  UNL1       -0.1528
     32 O           4.2290    1.7514   -1.3608 O.2     1  UNL1       -0.1528
     33 C           4.4734    0.0865    0.7451 C.ar    1  UNL1        0.1056
     34 C           4.1671    0.0516    2.1080 C.ar    1  UNL1       -0.0336
     35 C           4.9461   -0.7001    2.9628 C.ar    1  UNL1       -0.0392
     36 C           6.0173   -1.4068    2.4565 C.ar    1  UNL1        0.0247
     37 N           6.8521   -2.1944    3.2784 N.pl3   1  UNL1       -0.3580
     38 C           6.3349   -1.3837    1.1106 C.ar    1  UNL1       -0.0392
     39 C           5.5547   -0.6266    0.2331 C.ar    1  UNL1       -0.0336
     40 H           4.1278    0.1761   -3.5518 H       1  UNL1        0.0233
     41 H           2.7819    1.4633   -3.6223 H       1  UNL1        0.0233
     42 H           3.0545    0.3194   -4.9378 H       1  UNL1        0.0233
     43 H           1.1422   -0.2540   -3.4232 H       1  UNL1        0.0308
     44 H           3.3934   -2.0720   -4.2664 H       1  UNL1        0.0233
     45 H           1.8571   -1.7178   -5.0671 H       1  UNL1        0.0233
     46 H           1.8708   -2.7150   -3.5474 H       1  UNL1        0.0233
     47 H           3.3180   -1.4266   -1.5945 H       1  UNL1        0.0446
     48 H           1.5798   -1.6771   -1.5245 H       1  UNL1        0.0446
     49 H           1.3624    0.1502    0.9830 H       1  UNL1        0.0470
     50 H           0.4506   -0.8242   -0.1745 H       1  UNL1        0.0470
     51 H           0.5954    2.2658   -0.1087 H       1  UNL1        0.0634
     52 H          -2.0657    3.2913   -2.5740 H       1  UNL1        0.2220
     53 H           1.3462    4.3864   -1.9118 H       1  UNL1        0.2220
     54 H          -1.7308    2.1782    0.2398 H       1  UNL1        0.0529
     55 H          -0.1301    0.5903    2.2998 H       1  UNL1        0.0332
     56 H          -0.1894    2.4158    2.1352 H       1  UNL1        0.0332
     57 H          -2.1439    3.6148    2.6632 H       1  UNL1        0.0620
     58 H          -4.0781    3.8707    4.0718 H       1  UNL1        0.0618
     59 H          -5.0524    1.8266    5.1691 H       1  UNL1        0.0618
     60 H          -4.0246   -0.3367    4.7826 H       1  UNL1        0.0618
     61 H          -2.0077   -0.5895    3.3119 H       1  UNL1        0.0620
     62 H          -1.3903   -0.7107    0.6903 H       1  UNL1        0.1524
     63 H          -5.4990   -0.5562   -1.0035 H       1  UNL1        0.0758
     64 H          -5.0047   -1.8994   -2.8851 H       1  UNL1        0.0324
     65 H          -4.1211   -3.1147   -1.8048 H       1  UNL1        0.0324
     66 H          -6.1949   -4.1835   -2.2964 H       1  UNL1        0.0561
     67 H          -7.1107   -2.5921   -2.1487 H       1  UNL1        0.0561
     68 H          -5.2548   -2.6329    1.0906 H       1  UNL1        0.0597
     69 H          -6.7047   -1.6629    0.6328 H       1  UNL1        0.0597
     70 H           3.3109    0.6247    2.4709 H       1  UNL1        0.0638
     71 H           4.7211   -0.7403    4.0394 H       1  UNL1        0.0636
     72 H           7.0053   -3.1726    2.9472 H       1  UNL1        0.1423
     73 H           7.3919   -2.1159    4.1501 H       1  UNL1        0.1423
     74 H           7.1622   -1.9189    0.6639 H       1  UNL1        0.0636
     75 H           5.7159   -0.5410   -0.8312 H       1  UNL1        0.0638
@<TRIPOS>BOND
     1     1     2    1
     2     2     3    1
     3     2     4    1
     4     4     5    1
     5     5     6    1
     6     6     7    1
     7     7     8    1
     8     8     9    1
     9     9    10    1
    10     9    11    1
    11     9    12    2
    12     7    13    1
    13    13    14    1
    14    14    15    1
    15    15    16   ar
    16    16    17   ar
    17    17    18   ar
    18    18    19   ar
    19    19    20   ar
    20    13    21    1
    21    21    22   am
    22    22    23    2
    23    22    24    1
    24    24    25    1
    25    25    26    1
    26    26    27    1
    27    27    28    1
    28    28    29    1
    29     5    30    1
    30    30    31    2
    31    30    32    2
    32    30    33    1
    33    33    34   ar
    34    34    35   ar
    35    35    36   ar
    36    36    37    1
    37    36    38   ar
    38    38    39   ar
    39    20    15   ar
    40    29    25    1
    41    39    33   ar
    42     1    40    1
    43     1    41    1
    44     1    42    1
    45     2    43    1
    46     3    44    1
    47     3    45    1
    48     3    46    1
    49     4    47    1
    50     4    48    1
    51     6    49    1
    52     6    50    1
    53     7    51    1
    54    10    52    1
    55    11    53    1
    56    13    54    1
    57    14    55    1
    58    14    56    1
    59    16    57    1
    60    17    58    1
    61    18    59    1
    62    19    60    1
    63    20    61    1
    64    21    62    1
    65    25    63    1
    66    26    64    1
    67    26    65    1
    68    27    66    1
    69    27    67    1
    70    29    68    1
    71    29    69    1
    72    34    70    1
    73    35    71    1
    74    37    72    1
    75    37    73    1
    76    38    74    1
    77    39    75    1
