@<TRIPOS>MOLECULE
*****
 46 48 0 0 0
SMALL
GASTEIGER

@<TRIPOS>ATOM
      1 O          -3.8627    2.9038   -1.4636 O.2     1  UNL1       -0.2716
      2 C          -3.7279    2.0297   -0.6168 C.2     1  UNL1        0.2573
      3 N          -4.4662    2.0288    0.5773 N.am    1  UNL1       -0.1959
      4 O          -5.3867    3.0007    0.8762 O.3     1  UNL1       -0.2951
      5 C          -2.7176    0.8953   -0.8656 C.3     1  UNL1        0.1216
      6 N          -2.1445    1.2840   -2.1394 N.3     1  UNL1       -0.1748
      7 S          -0.9935    0.3763   -2.8863 S.O2    1  UNL1        0.0593
      8 O          -1.3902   -1.0326   -3.2438 O.2     1  UNL1       -0.1530
      9 O          -0.5513    0.9905   -4.2225 O.2     1  UNL1       -0.1530
     10 C           0.4628    0.2463   -1.9324 C.ar    1  UNL1        0.1055
     11 C           1.3476    1.3345   -1.9777 C.ar    1  UNL1       -0.0319
     12 C           2.5292    1.3399   -1.2964 C.ar    1  UNL1       -0.0175
     13 C           2.8918    0.2531   -0.5298 C.ar    1  UNL1        0.1286
     14 O           4.1004    0.2793    0.1567 O.3     1  UNL1       -0.4559
     15 C           4.5288   -0.7682    0.9414 C.ar    1  UNL1        0.1313
     16 C           4.2333   -0.8667    2.2719 C.ar    1  UNL1       -0.0012
     17 C           4.6876   -1.9397    3.0180 C.ar    1  UNL1        0.0310
     18 N           5.4284   -2.8817    2.3931 N.ar    1  UNL1       -0.2630
     19 C           5.7369   -2.8129    1.0818 C.ar    1  UNL1        0.0310
     20 C           5.2881   -1.7545    0.3483 C.ar    1  UNL1       -0.0012
     21 C           2.0232   -0.8166   -0.4850 C.ar    1  UNL1       -0.0175
     22 C           0.8136   -0.8342   -1.1765 C.ar    1  UNL1       -0.0319
     23 C          -1.7880    0.9999    0.2627 C.3     1  UNL1       -0.0009
     24 C          -1.6370   -0.2141    1.0989 C.3     1  UNL1        0.0498
     25 O          -2.0086   -1.3691    0.4193 O.3     1  UNL1       -0.3796
     26 C          -3.3820   -1.2925    0.1338 C.3     1  UNL1        0.0498
     27 C          -3.5316   -0.3204   -0.9815 C.3     1  UNL1       -0.0009
     28 H          -4.3442    1.2870    1.2958 H       1  UNL1        0.1823
     29 H          -4.9547    3.9026    0.8394 H       1  UNL1        0.2414
     30 H          -2.8869    1.7166   -2.7335 H       1  UNL1        0.1492
     31 H           1.0859    2.2032   -2.5742 H       1  UNL1        0.0638
     32 H           3.2274    2.1847   -1.3252 H       1  UNL1        0.0655
     33 H           3.6328   -0.0757    2.7162 H       1  UNL1        0.0669
     34 H           4.4441   -2.0040    4.0759 H       1  UNL1        0.0830
     35 H           6.3400   -3.6251    0.6764 H       1  UNL1        0.0830
     36 H           5.5367   -1.7048   -0.6954 H       1  UNL1        0.0669
     37 H           2.2880   -1.6757    0.1084 H       1  UNL1        0.0655
     38 H           0.1482   -1.6676   -1.1493 H       1  UNL1        0.0638
     39 H          -0.7425    1.2933   -0.0504 H       1  UNL1        0.0310
     40 H          -2.0473    1.8868    0.9500 H       1  UNL1        0.0310
     41 H          -0.5387   -0.3775    1.3387 H       1  UNL1        0.0560
     42 H          -2.2038   -0.1420    2.0704 H       1  UNL1        0.0560
     43 H          -3.8748   -1.0096    1.0612 H       1  UNL1        0.0560
     44 H          -3.6906   -2.3287   -0.1425 H       1  UNL1        0.0560
     45 H          -4.6167   -0.0293   -1.1218 H       1  UNL1        0.0310
     46 H          -3.2867   -0.8929   -1.9507 H       1  UNL1        0.0310
@<TRIPOS>BOND
     1     1     2    2
     2     2     3   am
     3     3     4    1
     4     2     5    1
     5     5     6    1
     6     6     7    1
     7     7     8    2
     8     7     9    2
     9     7    10    1
    10    10    11   ar
    11    11    12   ar
    12    12    13   ar
    13    13    14    1
    14    14    15    1
    15    15    16   ar
    16    16    17   ar
    17    17    18   ar
    18    18    19   ar
    19    19    20   ar
    20    13    21   ar
    21    21    22   ar
    22     5    23    1
    23    23    24    1
    24    24    25    1
    25    25    26    1
    26    26    27    1
    27    27     5    1
    28    22    10   ar
    29    20    15   ar
    30     3    28    1
    31     4    29    1
    32     6    30    1
    33    11    31    1
    34    12    32    1
    35    16    33    1
    36    17    34    1
    37    19    35    1
    38    20    36    1
    39    21    37    1
    40    22    38    1
    41    23    39    1
    42    23    40    1
    43    24    41    1
    44    24    42    1
    45    26    43    1
    46    26    44    1
    47    27    45    1
    48    27    46    1
