
     RDKit          3D

 46 48  0  0  0  0  0  0  0  0999 V2000
   -3.8627    2.9038   -1.4636 O   0  0  0  0  0  0  0  0  0  0  0  0
   -3.7279    2.0297   -0.6168 C   0  0  0  0  0  0  0  0  0  0  0  0
   -4.4662    2.0288    0.5773 N   0  0  0  0  0  0  0  0  0  0  0  0
   -5.3867    3.0007    0.8762 O   0  0  0  0  0  0  0  0  0  0  0  0
   -2.7176    0.8953   -0.8656 C   0  0  0  0  0  0  0  0  0  0  0  0
   -2.1445    1.2840   -2.1394 N   0  0  0  0  0  0  0  0  0  0  0  0
   -0.9935    0.3763   -2.8863 S   0  0  0  0  0  6  0  0  0  0  0  0
   -1.3902   -1.0326   -3.2438 O   0  0  0  0  0  0  0  0  0  0  0  0
   -0.5513    0.9905   -4.2225 O   0  0  0  0  0  0  0  0  0  0  0  0
    0.4628    0.2463   -1.9324 C   0  0  0  0  0  0  0  0  0  0  0  0
    1.3476    1.3345   -1.9777 C   0  0  0  0  0  0  0  0  0  0  0  0
    2.5292    1.3399   -1.2964 C   0  0  0  0  0  0  0  0  0  0  0  0
    2.8918    0.2531   -0.5298 C   0  0  0  0  0  0  0  0  0  0  0  0
    4.1004    0.2793    0.1567 O   0  0  0  0  0  0  0  0  0  0  0  0
    4.5288   -0.7682    0.9414 C   0  0  0  0  0  0  0  0  0  0  0  0
    4.2333   -0.8667    2.2719 C   0  0  0  0  0  0  0  0  0  0  0  0
    4.6876   -1.9397    3.0180 C   0  0  0  0  0  0  0  0  0  0  0  0
    5.4284   -2.8817    2.3931 N   0  0  0  0  0  0  0  0  0  0  0  0
    5.7369   -2.8129    1.0818 C   0  0  0  0  0  0  0  0  0  0  0  0
    5.2881   -1.7545    0.3483 C   0  0  0  0  0  0  0  0  0  0  0  0
    2.0232   -0.8166   -0.4850 C   0  0  0  0  0  0  0  0  0  0  0  0
    0.8136   -0.8342   -1.1765 C   0  0  0  0  0  0  0  0  0  0  0  0
   -1.7880    0.9999    0.2627 C   0  0  0  0  0  0  0  0  0  0  0  0
   -1.6370   -0.2141    1.0989 C   0  0  0  0  0  0  0  0  0  0  0  0
   -2.0086   -1.3691    0.4193 O   0  0  0  0  0  0  0  0  0  0  0  0
   -3.3820   -1.2925    0.1338 C   0  0  0  0  0  0  0  0  0  0  0  0
   -3.5316   -0.3204   -0.9815 C   0  0  0  0  0  0  0  0  0  0  0  0
   -4.3442    1.2870    1.2958 H   0  0  0  0  0  0  0  0  0  0  0  0
   -4.9547    3.9026    0.8394 H   0  0  0  0  0  0  0  0  0  0  0  0
   -2.8869    1.7166   -2.7335 H   0  0  0  0  0  0  0  0  0  0  0  0
    1.0859    2.2032   -2.5742 H   0  0  0  0  0  0  0  0  0  0  0  0
    3.2274    2.1847   -1.3252 H   0  0  0  0  0  0  0  0  0  0  0  0
    3.6328   -0.0757    2.7162 H   0  0  0  0  0  0  0  0  0  0  0  0
    4.4441   -2.0040    4.0759 H   0  0  0  0  0  0  0  0  0  0  0  0
    6.3400   -3.6251    0.6764 H   0  0  0  0  0  0  0  0  0  0  0  0
    5.5367   -1.7048   -0.6954 H   0  0  0  0  0  0  0  0  0  0  0  0
    2.2880   -1.6757    0.1084 H   0  0  0  0  0  0  0  0  0  0  0  0
    0.1482   -1.6676   -1.1493 H   0  0  0  0  0  0  0  0  0  0  0  0
   -0.7425    1.2933   -0.0504 H   0  0  0  0  0  0  0  0  0  0  0  0
   -2.0473    1.8868    0.9500 H   0  0  0  0  0  0  0  0  0  0  0  0
   -0.5387   -0.3775    1.3387 H   0  0  0  0  0  0  0  0  0  0  0  0
   -2.2038   -0.1420    2.0704 H   0  0  0  0  0  0  0  0  0  0  0  0
   -3.8748   -1.0096    1.0612 H   0  0  0  0  0  0  0  0  0  0  0  0
   -3.6906   -2.3287   -0.1425 H   0  0  0  0  0  0  0  0  0  0  0  0
   -4.6167   -0.0293   -1.1218 H   0  0  0  0  0  0  0  0  0  0  0  0
   -3.2867   -0.8929   -1.9507 H   0  0  0  0  0  0  0  0  0  0  0  0
  1  2  2  0
  2  3  1  0
  3  4  1  0
  2  5  1  0
  5  6  1  0
  6  7  1  0
  7  8  2  0
  7  9  2  0
  7 10  1  0
 10 11  2  0
 11 12  1  0
 12 13  2  0
 13 14  1  0
 14 15  1  0
 15 16  2  0
 16 17  1  0
 17 18  2  0
 18 19  1  0
 19 20  2  0
 13 21  1  0
 21 22  2  0
  5 23  1  0
 23 24  1  0
 24 25  1  0
 25 26  1  0
 26 27  1  0
 27  5  1  0
 22 10  1  0
 20 15  1  0
  3 28  1  0
  4 29  1  0
  6 30  1  0
 11 31  1  0
 12 32  1  0
 16 33  1  0
 17 34  1  0
 19 35  1  0
 20 36  1  0
 21 37  1  0
 22 38  1  0
 23 39  1  0
 23 40  1  0
 24 41  1  0
 24 42  1  0
 26 43  1  0
 26 44  1  0
 27 45  1  0
 27 46  1  0
M  END
$$$$
