
     RDKit          3D

 33 34  0  0  0  0  0  0  0  0999 V2000
   -3.8790   -0.7300    0.1080 C   0  0  1  0  0  0  0  0  0  0  0  0
   -4.2296   -2.1192   -0.3686 C   0  0  0  0  0  0  0  0  0  0  0  0
   -2.9171   -0.1104   -0.7082 O   0  0  0  0  0  0  0  0  0  0  0  0
   -1.6697    0.2667   -0.2524 C   0  0  0  0  0  0  0  0  0  0  0  0
   -0.9776    0.8487   -1.3235 C   0  0  0  0  0  0  0  0  0  0  0  0
    0.3264    1.3322   -1.1638 C   0  0  0  0  0  0  0  0  0  0  0  0
    0.9637    1.2472    0.0552 C   0  0  0  0  0  0  0  0  0  0  0  0
    2.2485    1.7085    0.2659 O   0  0  0  0  0  0  0  0  0  0  0  0
    3.3339    0.8718    0.0714 C   0  0  0  0  0  0  0  0  0  0  0  0
    3.2177   -0.4358   -0.3320 C   0  0  0  0  0  0  0  0  0  0  0  0
    4.3736   -1.1672   -0.4906 C   0  0  0  0  0  0  0  0  0  0  0  0
    5.6268   -0.6176   -0.2549 C   0  0  0  0  0  0  0  0  0  0  0  0
    7.0705   -1.5999   -0.4739 Cl  0  0  0  0  0  0  0  0  0  0  0  0
    5.7203    0.6986    0.1499 C   0  0  0  0  0  0  0  0  0  0  0  0
    4.5656    1.4595    0.3176 C   0  0  0  0  0  0  0  0  0  0  0  0
    4.7685    3.1267    0.8350 Cl  0  0  0  0  0  0  0  0  0  0  0  0
    0.2589    0.6699    1.0914 C   0  0  0  0  0  0  0  0  0  0  0  0
   -1.0175    0.1928    0.9485 C   0  0  0  0  0  0  0  0  0  0  0  0
   -5.0823    0.1284    0.2559 C   0  0  0  0  0  0  0  0  0  0  0  0
   -6.1484   -0.2827    1.0133 O   0  0  0  0  0  0  0  0  0  0  0  0
   -5.0577    1.2447   -0.3533 O   0  0  0  0  0  0  0  0  0  0  0  0
   -3.4711   -0.8516    1.1273 H   0  0  0  0  0  0  0  0  0  0  0  0
   -4.2185   -2.8724    0.4585 H   0  0  0  0  0  0  0  0  0  0  0  0
   -3.4435   -2.4241   -1.0911 H   0  0  0  0  0  0  0  0  0  0  0  0
   -5.2280   -2.0807   -0.8496 H   0  0  0  0  0  0  0  0  0  0  0  0
   -1.3104    1.0054   -2.3587 H   0  0  0  0  0  0  0  0  0  0  0  0
    0.9125    1.7904   -1.9478 H   0  0  0  0  0  0  0  0  0  0  0  0
    2.2491   -0.8501   -0.5110 H   0  0  0  0  0  0  0  0  0  0  0  0
    4.2667   -2.2049   -0.8116 H   0  0  0  0  0  0  0  0  0  0  0  0
    6.6814    1.1430    0.3377 H   0  0  0  0  0  0  0  0  0  0  0  0
    0.6652    0.5534    2.0896 H   0  0  0  0  0  0  0  0  0  0  0  0
   -1.6383   -0.2698    1.6983 H   0  0  0  0  0  0  0  0  0  0  0  0
   -6.9606    0.3286    1.1003 H   0  0  0  0  0  0  0  0  0  0  0  0
  1  2  1  0
  1  3  1  0
  3  4  1  0
  4  5  2  0
  5  6  1  0
  6  7  2  0
  7  8  1  0
  8  9  1  0
  9 10  2  0
 10 11  1  0
 11 12  2  0
 12 13  1  0
 12 14  1  0
 14 15  2  0
 15 16  1  0
  7 17  1  0
 17 18  2  0
  1 19  1  0
 19 20  1  0
 19 21  2  0
 18  4  1  0
 15  9  1  0
  1 22  1  1
  2 23  1  0
  2 24  1  0
  2 25  1  0
  5 26  1  0
  6 27  1  0
 10 28  1  0
 11 29  1  0
 14 30  1  0
 17 31  1  0
 18 32  1  0
 20 33  1  0
M  END
$$$$
