@<TRIPOS>MOLECULE
*****
 33 34 0 0 0
SMALL
GASTEIGER

@<TRIPOS>ATOM
      1 C          -3.8790   -0.7300    0.1080 C.3     1  UNL1        0.1931
      2 C          -4.2296   -2.1192   -0.3686 C.3     1  UNL1       -0.0172
      3 O          -2.9171   -0.1104   -0.7082 O.3     1  UNL1       -0.4779
      4 C          -1.6697    0.2667   -0.2524 C.ar    1  UNL1        0.1219
      5 C          -0.9776    0.8487   -1.3235 C.ar    1  UNL1       -0.0164
      6 C           0.3264    1.3322   -1.1638 C.ar    1  UNL1       -0.0159
      7 C           0.9637    1.2472    0.0552 C.ar    1  UNL1        0.1287
      8 O           2.2485    1.7085    0.2659 O.3     1  UNL1       -0.4546
      9 C           3.3339    0.8718    0.0714 C.ar    1  UNL1        0.1467
     10 C           3.2177   -0.4358   -0.3320 C.ar    1  UNL1       -0.0165
     11 C           4.3736   -1.1672   -0.4906 C.ar    1  UNL1       -0.0398
     12 C           5.6268   -0.6176   -0.2549 C.ar    1  UNL1        0.0426
     13 CL          7.0705   -1.5999   -0.4739 Cl      1  UNL1       -0.0835
     14 C           5.7203    0.6986    0.1499 C.ar    1  UNL1       -0.0215
     15 C           4.5656    1.4595    0.3176 C.ar    1  UNL1        0.0845
     16 CL          4.7685    3.1267    0.8350 Cl      1  UNL1       -0.0797
     17 C           0.2589    0.6699    1.0914 C.ar    1  UNL1       -0.0159
     18 C          -1.0175    0.1928    0.9485 C.ar    1  UNL1       -0.0164
     19 C          -5.0823    0.1284    0.2559 C.2     1  UNL1        0.3456
     20 O          -6.1484   -0.2827    1.0133 O.3     1  UNL1       -0.4781
     21 O          -5.0577    1.2447   -0.3533 O.2     1  UNL1       -0.2468
     22 H          -3.4711   -0.8516    1.1273 H       1  UNL1        0.0849
     23 H          -4.2185   -2.8724    0.4585 H       1  UNL1        0.0271
     24 H          -3.4435   -2.4241   -1.0911 H       1  UNL1        0.0271
     25 H          -5.2280   -2.0807   -0.8496 H       1  UNL1        0.0271
     26 H          -1.3104    1.0054   -2.3587 H       1  UNL1        0.0655
     27 H           0.9125    1.7904   -1.9478 H       1  UNL1        0.0655
     28 H           2.2491   -0.8501   -0.5110 H       1  UNL1        0.0655
     29 H           4.2667   -2.2049   -0.8116 H       1  UNL1        0.0633
     30 H           6.6814    1.1430    0.3377 H       1  UNL1        0.0648
     31 H           0.6652    0.5534    2.0896 H       1  UNL1        0.0655
     32 H          -1.6383   -0.2698    1.6983 H       1  UNL1        0.0655
     33 H          -6.9606    0.3286    1.1003 H       1  UNL1        0.2952
@<TRIPOS>BOND
     1     1     2    1
     2     1     3    1
     3     3     4    1
     4     4     5   ar
     5     5     6   ar
     6     6     7   ar
     7     7     8    1
     8     8     9    1
     9     9    10   ar
    10    10    11   ar
    11    11    12   ar
    12    12    13    1
    13    12    14   ar
    14    14    15   ar
    15    15    16    1
    16     7    17   ar
    17    17    18   ar
    18     1    19    1
    19    19    20    1
    20    19    21    2
    21    18     4   ar
    22    15     9   ar
    23     1    22    1
    24     2    23    1
    25     2    24    1
    26     2    25    1
    27     5    26    1
    28     6    27    1
    29    10    28    1
    30    11    29    1
    31    14    30    1
    32    17    31    1
    33    18    32    1
    34    20    33    1
