@<TRIPOS>MOLECULE
*****
 52 53 0 0 0
SMALL
GASTEIGER

@<TRIPOS>ATOM
      1 O          -5.0737    0.5064   -3.8029 O.3     1  UNL1       -0.4806
      2 C          -4.8457   -0.0806   -2.5535 C.2     1  UNL1        0.3047
      3 O          -3.6173   -0.1283   -2.2879 O.2     1  UNL1       -0.2510
      4 C          -6.1790   -0.4252   -2.0195 C.3     1  UNL1        0.0448
      5 C          -6.1278   -1.0636   -0.6687 C.3     1  UNL1       -0.0430
      6 C          -5.3360   -2.3389   -0.6582 C.3     1  UNL1       -0.0525
      7 C          -5.3896   -2.9471    0.6960 C.3     1  UNL1       -0.0500
      8 C          -4.8594   -2.1166    1.7932 C.3     1  UNL1       -0.0186
      9 C          -3.4219   -1.7839    1.6622 C.3     1  UNL1        0.0897
     10 O          -3.0387   -1.0574    0.5351 O.3     1  UNL1       -0.4890
     11 C          -1.6715   -0.7536    0.4354 C.ar    1  UNL1        0.1571
     12 C          -1.3256    0.4442    1.0249 C.ar    1  UNL1        0.0857
     13 CL         -2.4805    1.4857    1.8215 Cl      1  UNL1       -0.0796
     14 C           0.0267    0.7903    0.9512 C.ar    1  UNL1       -0.0184
     15 C           0.9021   -0.0624    0.3130 C.ar    1  UNL1        0.0378
     16 N           2.2321    0.4281    0.3175 N.am    1  UNL1       -0.2691
     17 C           3.2451    1.1976   -0.3243 C.2     1  UNL1        0.3104
     18 O           2.8963    1.7362   -1.4177 O.2     1  UNL1       -0.2521
     19 N           4.5639    1.3332    0.2580 N.am    1  UNL1       -0.2359
     20 C           5.4085    2.1643   -0.5746 C.2     1  UNL1        0.2528
     21 O           5.0580    2.6894   -1.6414 O.2     1  UNL1       -0.2697
     22 C           6.7708    2.3647   -0.0664 C.ar    1  UNL1        0.0554
     23 C           7.4613    1.1533   -0.0224 C.ar    1  UNL1       -0.0482
     24 C           8.7647    1.0651    0.4169 C.ar    1  UNL1       -0.0610
     25 C           9.3815    2.2536    0.8242 C.ar    1  UNL1       -0.0603
     26 C           8.7009    3.4477    0.7809 C.ar    1  UNL1       -0.0427
     27 C           7.4073    3.5099    0.3407 C.ar    1  UNL1        0.0531
     28 CL          6.4057    4.9411    0.2241 Cl      1  UNL1       -0.0828
     29 C           0.5177   -1.2531   -0.2651 C.ar    1  UNL1       -0.0184
     30 C          -0.8107   -1.6169   -0.2058 C.ar    1  UNL1        0.0857
     31 CL         -1.3732   -3.1119   -0.9165 Cl      1  UNL1       -0.0796
     32 H          -4.3150    0.8233   -4.3742 H       1  UNL1        0.2951
     33 H          -6.7243   -1.1345   -2.6835 H       1  UNL1        0.0377
     34 H          -6.8108    0.4871   -1.9421 H       1  UNL1        0.0377
     35 H          -5.7231   -0.3012    0.0305 H       1  UNL1        0.0270
     36 H          -7.1345   -1.3101   -0.2732 H       1  UNL1        0.0270
     37 H          -4.3218   -2.1476   -1.0163 H       1  UNL1        0.0265
     38 H          -5.8411   -3.0166   -1.4022 H       1  UNL1        0.0265
     39 H          -4.8285   -3.9294    0.6384 H       1  UNL1        0.0266
     40 H          -6.4746   -3.1752    0.9417 H       1  UNL1        0.0266
     41 H          -4.9824   -2.6050    2.8002 H       1  UNL1        0.0298
     42 H          -5.4049   -1.1341    1.9038 H       1  UNL1        0.0298
     43 H          -3.1359   -1.2513    2.6197 H       1  UNL1        0.0696
     44 H          -2.8300   -2.7290    1.6981 H       1  UNL1        0.0696
     45 H           0.3006    1.7375    1.4175 H       1  UNL1        0.0652
     46 H           2.6553    0.0507    1.1884 H       1  UNL1        0.1564
     47 H           4.1744    1.7137   -0.6008 H       1  UNL1        0.1594
     48 H           7.0745    0.1751   -0.3158 H       1  UNL1        0.0625
     49 H           9.3418    0.1539    0.4698 H       1  UNL1        0.0618
     50 H          10.3980    2.3126    1.1877 H       1  UNL1        0.0618
     51 H           9.1342    4.3728    1.0819 H       1  UNL1        0.0632
     52 H           1.2558   -1.8640   -0.7440 H       1  UNL1        0.0652
@<TRIPOS>BOND
     1     1     2    1
     2     2     3    2
     3     2     4    1
     4     4     5    1
     5     5     6    1
     6     6     7    1
     7     7     8    1
     8     8     9    1
     9     9    10    1
    10    10    11    1
    11    11    12   ar
    12    12    13    1
    13    12    14   ar
    14    14    15   ar
    15    15    16    1
    16    16    17   am
    17    17    18    2
    18    17    19   am
    19    19    20   am
    20    20    21    2
    21    20    22    1
    22    22    23   ar
    23    23    24   ar
    24    24    25   ar
    25    25    26   ar
    26    26    27   ar
    27    27    28    1
    28    15    29   ar
    29    29    30   ar
    30    30    31    1
    31    30    11   ar
    32    27    22   ar
    33     1    32    1
    34     4    33    1
    35     4    34    1
    36     5    35    1
    37     5    36    1
    38     6    37    1
    39     6    38    1
    40     7    39    1
    41     7    40    1
    42     8    41    1
    43     8    42    1
    44     9    43    1
    45     9    44    1
    46    14    45    1
    47    16    46    1
    48    19    47    1
    49    23    48    1
    50    24    49    1
    51    25    50    1
    52    26    51    1
    53    29    52    1
