@<TRIPOS>MOLECULE
*****
 57 60 0 0 0
SMALL
GASTEIGER

@<TRIPOS>ATOM
      1 C          -5.8869    3.9659   -0.2705 C.3     1  UNL1       -0.0650
      2 C          -5.4485    2.6079   -0.7893 C.3     1  UNL1       -0.0517
      3 C          -4.6717    1.8192    0.2128 C.3     1  UNL1       -0.0209
      4 C          -4.2400    0.4711   -0.3153 C.ar    1  UNL1        0.0397
      5 C          -5.3150   -0.4340   -0.3402 C.ar    1  UNL1        0.1744
      6 O          -6.5953   -0.4024   -0.0194 O.2     1  UNL1       -0.3537
      7 N          -7.1505   -1.5462   -0.2456 N.ar    1  UNL1       -0.0730
      8 C          -6.2396   -2.4089   -0.7388 C.ar    1  UNL1        0.1934
      9 C          -5.0520   -1.6968   -0.8025 C.ar    1  UNL1        0.0536
     10 C          -3.8368   -2.1322   -1.2350 C.ar    1  UNL1       -0.0454
     11 C          -2.8303   -1.1982   -1.1846 C.ar    1  UNL1       -0.0188
     12 C          -2.9472    0.1005   -0.7458 C.ar    1  UNL1        0.1273
     13 O          -2.1728    1.1756   -0.5971 O.3     1  UNL1       -0.4915
     14 C          -0.9271    1.6368   -0.7405 C.3     1  UNL1        0.0927
     15 C           0.1710    1.0582    0.1020 C.3     1  UNL1        0.0157
     16 C           0.4174   -0.4065   -0.0145 C.3     1  UNL1        0.0927
     17 O           1.5045   -0.8590    0.7637 O.3     1  UNL1       -0.4918
     18 C           2.8054   -0.5280    0.6591 C.ar    1  UNL1        0.1212
     19 C           3.5166   -1.2098    1.6626 C.ar    1  UNL1       -0.0108
     20 C           4.9037   -1.0877    1.8330 C.ar    1  UNL1        0.0033
     21 C           5.6047   -0.2600    0.9763 C.ar    1  UNL1        0.0498
     22 C           4.9574    0.4241   -0.0158 C.ar    1  UNL1       -0.0341
     23 C           3.5980    0.2649   -0.1347 C.ar    1  UNL1       -0.0180
     24 N           6.9214   -0.2318    1.2468 N.ar    1  UNL1       -0.3359
     25 C           7.9802    0.5061    0.5855 C.3     1  UNL1        0.1201
     26 C           8.5317   -0.3469   -0.5185 C.2     1  UNL1        0.3247
     27 O           9.5642    0.2379   -1.2444 O.3     1  UNL1       -0.4794
     28 O           8.1390   -1.5105   -0.8210 O.2     1  UNL1       -0.2490
     29 C           7.1016   -1.0642    2.3134 C.ar    1  UNL1        0.0063
     30 C           5.8729   -1.5822    2.6665 C.ar    1  UNL1       -0.0363
     31 C          -6.4266   -3.8466   -1.1480 C.3     1  UNL1        0.4380
     32 F          -7.7244   -4.2427   -0.9563 F       1  UNL1       -0.1643
     33 F          -6.1300   -3.9934   -2.4921 F       1  UNL1       -0.1643
     34 F          -5.5216   -4.5903   -0.4315 F       1  UNL1       -0.1643
     35 H          -5.6919    4.0386    0.8217 H       1  UNL1        0.0230
     36 H          -5.3183    4.7829   -0.7355 H       1  UNL1        0.0230
     37 H          -6.9695    4.0928   -0.4529 H       1  UNL1        0.0230
     38 H          -4.8440    2.7994   -1.7015 H       1  UNL1        0.0266
     39 H          -6.3322    2.0210   -1.1125 H       1  UNL1        0.0266
     40 H          -3.7756    2.3958    0.5321 H       1  UNL1        0.0315
     41 H          -5.2858    1.6359    1.1132 H       1  UNL1        0.0315
     42 H          -3.5705   -3.1017   -1.6057 H       1  UNL1        0.0626
     43 H          -1.8235   -1.4001   -1.5093 H       1  UNL1        0.0654
     44 H          -0.9505    2.7650   -0.5056 H       1  UNL1        0.0697
     45 H          -0.5927    1.6684   -1.8293 H       1  UNL1        0.0697
     46 H          -0.1559    1.2456    1.1825 H       1  UNL1        0.0331
     47 H           1.0976    1.6610   -0.0828 H       1  UNL1        0.0331
     48 H           0.5874   -0.6947   -1.0639 H       1  UNL1        0.0697
     49 H          -0.4901   -0.9807    0.3634 H       1  UNL1        0.0697
     50 H           3.1314   -1.8944    2.4159 H       1  UNL1        0.0661
     51 H           5.4079    1.0843   -0.7245 H       1  UNL1        0.0639
     52 H           3.0359    0.7617   -0.9028 H       1  UNL1        0.0655
     53 H           7.5868    1.4454    0.1148 H       1  UNL1        0.0607
     54 H           8.7748    0.8112    1.2945 H       1  UNL1        0.0607
     55 H          10.0168   -0.2344   -2.0174 H       1  UNL1        0.2951
     56 H           8.0233   -1.3174    2.8388 H       1  UNL1        0.0809
     57 H           5.6655   -2.2754    3.4716 H       1  UNL1        0.0639
@<TRIPOS>BOND
     1     1     2    1
     2     2     3    1
     3     3     4    1
     4     4     5   ar
     5     5     6   ar
     6     6     7   ar
     7     7     8   ar
     8     8     9   ar
     9     9    10   ar
    10    10    11   ar
    11    11    12   ar
    12    12    13    1
    13    13    14    1
    14    14    15    1
    15    15    16    1
    16    16    17    1
    17    17    18    1
    18    18    19   ar
    19    19    20   ar
    20    20    21   ar
    21    21    22   ar
    22    22    23   ar
    23    21    24   ar
    24    24    25    1
    25    25    26    1
    26    26    27    1
    27    26    28    2
    28    24    29   ar
    29    29    30   ar
    30     8    31    1
    31    31    32    1
    32    31    33    1
    33    31    34    1
    34    12     4   ar
    35    23    18   ar
    36     9     5   ar
    37    30    20   ar
    38     1    35    1
    39     1    36    1
    40     1    37    1
    41     2    38    1
    42     2    39    1
    43     3    40    1
    44     3    41    1
    45    10    42    1
    46    11    43    1
    47    14    44    1
    48    14    45    1
    49    15    46    1
    50    15    47    1
    51    16    48    1
    52    16    49    1
    53    19    50    1
    54    22    51    1
    55    23    52    1
    56    25    53    1
    57    25    54    1
    58    27    55    1
    59    29    56    1
    60    30    57    1
