@<TRIPOS>MOLECULE
*****
 62 64 0 0 0
SMALL
GASTEIGER

@<TRIPOS>ATOM
      1 C          -3.3816   -1.9576   -2.5179 C.3     1  UNL1       -0.0639
      2 C          -1.9988   -1.3751   -2.3744 C.3     1  UNL1       -0.0400
      3 C          -1.9628    0.0480   -1.9319 C.3     1  UNL1        0.0150
      4 N          -2.5437    0.3100   -0.6387 N.am    1  UNL1       -0.2945
      5 C          -1.6894    0.2295    0.5055 C.2     1  UNL1        0.2469
      6 O          -2.2180    0.4645    1.6423 O.2     1  UNL1       -0.2700
      7 C          -0.2756   -0.1006    0.4401 C.ar    1  UNL1        0.0369
      8 C           0.6743    0.8063    0.0265 C.ar    1  UNL1       -0.0493
      9 C           2.0398    0.5068   -0.0303 C.ar    1  UNL1       -0.0566
     10 C           2.3903   -0.7667    0.3561 C.ar    1  UNL1       -0.0319
     11 C           3.8358   -1.1225    0.3217 C.3     1  UNL1        0.0425
     12 N           4.3660   -0.8138    1.6309 N.3     1  UNL1       -0.1856
     13 S           6.0235   -1.1549    1.8009 S.O2    1  UNL1        0.0587
     14 O           6.4154   -0.8457    3.2276 O.2     1  UNL1       -0.1530
     15 O           6.2118   -2.6420    1.5302 O.2     1  UNL1       -0.1530
     16 C           7.0571   -0.2630    0.7418 C.ar    1  UNL1        0.1066
     17 C           7.5892    0.9619    1.0401 C.ar    1  UNL1       -0.0353
     18 C           8.4146    1.6384    0.1746 C.ar    1  UNL1       -0.0585
     19 C           8.7256    1.0622   -1.0540 C.ar    1  UNL1       -0.0433
     20 C           8.1929   -0.1701   -1.3600 C.ar    1  UNL1        0.0428
     21 CL          8.6130   -0.8570   -2.9155 Cl      1  UNL1       -0.0835
     22 C           7.3704   -0.8315   -0.4835 C.ar    1  UNL1       -0.0170
     23 C           1.4761   -1.7100    0.7776 C.ar    1  UNL1       -0.0566
     24 C           0.1395   -1.3831    0.8224 C.ar    1  UNL1       -0.0493
     25 C          -3.9496    0.6670   -0.4986 C.3     1  UNL1        0.0263
     26 C          -4.1094    2.0996   -0.0418 C.3     1  UNL1       -0.0343
     27 C          -4.9621    2.3164    1.1415 C.3     1  UNL1       -0.0514
     28 C          -6.2719    1.6637    1.1952 C.3     1  UNL1       -0.0530
     29 C          -6.6553    0.8367    0.0108 C.3     1  UNL1       -0.0530
     30 C          -5.9934   -0.5279    0.0161 C.3     1  UNL1       -0.0514
     31 C          -4.5669   -0.3031    0.4752 C.3     1  UNL1       -0.0343
     32 H          -3.7779   -2.2582   -1.5313 H       1  UNL1        0.0230
     33 H          -4.0917   -1.2167   -2.9667 H       1  UNL1        0.0230
     34 H          -3.3982   -2.8136   -3.2317 H       1  UNL1        0.0230
     35 H          -1.5390   -1.4085   -3.3994 H       1  UNL1        0.0278
     36 H          -1.4035   -2.0114   -1.6790 H       1  UNL1        0.0278
     37 H          -0.9204    0.4745   -2.0060 H       1  UNL1        0.0465
     38 H          -2.5156    0.6347   -2.7288 H       1  UNL1        0.0465
     39 H           0.3629    1.8165   -0.2754 H       1  UNL1        0.0625
     40 H           2.7564    1.2540   -0.3630 H       1  UNL1        0.0621
     41 H           3.9970   -2.1897    0.0297 H       1  UNL1        0.0490
     42 H           4.3197   -0.5336   -0.4753 H       1  UNL1        0.0490
     43 H           3.7826   -1.1730    2.4078 H       1  UNL1        0.1484
     44 H           7.3608    1.4290    1.9873 H       1  UNL1        0.0637
     45 H           8.8361    2.6045    0.4099 H       1  UNL1        0.0619
     46 H           9.3694    1.6066   -1.7109 H       1  UNL1        0.0632
     47 H           6.9845   -1.7963   -0.7813 H       1  UNL1        0.0652
     48 H           1.8047   -2.7165    1.0774 H       1  UNL1        0.0621
     49 H          -0.6286   -2.0667    1.1410 H       1  UNL1        0.0625
     50 H          -4.3849    0.6351   -1.5162 H       1  UNL1        0.0500
     51 H          -4.4441    2.7727   -0.8747 H       1  UNL1        0.0283
     52 H          -3.0815    2.4711    0.1954 H       1  UNL1        0.0283
     53 H          -5.1273    3.4362    1.2113 H       1  UNL1        0.0266
     54 H          -4.3753    2.0945    2.0699 H       1  UNL1        0.0266
     55 H          -7.1169    2.4074    1.3320 H       1  UNL1        0.0265
     56 H          -6.3539    1.0108    2.1027 H       1  UNL1        0.0265
     57 H          -6.5422    1.3707   -0.9540 H       1  UNL1        0.0265
     58 H          -7.7626    0.6324    0.1039 H       1  UNL1        0.0265
     59 H          -6.5270   -1.2260    0.6920 H       1  UNL1        0.0266
     60 H          -5.9215   -0.9282   -1.0253 H       1  UNL1        0.0266
     61 H          -3.9904   -1.2458    0.6017 H       1  UNL1        0.0283
     62 H          -4.6283    0.1473    1.4960 H       1  UNL1        0.0283
@<TRIPOS>BOND
     1     1     2    1
     2     2     3    1
     3     3     4    1
     4     4     5   am
     5     5     6    2
     6     5     7    1
     7     7     8   ar
     8     8     9   ar
     9     9    10   ar
    10    10    11    1
    11    11    12    1
    12    12    13    1
    13    13    14    2
    14    13    15    2
    15    13    16    1
    16    16    17   ar
    17    17    18   ar
    18    18    19   ar
    19    19    20   ar
    20    20    21    1
    21    20    22   ar
    22    10    23   ar
    23    23    24   ar
    24     4    25    1
    25    25    26    1
    26    26    27    1
    27    27    28    1
    28    28    29    1
    29    29    30    1
    30    30    31    1
    31    24     7   ar
    32    31    25    1
    33    22    16   ar
    34     1    32    1
    35     1    33    1
    36     1    34    1
    37     2    35    1
    38     2    36    1
    39     3    37    1
    40     3    38    1
    41     8    39    1
    42     9    40    1
    43    11    41    1
    44    11    42    1
    45    12    43    1
    46    17    44    1
    47    18    45    1
    48    19    46    1
    49    22    47    1
    50    23    48    1
    51    24    49    1
    52    25    50    1
    53    26    51    1
    54    26    52    1
    55    27    53    1
    56    27    54    1
    57    28    55    1
    58    28    56    1
    59    29    57    1
    60    29    58    1
    61    30    59    1
    62    30    60    1
    63    31    61    1
    64    31    62    1
