
     RDKit          3D

 62 64  0  0  0  0  0  0  0  0999 V2000
   -3.3816   -1.9576   -2.5179 C   0  0  0  0  0  0  0  0  0  0  0  0
   -1.9988   -1.3751   -2.3744 C   0  0  0  0  0  0  0  0  0  0  0  0
   -1.9628    0.0480   -1.9319 C   0  0  0  0  0  0  0  0  0  0  0  0
   -2.5437    0.3100   -0.6387 N   0  0  0  0  0  0  0  0  0  0  0  0
   -1.6894    0.2295    0.5055 C   0  0  0  0  0  0  0  0  0  0  0  0
   -2.2180    0.4645    1.6423 O   0  0  0  0  0  0  0  0  0  0  0  0
   -0.2756   -0.1006    0.4401 C   0  0  0  0  0  0  0  0  0  0  0  0
    0.6743    0.8063    0.0265 C   0  0  0  0  0  0  0  0  0  0  0  0
    2.0398    0.5068   -0.0303 C   0  0  0  0  0  0  0  0  0  0  0  0
    2.3903   -0.7667    0.3561 C   0  0  0  0  0  0  0  0  0  0  0  0
    3.8358   -1.1225    0.3217 C   0  0  0  0  0  0  0  0  0  0  0  0
    4.3660   -0.8138    1.6309 N   0  0  0  0  0  0  0  0  0  0  0  0
    6.0235   -1.1549    1.8009 S   0  0  0  0  0  6  0  0  0  0  0  0
    6.4154   -0.8457    3.2276 O   0  0  0  0  0  0  0  0  0  0  0  0
    6.2118   -2.6420    1.5302 O   0  0  0  0  0  0  0  0  0  0  0  0
    7.0571   -0.2630    0.7418 C   0  0  0  0  0  0  0  0  0  0  0  0
    7.5892    0.9619    1.0401 C   0  0  0  0  0  0  0  0  0  0  0  0
    8.4146    1.6384    0.1746 C   0  0  0  0  0  0  0  0  0  0  0  0
    8.7256    1.0622   -1.0540 C   0  0  0  0  0  0  0  0  0  0  0  0
    8.1929   -0.1701   -1.3600 C   0  0  0  0  0  0  0  0  0  0  0  0
    8.6130   -0.8570   -2.9155 Cl  0  0  0  0  0  0  0  0  0  0  0  0
    7.3704   -0.8315   -0.4835 C   0  0  0  0  0  0  0  0  0  0  0  0
    1.4761   -1.7100    0.7776 C   0  0  0  0  0  0  0  0  0  0  0  0
    0.1395   -1.3831    0.8224 C   0  0  0  0  0  0  0  0  0  0  0  0
   -3.9496    0.6670   -0.4986 C   0  0  0  0  0  0  0  0  0  0  0  0
   -4.1094    2.0996   -0.0418 C   0  0  0  0  0  0  0  0  0  0  0  0
   -4.9621    2.3164    1.1415 C   0  0  0  0  0  0  0  0  0  0  0  0
   -6.2719    1.6637    1.1952 C   0  0  0  0  0  0  0  0  0  0  0  0
   -6.6553    0.8367    0.0108 C   0  0  0  0  0  0  0  0  0  0  0  0
   -5.9934   -0.5279    0.0161 C   0  0  0  0  0  0  0  0  0  0  0  0
   -4.5669   -0.3031    0.4752 C   0  0  0  0  0  0  0  0  0  0  0  0
   -3.7779   -2.2582   -1.5313 H   0  0  0  0  0  0  0  0  0  0  0  0
   -4.0917   -1.2167   -2.9667 H   0  0  0  0  0  0  0  0  0  0  0  0
   -3.3982   -2.8136   -3.2317 H   0  0  0  0  0  0  0  0  0  0  0  0
   -1.5390   -1.4085   -3.3994 H   0  0  0  0  0  0  0  0  0  0  0  0
   -1.4035   -2.0114   -1.6790 H   0  0  0  0  0  0  0  0  0  0  0  0
   -0.9204    0.4745   -2.0060 H   0  0  0  0  0  0  0  0  0  0  0  0
   -2.5156    0.6347   -2.7288 H   0  0  0  0  0  0  0  0  0  0  0  0
    0.3629    1.8165   -0.2754 H   0  0  0  0  0  0  0  0  0  0  0  0
    2.7564    1.2540   -0.3630 H   0  0  0  0  0  0  0  0  0  0  0  0
    3.9970   -2.1897    0.0297 H   0  0  0  0  0  0  0  0  0  0  0  0
    4.3197   -0.5336   -0.4753 H   0  0  0  0  0  0  0  0  0  0  0  0
    3.7826   -1.1730    2.4078 H   0  0  0  0  0  0  0  0  0  0  0  0
    7.3608    1.4290    1.9873 H   0  0  0  0  0  0  0  0  0  0  0  0
    8.8361    2.6045    0.4099 H   0  0  0  0  0  0  0  0  0  0  0  0
    9.3694    1.6066   -1.7109 H   0  0  0  0  0  0  0  0  0  0  0  0
    6.9845   -1.7963   -0.7813 H   0  0  0  0  0  0  0  0  0  0  0  0
    1.8047   -2.7165    1.0774 H   0  0  0  0  0  0  0  0  0  0  0  0
   -0.6286   -2.0667    1.1410 H   0  0  0  0  0  0  0  0  0  0  0  0
   -4.3849    0.6351   -1.5162 H   0  0  0  0  0  0  0  0  0  0  0  0
   -4.4441    2.7727   -0.8747 H   0  0  0  0  0  0  0  0  0  0  0  0
   -3.0815    2.4711    0.1954 H   0  0  0  0  0  0  0  0  0  0  0  0
   -5.1273    3.4362    1.2113 H   0  0  0  0  0  0  0  0  0  0  0  0
   -4.3753    2.0945    2.0699 H   0  0  0  0  0  0  0  0  0  0  0  0
   -7.1169    2.4074    1.3320 H   0  0  0  0  0  0  0  0  0  0  0  0
   -6.3539    1.0108    2.1027 H   0  0  0  0  0  0  0  0  0  0  0  0
   -6.5422    1.3707   -0.9540 H   0  0  0  0  0  0  0  0  0  0  0  0
   -7.7626    0.6324    0.1039 H   0  0  0  0  0  0  0  0  0  0  0  0
   -6.5270   -1.2260    0.6920 H   0  0  0  0  0  0  0  0  0  0  0  0
   -5.9215   -0.9282   -1.0253 H   0  0  0  0  0  0  0  0  0  0  0  0
   -3.9904   -1.2458    0.6017 H   0  0  0  0  0  0  0  0  0  0  0  0
   -4.6283    0.1473    1.4960 H   0  0  0  0  0  0  0  0  0  0  0  0
  1  2  1  0
  2  3  1  0
  3  4  1  0
  4  5  1  0
  5  6  2  0
  5  7  1  0
  7  8  2  0
  8  9  1  0
  9 10  2  0
 10 11  1  0
 11 12  1  0
 12 13  1  0
 13 14  2  0
 13 15  2  0
 13 16  1  0
 16 17  2  0
 17 18  1  0
 18 19  2  0
 19 20  1  0
 20 21  1  0
 20 22  2  0
 10 23  1  0
 23 24  2  0
  4 25  1  0
 25 26  1  0
 26 27  1  0
 27 28  1  0
 28 29  1  0
 29 30  1  0
 30 31  1  0
 24  7  1  0
 31 25  1  0
 22 16  1  0
  1 32  1  0
  1 33  1  0
  1 34  1  0
  2 35  1  0
  2 36  1  0
  3 37  1  0
  3 38  1  0
  8 39  1  0
  9 40  1  0
 11 41  1  0
 11 42  1  0
 12 43  1  0
 17 44  1  0
 18 45  1  0
 19 46  1  0
 22 47  1  0
 23 48  1  0
 24 49  1  0
 25 50  1  0
 26 51  1  0
 26 52  1  0
 27 53  1  0
 27 54  1  0
 28 55  1  0
 28 56  1  0
 29 57  1  0
 29 58  1  0
 30 59  1  0
 30 60  1  0
 31 61  1  0
 31 62  1  0
M  END
$$$$
