
     RDKit          3D

 54 58  0  0  0  0  0  0  0  0999 V2000
   -2.9311    1.1108   -2.3329 C   0  0  0  0  0  0  0  0  0  0  0  0
   -4.2401    1.0636   -1.6175 C   0  0  0  0  0  0  0  0  0  0  0  0
   -5.4372    1.5377   -2.0739 N   0  0  0  0  0  0  0  0  0  0  0  0
   -6.3908    1.3365   -1.1935 N   0  0  0  0  0  0  0  0  0  0  0  0
   -7.7804    1.7143   -1.3518 C   0  0  0  0  0  0  0  0  0  0  0  0
   -5.8146    0.7124   -0.1229 C   0  0  0  0  0  0  0  0  0  0  0  0
   -4.4762    0.5361   -0.3730 C   0  0  0  0  0  0  0  0  0  0  0  0
   -3.5390   -0.0957    0.5452 C   0  0  0  0  0  0  0  0  0  0  0  0
   -2.2065   -0.2860    0.3332 N   0  0  0  0  0  0  0  0  0  0  0  0
   -1.6539   -0.8952    1.3831 C   0  0  0  0  0  0  0  0  0  0  0  0
   -0.3604   -1.2892    1.6269 C   0  0  0  0  0  0  0  0  0  0  0  0
    0.6360   -1.0526    0.6568 N   0  0  0  0  0  0  0  0  0  0  0  0
    0.8982   -2.0418   -0.3483 C   0  0  0  0  0  0  0  0  0  0  0  0
    1.4429   -1.4126   -1.5873 C   0  0  0  0  0  0  0  0  0  0  0  0
    2.4723   -0.4466   -1.3560 N   0  0  0  0  0  0  0  0  0  0  0  0
    3.7078   -1.0192   -0.9306 C   0  0  0  0  0  0  0  0  0  0  0  0
    4.7808   -0.0524   -0.7130 C   0  0  0  0  0  0  0  0  0  0  0  0
    5.6105    0.2786   -1.7772 C   0  0  0  0  0  0  0  0  0  0  0  0
    6.6392    1.1810   -1.6349 C   0  0  0  0  0  0  0  0  0  0  0  0
    6.8975    1.7947   -0.4486 C   0  0  0  0  0  0  0  0  0  0  0  0
    8.2012    2.9470   -0.2429 Cl  0  0  0  0  0  0  0  0  0  0  0  0
    6.0753    1.4734    0.6261 C   0  0  0  0  0  0  0  0  0  0  0  0
    5.0458    0.5706    0.4845 C   0  0  0  0  0  0  0  0  0  0  0  0
    1.9819    0.6297   -0.5618 C   0  0  0  0  0  0  0  0  0  0  0  0
    1.3608    0.1990    0.7225 C   0  0  0  0  0  0  0  0  0  0  0  0
   -0.1220   -1.9019    2.8308 C   0  0  0  0  0  0  0  0  0  0  0  0
    1.5176   -2.4158    3.1706 Cl  0  0  0  0  0  0  0  0  0  0  0  0
   -1.1396   -2.1080    3.7468 C   0  0  0  0  0  0  0  0  0  0  0  0
   -2.3905   -1.7146    3.4847 N   0  0  0  0  0  0  0  0  0  0  0  0
   -2.6694   -1.1049    2.3060 C   0  0  0  0  0  0  0  0  0  0  0  0
   -3.7875   -0.6079    1.7599 N   0  0  0  0  0  0  0  0  0  0  0  0
   -2.2787    0.2773   -2.0132 H   0  0  0  0  0  0  0  0  0  0  0  0
   -3.1447    0.9544   -3.4138 H   0  0  0  0  0  0  0  0  0  0  0  0
   -2.4567    2.1061   -2.2439 H   0  0  0  0  0  0  0  0  0  0  0  0
   -8.4239    0.9720   -0.8288 H   0  0  0  0  0  0  0  0  0  0  0  0
   -8.0144    1.7352   -2.4380 H   0  0  0  0  0  0  0  0  0  0  0  0
   -7.9243    2.7433   -0.9650 H   0  0  0  0  0  0  0  0  0  0  0  0
   -6.3708    0.4167    0.7738 H   0  0  0  0  0  0  0  0  0  0  0  0
   -0.0296   -2.5977   -0.6415 H   0  0  0  0  0  0  0  0  0  0  0  0
    1.6090   -2.8319   -0.0038 H   0  0  0  0  0  0  0  0  0  0  0  0
    1.8820   -2.2356   -2.2235 H   0  0  0  0  0  0  0  0  0  0  0  0
    0.6348   -0.9037   -2.1708 H   0  0  0  0  0  0  0  0  0  0  0  0
    4.0351   -1.7262   -1.7462 H   0  0  0  0  0  0  0  0  0  0  0  0
    3.6204   -1.6551   -0.0261 H   0  0  0  0  0  0  0  0  0  0  0  0
    5.4665   -0.1680   -2.7489 H   0  0  0  0  0  0  0  0  0  0  0  0
    7.2597    1.4094   -2.4875 H   0  0  0  0  0  0  0  0  0  0  0  0
    6.2769    1.9588    1.5709 H   0  0  0  0  0  0  0  0  0  0  0  0
    4.4351    0.3451    1.3269 H   0  0  0  0  0  0  0  0  0  0  0  0
    2.7968    1.3600   -0.2963 H   0  0  0  0  0  0  0  0  0  0  0  0
    1.2718    1.2215   -1.1789 H   0  0  0  0  0  0  0  0  0  0  0  0
    2.0625    0.2237    1.5835 H   0  0  0  0  0  0  0  0  0  0  0  0
    0.5813    0.9737    0.9964 H   0  0  0  0  0  0  0  0  0  0  0  0
   -0.8866   -2.6079    4.7021 H   0  0  0  0  0  0  0  0  0  0  0  0
   -4.7308   -0.6122    2.2083 H   0  0  0  0  0  0  0  0  0  0  0  0
  1  2  1  0
  2  3  2  0
  3  4  1  0
  4  5  1  0
  4  6  1  0
  6  7  2  0
  7  8  1  0
  8  9  2  0
  9 10  1  0
 10 11  2  0
 11 12  1  0
 12 13  1  0
 13 14  1  0
 14 15  1  0
 15 16  1  0
 16 17  1  0
 17 18  2  0
 18 19  1  0
 19 20  2  0
 20 21  1  0
 20 22  1  0
 22 23  2  0
 15 24  1  0
 24 25  1  0
 11 26  1  0
 26 27  1  0
 26 28  2  0
 28 29  1  0
 29 30  2  0
 30 31  1  0
  7  2  1  0
 31  8  1  0
 30 10  1  0
 25 12  1  0
 23 17  1  0
  1 32  1  0
  1 33  1  0
  1 34  1  0
  5 35  1  0
  5 36  1  0
  5 37  1  0
  6 38  1  0
 13 39  1  0
 13 40  1  0
 14 41  1  0
 14 42  1  0
 16 43  1  0
 16 44  1  0
 18 45  1  0
 19 46  1  0
 22 47  1  0
 23 48  1  0
 24 49  1  0
 24 50  1  0
 25 51  1  0
 25 52  1  0
 28 53  1  0
 31 54  1  0
M  END
$$$$
