@<TRIPOS>MOLECULE
*****
 54 58 0 0 0
SMALL
GASTEIGER

@<TRIPOS>ATOM
      1 C          -2.9311    1.1108   -2.3329 C.3     1  UNL1       -0.0199
      2 C          -4.2401    1.0636   -1.6175 C.ar    1  UNL1        0.0706
      3 N          -5.4372    1.5377   -2.0739 N.ar    1  UNL1       -0.1760
      4 N          -6.3908    1.3365   -1.1935 N.ar    1  UNL1       -0.2735
      5 C          -7.7804    1.7143   -1.3518 C.3     1  UNL1        0.0302
      6 C          -5.8146    0.7124   -0.1229 C.ar    1  UNL1        0.0361
      7 C          -4.4762    0.5361   -0.3730 C.ar    1  UNL1        0.0576
      8 C          -3.5390   -0.0957    0.5452 C.ar    1  UNL1        0.1437
      9 N          -2.2065   -0.2860    0.3332 N.ar    1  UNL1       -0.2241
     10 C          -1.6539   -0.8952    1.3831 C.ar    1  UNL1        0.1307
     11 C          -0.3604   -1.2892    1.6269 C.ar    1  UNL1        0.0792
     12 N           0.6360   -1.0526    0.6568 N.pl3   1  UNL1       -0.3246
     13 C           0.8982   -2.0418   -0.3483 C.3     1  UNL1        0.0251
     14 C           1.4429   -1.4126   -1.5873 C.3     1  UNL1        0.0150
     15 N           2.4723   -0.4466   -1.3560 N.3     1  UNL1       -0.2952
     16 C           3.7078   -1.0192   -0.9306 C.3     1  UNL1        0.0241
     17 C           4.7808   -0.0524   -0.7130 C.ar    1  UNL1       -0.0333
     18 C           5.6105    0.2786   -1.7772 C.ar    1  UNL1       -0.0560
     19 C           6.6392    1.1810   -1.6349 C.ar    1  UNL1       -0.0431
     20 C           6.8975    1.7947   -0.4486 C.ar    1  UNL1        0.0410
     21 CL          8.2012    2.9470   -0.2429 Cl      1  UNL1       -0.0835
     22 C           6.0753    1.4734    0.6261 C.ar    1  UNL1       -0.0431
     23 C           5.0458    0.5706    0.4845 C.ar    1  UNL1       -0.0560
     24 C           1.9819    0.6297   -0.5618 C.3     1  UNL1        0.0150
     25 C           1.3608    0.1990    0.7225 C.3     1  UNL1        0.0251
     26 C          -0.1220   -1.9019    2.8308 C.ar    1  UNL1        0.0822
     27 CL          1.5176   -2.4158    3.1706 Cl      1  UNL1       -0.0800
     28 C          -1.1396   -2.1080    3.7468 C.ar    1  UNL1        0.0501
     29 N          -2.3905   -1.7146    3.4847 N.ar    1  UNL1       -0.2343
     30 C          -2.6694   -1.1049    2.3060 C.ar    1  UNL1        0.1600
     31 N          -3.7875   -0.6079    1.7599 N.ar    1  UNL1       -0.3226
     32 H          -2.2787    0.2773   -2.0132 H       1  UNL1        0.0293
     33 H          -3.1447    0.9544   -3.4138 H       1  UNL1        0.0293
     34 H          -2.4567    2.1061   -2.2439 H       1  UNL1        0.0293
     35 H          -8.4239    0.9720   -0.8288 H       1  UNL1        0.0473
     36 H          -8.0144    1.7352   -2.4380 H       1  UNL1        0.0473
     37 H          -7.9243    2.7433   -0.9650 H       1  UNL1        0.0473
     38 H          -6.3708    0.4167    0.7738 H       1  UNL1        0.0833
     39 H          -0.0296   -2.5977   -0.6415 H       1  UNL1        0.0476
     40 H           1.6090   -2.8319   -0.0038 H       1  UNL1        0.0476
     41 H           1.8820   -2.2356   -2.2235 H       1  UNL1        0.0442
     42 H           0.6348   -0.9037   -2.1708 H       1  UNL1        0.0442
     43 H           4.0351   -1.7262   -1.7462 H       1  UNL1        0.0476
     44 H           3.6204   -1.6551   -0.0261 H       1  UNL1        0.0476
     45 H           5.4665   -0.1680   -2.7489 H       1  UNL1        0.0621
     46 H           7.2597    1.4094   -2.4875 H       1  UNL1        0.0632
     47 H           6.2769    1.9588    1.5709 H       1  UNL1        0.0632
     48 H           4.4351    0.3451    1.3269 H       1  UNL1        0.0621
     49 H           2.7968    1.3600   -0.2963 H       1  UNL1        0.0442
     50 H           1.2718    1.2215   -1.1789 H       1  UNL1        0.0442
     51 H           2.0625    0.2237    1.5835 H       1  UNL1        0.0476
     52 H           0.5813    0.9737    0.9964 H       1  UNL1        0.0476
     53 H          -0.8866   -2.6079    4.7021 H       1  UNL1        0.0846
     54 H          -4.7308   -0.6122    2.2083 H       1  UNL1        0.1688
@<TRIPOS>BOND
     1     1     2    1
     2     2     3   ar
     3     3     4   ar
     4     4     5    1
     5     4     6   ar
     6     6     7   ar
     7     7     8    1
     8     8     9   ar
     9     9    10   ar
    10    10    11   ar
    11    11    12    1
    12    12    13    1
    13    13    14    1
    14    14    15    1
    15    15    16    1
    16    16    17    1
    17    17    18   ar
    18    18    19   ar
    19    19    20   ar
    20    20    21    1
    21    20    22   ar
    22    22    23   ar
    23    15    24    1
    24    24    25    1
    25    11    26   ar
    26    26    27    1
    27    26    28   ar
    28    28    29   ar
    29    29    30   ar
    30    30    31   ar
    31     7     2   ar
    32    31     8   ar
    33    30    10   ar
    34    25    12    1
    35    23    17   ar
    36     1    32    1
    37     1    33    1
    38     1    34    1
    39     5    35    1
    40     5    36    1
    41     5    37    1
    42     6    38    1
    43    13    39    1
    44    13    40    1
    45    14    41    1
    46    14    42    1
    47    16    43    1
    48    16    44    1
    49    18    45    1
    50    19    46    1
    51    22    47    1
    52    23    48    1
    53    24    49    1
    54    24    50    1
    55    25    51    1
    56    25    52    1
    57    28    53    1
    58    31    54    1
