
     RDKit          3D

 19 20  0  0  0  0  0  0  0  0999 V2000
    0.2940   -1.3732    1.9400 O   0  0  0  0  0  0  0  0  0  0  0  0
   -0.5870   -0.8479    1.0023 C   0  0  0  0  0  0  0  0  0  0  0  0
   -1.9323   -1.1567    1.0363 C   0  0  0  0  0  0  0  0  0  0  0  0
   -2.8181   -0.6419    0.1111 C   0  0  0  0  0  0  0  0  0  0  0  0
   -2.3009    0.1976   -0.8534 C   0  0  0  0  0  0  0  0  0  0  0  0
   -0.9539    0.5080   -0.8892 C   0  0  0  0  0  0  0  0  0  0  0  0
   -0.0718   -0.0085    0.0374 C   0  0  0  0  0  0  0  0  0  0  0  0
    1.3425    0.3378   -0.0272 C   0  0  0  0  0  0  0  0  0  0  0  0
    1.9578    1.1616   -0.9437 C   0  0  0  0  0  0  0  0  0  0  0  0
    3.2881    1.2227   -0.6550 N   0  0  0  0  0  0  0  0  0  0  0  0
    3.4705    0.4620    0.3996 N   0  0  0  0  0  0  0  0  0  0  0  0
    2.3158   -0.0823    0.7974 N   0  0  0  0  0  0  0  0  0  0  0  0
    0.1916   -2.3144    2.2792 H   0  0  0  0  0  0  0  0  0  0  0  0
   -2.3327   -1.8252    1.8075 H   0  0  0  0  0  0  0  0  0  0  0  0
   -3.8692   -0.8851    0.1404 H   0  0  0  0  0  0  0  0  0  0  0  0
   -2.9668    0.6101   -1.5828 H   0  0  0  0  0  0  0  0  0  0  0  0
   -0.5478    1.1746   -1.6563 H   0  0  0  0  0  0  0  0  0  0  0  0
    1.4932    1.6888   -1.7686 H   0  0  0  0  0  0  0  0  0  0  0  0
    4.0272    1.7720   -1.1750 H   0  0  0  0  0  0  0  0  0  0  0  0
  1  2  1  0
  2  3  2  0
  3  4  1  0
  4  5  2  0
  5  6  1  0
  6  7  2  0
  7  8  1  0
  8  9  2  0
  9 10  1  0
 10 11  1  0
 11 12  2  0
  7  2  1  0
 12  8  1  0
  1 13  1  0
  3 14  1  0
  4 15  1  0
  5 16  1  0
  6 17  1  0
  9 18  1  0
 10 19  1  0
M  END
$$$$
