@<TRIPOS>MOLECULE
*****
 19 20 0 0 0
SMALL
GASTEIGER

@<TRIPOS>ATOM
      1 O           0.2940   -1.3732    1.9400 O.3     1  UNL1       -0.5061
      2 C          -0.5870   -0.8479    1.0023 C.ar    1  UNL1        0.1261
      3 C          -1.9323   -1.1567    1.0363 C.ar    1  UNL1       -0.0195
      4 C          -2.8181   -0.6419    0.1111 C.ar    1  UNL1       -0.0583
      5 C          -2.3009    0.1976   -0.8534 C.ar    1  UNL1       -0.0609
      6 C          -0.9539    0.5080   -0.8892 C.ar    1  UNL1       -0.0490
      7 C          -0.0718   -0.0085    0.0374 C.ar    1  UNL1        0.0450
      8 C           1.3425    0.3378   -0.0272 C.ar    1  UNL1        0.1158
      9 C           1.9578    1.1616   -0.9437 C.ar    1  UNL1        0.0503
     10 N           3.2881    1.2227   -0.6550 N.ar    1  UNL1       -0.2643
     11 N           3.4705    0.4620    0.3996 N.ar    1  UNL1       -0.0678
     12 N           2.3158   -0.0823    0.7974 N.ar    1  UNL1       -0.1296
     13 H           0.1916   -2.3144    2.2792 H       1  UNL1        0.2922
     14 H          -2.3327   -1.8252    1.8075 H       1  UNL1        0.0654
     15 H          -3.8692   -0.8851    0.1404 H       1  UNL1        0.0619
     16 H          -2.9668    0.6101   -1.5828 H       1  UNL1        0.0618
     17 H          -0.5478    1.1746   -1.6563 H       1  UNL1        0.0625
     18 H           1.4932    1.6888   -1.7686 H       1  UNL1        0.0846
     19 H           4.0272    1.7720   -1.1750 H       1  UNL1        0.1900
@<TRIPOS>BOND
     1     1     2    1
     2     2     3   ar
     3     3     4   ar
     4     4     5   ar
     5     5     6   ar
     6     6     7   ar
     7     7     8    1
     8     8     9   ar
     9     9    10   ar
    10    10    11   ar
    11    11    12   ar
    12     7     2   ar
    13    12     8   ar
    14     1    13    1
    15     3    14    1
    16     4    15    1
    17     5    16    1
    18     6    17    1
    19     9    18    1
    20    10    19    1
