@<TRIPOS>MOLECULE
*****
 49 51 0 0 0
SMALL
GASTEIGER

@<TRIPOS>ATOM
      1 C           1.5366    3.5231    0.7678 C.3     1  UNL1        0.0788
      2 O           2.1447    2.3981    0.1667 O.3     1  UNL1       -0.4947
      3 C           1.4117    1.2565   -0.0752 C.ar    1  UNL1        0.1285
      4 C           0.0818    1.2179    0.2723 C.ar    1  UNL1       -0.0116
      5 C          -0.6309    0.0498    0.0138 C.ar    1  UNL1       -0.0090
      6 C          -2.0513   -0.0954    0.3283 C.ar    1  UNL1        0.0065
      7 C          -2.5167   -1.1323    1.1298 C.ar    1  UNL1        0.0159
      8 N          -3.8099   -1.2703    1.4574 N.ar    1  UNL1       -0.3171
      9 C          -4.2230   -2.3781    2.2982 C.3     1  UNL1        0.0147
     10 C          -4.7342   -0.4021    1.0221 C.ar    1  UNL1        0.2603
     11 O          -5.9500   -0.5255    1.3263 O.2     1  UNL1       -0.2670
     12 C          -4.3252    0.6567    0.2148 C.ar    1  UNL1        0.0653
     13 C          -5.3024    1.5224   -0.2204 C.ar    1  UNL1        0.0405
     14 N          -4.9129    2.5378   -1.0062 N.ar    1  UNL1       -0.2625
     15 C          -3.6439    2.7239   -1.3653 C.ar    1  UNL1        0.0282
     16 C          -2.6584    1.8601   -0.9326 C.ar    1  UNL1       -0.0351
     17 C          -2.9814    0.8068   -0.1308 C.ar    1  UNL1       -0.0007
     18 C           0.0028   -1.0296   -0.5764 C.ar    1  UNL1       -0.0116
     19 C           1.3278   -0.9539   -0.9079 C.ar    1  UNL1        0.1285
     20 O           1.9171   -2.0707   -1.5004 O.3     1  UNL1       -0.4947
     21 C           1.2157   -3.2528   -1.7666 C.3     1  UNL1        0.0788
     22 C           2.0415    0.1882   -0.6604 C.ar    1  UNL1        0.0497
     23 C           3.4639    0.2541   -1.0232 C.3     1  UNL1        0.0304
     24 N           4.3601    0.1339    0.0831 N.3     1  UNL1       -0.3039
     25 C           5.7179    0.2144   -0.4163 C.3     1  UNL1       -0.0127
     26 C           4.2080   -1.1455    0.7378 C.3     1  UNL1       -0.0127
     27 H           0.9751    3.2224    1.6873 H       1  UNL1        0.0660
     28 H           2.2879    4.2710    1.1023 H       1  UNL1        0.0660
     29 H           0.7566    3.9846    0.0997 H       1  UNL1        0.0660
     30 H          -0.4189    2.0663    0.7490 H       1  UNL1        0.0660
     31 H          -1.7878   -1.8275    1.4804 H       1  UNL1        0.0816
     32 H          -3.8193   -3.3015    1.7897 H       1  UNL1        0.0457
     33 H          -3.7236   -2.3581    3.2904 H       1  UNL1        0.0457
     34 H          -5.3152   -2.4732    2.3608 H       1  UNL1        0.0457
     35 H          -6.3475    1.4417    0.0239 H       1  UNL1        0.0837
     36 H          -3.3419    3.5450   -1.9989 H       1  UNL1        0.0830
     37 H          -1.6530    2.0182   -1.2387 H       1  UNL1        0.0639
     38 H          -0.5817   -1.9438   -0.7713 H       1  UNL1        0.0660
     39 H           0.3453   -3.1055   -2.4361 H       1  UNL1        0.0660
     40 H           1.9157   -3.9375   -2.3033 H       1  UNL1        0.0660
     41 H           0.8360   -3.6943   -0.8267 H       1  UNL1        0.0660
     42 H           3.7370   -0.4651   -1.8331 H       1  UNL1        0.0478
     43 H           3.6312    1.2678   -1.4884 H       1  UNL1        0.0478
     44 H           6.4752    0.0108    0.3740 H       1  UNL1        0.0391
     45 H           5.9166    1.1648   -0.9547 H       1  UNL1        0.0391
     46 H           5.8815   -0.5997   -1.1804 H       1  UNL1        0.0391
     47 H           4.7488   -1.0502    1.7197 H       1  UNL1        0.0391
     48 H           3.1608   -1.3826    1.0055 H       1  UNL1        0.0391
     49 H           4.6320   -1.9411    0.1123 H       1  UNL1        0.0391
@<TRIPOS>BOND
     1     1     2    1
     2     2     3    1
     3     3     4   ar
     4     4     5   ar
     5     5     6    1
     6     6     7   ar
     7     7     8   ar
     8     8     9    1
     9     8    10   ar
    10    10    11    2
    11    10    12   ar
    12    12    13   ar
    13    13    14   ar
    14    14    15   ar
    15    15    16   ar
    16    16    17   ar
    17     5    18   ar
    18    18    19   ar
    19    19    20    1
    20    20    21    1
    21    19    22   ar
    22    22    23    1
    23    23    24    1
    24    24    25    1
    25    24    26    1
    26    22     3   ar
    27    17     6   ar
    28    17    12   ar
    29     1    27    1
    30     1    28    1
    31     1    29    1
    32     4    30    1
    33     7    31    1
    34     9    32    1
    35     9    33    1
    36     9    34    1
    37    13    35    1
    38    15    36    1
    39    16    37    1
    40    18    38    1
    41    21    39    1
    42    21    40    1
    43    21    41    1
    44    23    42    1
    45    23    43    1
    46    25    44    1
    47    25    45    1
    48    25    46    1
    49    26    47    1
    50    26    48    1
    51    26    49    1
