
     RDKit          3D

 49 51  0  0  0  0  0  0  0  0999 V2000
    1.5366    3.5231    0.7678 C   0  0  0  0  0  0  0  0  0  0  0  0
    2.1447    2.3981    0.1667 O   0  0  0  0  0  0  0  0  0  0  0  0
    1.4117    1.2565   -0.0752 C   0  0  0  0  0  0  0  0  0  0  0  0
    0.0818    1.2179    0.2723 C   0  0  0  0  0  0  0  0  0  0  0  0
   -0.6309    0.0498    0.0138 C   0  0  0  0  0  0  0  0  0  0  0  0
   -2.0513   -0.0954    0.3283 C   0  0  0  0  0  0  0  0  0  0  0  0
   -2.5167   -1.1323    1.1298 C   0  0  0  0  0  0  0  0  0  0  0  0
   -3.8099   -1.2703    1.4574 N   0  0  0  0  0  0  0  0  0  0  0  0
   -4.2230   -2.3781    2.2982 C   0  0  0  0  0  0  0  0  0  0  0  0
   -4.7342   -0.4021    1.0221 C   0  0  0  0  0  0  0  0  0  0  0  0
   -5.9500   -0.5255    1.3263 O   0  0  0  0  0  0  0  0  0  0  0  0
   -4.3252    0.6567    0.2148 C   0  0  0  0  0  0  0  0  0  0  0  0
   -5.3024    1.5224   -0.2204 C   0  0  0  0  0  0  0  0  0  0  0  0
   -4.9129    2.5378   -1.0062 N   0  0  0  0  0  0  0  0  0  0  0  0
   -3.6439    2.7239   -1.3653 C   0  0  0  0  0  0  0  0  0  0  0  0
   -2.6584    1.8601   -0.9326 C   0  0  0  0  0  0  0  0  0  0  0  0
   -2.9814    0.8068   -0.1308 C   0  0  0  0  0  0  0  0  0  0  0  0
    0.0028   -1.0296   -0.5764 C   0  0  0  0  0  0  0  0  0  0  0  0
    1.3278   -0.9539   -0.9079 C   0  0  0  0  0  0  0  0  0  0  0  0
    1.9171   -2.0707   -1.5004 O   0  0  0  0  0  0  0  0  0  0  0  0
    1.2157   -3.2528   -1.7666 C   0  0  0  0  0  0  0  0  0  0  0  0
    2.0415    0.1882   -0.6604 C   0  0  0  0  0  0  0  0  0  0  0  0
    3.4639    0.2541   -1.0232 C   0  0  0  0  0  0  0  0  0  0  0  0
    4.3601    0.1339    0.0831 N   0  0  0  0  0  0  0  0  0  0  0  0
    5.7179    0.2144   -0.4163 C   0  0  0  0  0  0  0  0  0  0  0  0
    4.2080   -1.1455    0.7378 C   0  0  0  0  0  0  0  0  0  0  0  0
    0.9751    3.2224    1.6873 H   0  0  0  0  0  0  0  0  0  0  0  0
    2.2879    4.2710    1.1023 H   0  0  0  0  0  0  0  0  0  0  0  0
    0.7566    3.9846    0.0997 H   0  0  0  0  0  0  0  0  0  0  0  0
   -0.4189    2.0663    0.7490 H   0  0  0  0  0  0  0  0  0  0  0  0
   -1.7878   -1.8275    1.4804 H   0  0  0  0  0  0  0  0  0  0  0  0
   -3.8193   -3.3015    1.7897 H   0  0  0  0  0  0  0  0  0  0  0  0
   -3.7236   -2.3581    3.2904 H   0  0  0  0  0  0  0  0  0  0  0  0
   -5.3152   -2.4732    2.3608 H   0  0  0  0  0  0  0  0  0  0  0  0
   -6.3475    1.4417    0.0239 H   0  0  0  0  0  0  0  0  0  0  0  0
   -3.3419    3.5450   -1.9989 H   0  0  0  0  0  0  0  0  0  0  0  0
   -1.6530    2.0182   -1.2387 H   0  0  0  0  0  0  0  0  0  0  0  0
   -0.5817   -1.9438   -0.7713 H   0  0  0  0  0  0  0  0  0  0  0  0
    0.3453   -3.1055   -2.4361 H   0  0  0  0  0  0  0  0  0  0  0  0
    1.9157   -3.9375   -2.3033 H   0  0  0  0  0  0  0  0  0  0  0  0
    0.8360   -3.6943   -0.8267 H   0  0  0  0  0  0  0  0  0  0  0  0
    3.7370   -0.4651   -1.8331 H   0  0  0  0  0  0  0  0  0  0  0  0
    3.6312    1.2678   -1.4884 H   0  0  0  0  0  0  0  0  0  0  0  0
    6.4752    0.0108    0.3740 H   0  0  0  0  0  0  0  0  0  0  0  0
    5.9166    1.1648   -0.9547 H   0  0  0  0  0  0  0  0  0  0  0  0
    5.8815   -0.5997   -1.1804 H   0  0  0  0  0  0  0  0  0  0  0  0
    4.7488   -1.0502    1.7197 H   0  0  0  0  0  0  0  0  0  0  0  0
    3.1608   -1.3826    1.0055 H   0  0  0  0  0  0  0  0  0  0  0  0
    4.6320   -1.9411    0.1123 H   0  0  0  0  0  0  0  0  0  0  0  0
  1  2  1  0
  2  3  1  0
  3  4  2  0
  4  5  1  0
  5  6  1  0
  6  7  2  0
  7  8  1  0
  8  9  1  0
  8 10  1  0
 10 11  2  0
 10 12  1  0
 12 13  2  0
 13 14  1  0
 14 15  2  0
 15 16  1  0
 16 17  2  0
  5 18  2  0
 18 19  1  0
 19 20  1  0
 20 21  1  0
 19 22  2  0
 22 23  1  0
 23 24  1  0
 24 25  1  0
 24 26  1  0
 22  3  1  0
 17  6  1  0
 17 12  1  0
  1 27  1  0
  1 28  1  0
  1 29  1  0
  4 30  1  0
  7 31  1  0
  9 32  1  0
  9 33  1  0
  9 34  1  0
 13 35  1  0
 15 36  1  0
 16 37  1  0
 18 38  1  0
 21 39  1  0
 21 40  1  0
 21 41  1  0
 23 42  1  0
 23 43  1  0
 25 44  1  0
 25 45  1  0
 25 46  1  0
 26 47  1  0
 26 48  1  0
 26 49  1  0
M  END
$$$$
