@<TRIPOS>MOLECULE
*****
 64 68 0 0 0
SMALL
GASTEIGER

@<TRIPOS>ATOM
      1 C          -4.7671    3.0408    0.5705 C.3     1  UNL1       -0.0416
      2 C          -5.4563    1.7655    0.2560 C.3     1  UNL1        0.0551
      3 C          -6.2198    1.2653    1.4799 C.3     1  UNL1       -0.0416
      4 C          -6.5306    1.9457   -0.8316 C.3     1  UNL1        0.0686
      5 O          -7.2813    0.7918   -0.7969 O.3     1  UNL1       -0.3761
      6 C          -6.6494   -0.3535   -1.1723 C.3     1  UNL1        0.0635
      7 C          -5.2527   -0.5173   -0.6390 C.3     1  UNL1        0.0388
      8 N          -4.6298    0.7083   -0.2577 N.am    1  UNL1       -0.2907
      9 C          -3.2353    0.8791   -0.3913 C.2     1  UNL1        0.2330
     10 O          -2.6380    1.9568   -0.0485 O.2     1  UNL1       -0.2740
     11 C          -2.3400   -0.1735   -0.9413 C.3     1  UNL1        0.1054
     12 C          -2.2767   -1.5282   -0.2194 C.3     1  UNL1       -0.0220
     13 C          -1.1278   -0.6249   -0.2320 C.3     1  UNL1        0.0134
     14 C           0.0865   -0.7794   -1.0738 C.3     1  UNL1        0.0935
     15 C           0.5165    0.6025   -1.5409 C.3     1  UNL1       -0.0351
     16 C           1.1973   -1.3045   -0.2282 C.ar    1  UNL1        0.0158
     17 C           2.3477   -0.5823    0.0273 C.ar    1  UNL1       -0.0463
     18 C           3.3740   -1.0665    0.8014 C.ar    1  UNL1       -0.0217
     19 C           4.5883   -0.2483    1.0548 C.2     1  UNL1       -0.0172
     20 C           5.7868   -0.7798    1.0597 C.2     1  UNL1        0.1492
     21 F           5.8950   -2.1032    0.8243 F       1  UNL1       -0.2032
     22 C           6.9835   -0.0035    1.3195 C.ar    1  UNL1        0.0990
     23 C           7.0046    1.3395    1.5953 C.ar    1  UNL1       -0.0322
     24 C           8.2083    1.9694    1.8308 C.ar    1  UNL1       -0.0408
     25 C           9.4302    1.3063    1.8037 C.ar    1  UNL1        0.0699
     26 C          10.6634    1.9687    2.0559 C.1     1  UNL1        0.1007
     27 N          11.6975    2.5310    2.2574 N.1     1  UNL1       -0.1908
     28 C           9.3542   -0.0449    1.5207 C.ar    1  UNL1        0.0457
     29 N           8.1840   -0.6509    1.2935 N.ar    1  UNL1       -0.2514
     30 C           3.2515   -2.3242    1.3454 C.ar    1  UNL1       -0.0518
     31 C           2.1328   -3.0928    1.1288 C.ar    1  UNL1       -0.0255
     32 C           1.1185   -2.5638    0.3395 C.ar    1  UNL1        0.1289
     33 F           0.0395   -3.3634    0.1543 F       1  UNL1       -0.2051
     34 N          -0.0580   -1.6887   -2.1910 N.2     1  UNL1       -0.2521
     35 C          -1.0232   -1.6412   -3.0371 C.2     1  UNL1        0.1485
     36 N          -1.0878   -2.5560   -4.0861 N.pl3   1  UNL1       -0.3380
     37 S          -2.2451   -0.3413   -2.7564 S.3     1  UNL1       -0.0746
     38 H          -5.5758    3.7522    0.9218 H       1  UNL1        0.0251
     39 H          -4.1360    2.8955    1.4537 H       1  UNL1        0.0251
     40 H          -4.3154    3.5342   -0.2885 H       1  UNL1        0.0251
     41 H          -7.0399    1.9877    1.7426 H       1  UNL1        0.0251
     42 H          -6.6438    0.2582    1.3033 H       1  UNL1        0.0251
     43 H          -5.4849    1.1687    2.3058 H       1  UNL1        0.0251
     44 H          -5.9774    2.0642   -1.8012 H       1  UNL1        0.0581
     45 H          -7.1416    2.8285   -0.6737 H       1  UNL1        0.0581
     46 H          -6.7182   -0.4652   -2.2798 H       1  UNL1        0.0575
     47 H          -7.2480   -1.2211   -0.7686 H       1  UNL1        0.0575
     48 H          -4.6818   -1.1085   -1.3845 H       1  UNL1        0.0487
     49 H          -5.2660   -1.1589    0.2926 H       1  UNL1        0.0487
     50 H          -2.2438   -2.4304   -0.8359 H       1  UNL1        0.0287
     51 H          -2.8879   -1.6141    0.7102 H       1  UNL1        0.0287
     52 H          -0.9280   -0.0979    0.7377 H       1  UNL1        0.0346
     53 H           1.4437    0.5445   -2.1256 H       1  UNL1        0.0256
     54 H           0.6597    1.2402   -0.6546 H       1  UNL1        0.0256
     55 H          -0.2763    1.1124   -2.1411 H       1  UNL1        0.0256
     56 H           2.4723    0.4072   -0.3864 H       1  UNL1        0.0628
     57 H           4.4745    0.8088    1.2391 H       1  UNL1        0.0653
     58 H           6.0807    1.9069    1.6289 H       1  UNL1        0.0640
     59 H           8.2475    3.0446    2.0533 H       1  UNL1        0.0631
     60 H          10.3032   -0.5777    1.4946 H       1  UNL1        0.0843
     61 H           4.0316   -2.7239    1.9551 H       1  UNL1        0.0624
     62 H           2.0370   -4.0833    1.5578 H       1  UNL1        0.0646
     63 H          -0.5221   -3.4246   -4.0743 H       1  UNL1        0.1442
     64 H          -1.7049   -2.3871   -4.9046 H       1  UNL1        0.1442
@<TRIPOS>BOND
     1     1     2    1
     2     2     3    1
     3     2     4    1
     4     4     5    1
     5     5     6    1
     6     6     7    1
     7     7     8    1
     8     8     9   am
     9     9    10    2
    10    11     9    1
    11    11    12    1
    12    12    13    1
    13    13    14    1
    14    14    15    1
    15    14    16    1
    16    16    17   ar
    17    17    18   ar
    18    18    19    1
    19    19    20    2
    20    20    21    1
    21    20    22    1
    22    22    23   ar
    23    23    24   ar
    24    24    25   ar
    25    25    26    1
    26    26    27    3
    27    25    28   ar
    28    28    29   ar
    29    18    30   ar
    30    30    31   ar
    31    31    32   ar
    32    32    33    1
    33    14    34    1
    34    34    35    2
    35    35    36    1
    36    35    37    1
    37     8     2    1
    38    13    11    1
    39    32    16   ar
    40    37    11    1
    41    29    22   ar
    42     1    38    1
    43     1    39    1
    44     1    40    1
    45     3    41    1
    46     3    42    1
    47     3    43    1
    48     4    44    1
    49     4    45    1
    50     6    46    1
    51     6    47    1
    52     7    48    1
    53     7    49    1
    54    12    50    1
    55    12    51    1
    56    13    52    1
    57    15    53    1
    58    15    54    1
    59    15    55    1
    60    17    56    1
    61    19    57    1
    62    23    58    1
    63    24    59    1
    64    28    60    1
    65    30    61    1
    66    31    62    1
    67    36    63    1
    68    36    64    1
