@<TRIPOS>MOLECULE
*****
 56 60 0 0 0
SMALL
GASTEIGER

@<TRIPOS>ATOM
      1 O          -5.0879    1.8856   -2.2140 O.2     1  UNL1       -0.2702
      2 C          -5.9914    1.1049   -1.8887 C.2     1  UNL1        0.2453
      3 N          -7.2292    0.9343   -2.6187 N.am    1  UNL1       -0.3072
      4 C          -8.0893    0.0354   -1.9386 C.3     1  UNL1        0.0379
      5 C          -7.2567   -0.4746   -0.8199 C.ar    1  UNL1       -0.0176
      6 C          -7.5723   -1.4769    0.0941 C.ar    1  UNL1       -0.0563
      7 C          -6.6589   -1.7832    1.0612 C.ar    1  UNL1       -0.0608
      8 C          -5.4654   -1.1180    1.1282 C.ar    1  UNL1       -0.0519
      9 C          -5.1107   -0.0974    0.2233 C.ar    1  UNL1        0.0107
     10 C          -3.8053    0.5374    0.3537 C.ar    1  UNL1        0.0482
     11 C          -2.7355   -0.2253    0.8908 C.ar    1  UNL1       -0.0285
     12 C          -1.6213    0.5426    0.8414 C.ar    1  UNL1        0.0037
     13 C          -0.3132    0.2554    1.2451 C.ar    1  UNL1       -0.0108
     14 C           0.6461    1.2020    1.0900 C.ar    1  UNL1        0.1212
     15 O           1.9420    1.0623    1.4302 O.3     1  UNL1       -0.4919
     16 C           2.7145    0.0736    1.9620 C.3     1  UNL1        0.0907
     17 C           2.8379   -1.1613    1.1160 C.3     1  UNL1       -0.0058
     18 C           3.4536   -0.8536   -0.2296 C.3     1  UNL1        0.0020
     19 N           4.7850   -0.2944   -0.1448 N.3     1  UNL1       -0.3022
     20 C           5.1966   -0.0440   -1.5134 C.3     1  UNL1       -0.0011
     21 C           6.6691   -0.0066   -1.7161 C.3     1  UNL1       -0.0402
     22 C           7.3651    0.3046   -0.4323 C.3     1  UNL1       -0.0507
     23 C           7.0906   -0.8467    0.5218 C.3     1  UNL1       -0.0402
     24 C           5.6488   -1.2558    0.5093 C.3     1  UNL1       -0.0011
     25 C           0.2678    2.4386    0.5246 C.ar    1  UNL1       -0.0180
     26 C          -1.0163    2.7065    0.1341 C.ar    1  UNL1       -0.0343
     27 C          -1.9758    1.7332    0.2989 C.ar    1  UNL1        0.0471
     28 N          -3.3062    1.7080    0.0120 N.ar    1  UNL1       -0.3541
     29 C          -6.0368    0.1992   -0.7488 C.ar    1  UNL1        0.0504
     30 H          -7.4186    1.4318   -3.5271 H       1  UNL1        0.1493
     31 H          -9.0317    0.4976   -1.5736 H       1  UNL1        0.0512
     32 H          -8.3169   -0.8780   -2.5658 H       1  UNL1        0.0512
     33 H          -8.5417   -1.9902    0.0120 H       1  UNL1        0.0621
     34 H          -6.8582   -2.5475    1.7842 H       1  UNL1        0.0618
     35 H          -4.7178   -1.3410    1.8959 H       1  UNL1        0.0624
     36 H          -2.7883   -1.2265    1.2683 H       1  UNL1        0.0645
     37 H          -0.1123   -0.6956    1.6766 H       1  UNL1        0.0661
     38 H           2.3958   -0.2612    2.9879 H       1  UNL1        0.0697
     39 H           3.7866    0.4063    2.1478 H       1  UNL1        0.0697
     40 H           3.3901   -1.9657    1.6477 H       1  UNL1        0.0310
     41 H           1.8428   -1.5692    0.9091 H       1  UNL1        0.0310
     42 H           3.5054   -1.7776   -0.8166 H       1  UNL1        0.0428
     43 H           2.7702   -0.1422   -0.7460 H       1  UNL1        0.0428
     44 H           4.7568   -0.7957   -2.2015 H       1  UNL1        0.0426
     45 H           4.7893    0.9577   -1.7982 H       1  UNL1        0.0426
     46 H           6.9319    0.7681   -2.4757 H       1  UNL1        0.0278
     47 H           7.0057   -1.0193   -2.0702 H       1  UNL1        0.0278
     48 H           6.9141    1.2066    0.0133 H       1  UNL1        0.0266
     49 H           8.4568    0.3963   -0.6033 H       1  UNL1        0.0266
     50 H           7.4989   -0.6521    1.5294 H       1  UNL1        0.0278
     51 H           7.6842   -1.7110    0.1170 H       1  UNL1        0.0278
     52 H           5.4845   -2.2424   -0.0066 H       1  UNL1        0.0426
     53 H           5.3201   -1.3314    1.5656 H       1  UNL1        0.0426
     54 H           1.0072    3.2214    0.3850 H       1  UNL1        0.0655
     55 H          -1.3142    3.6554   -0.3015 H       1  UNL1        0.0639
     56 H          -3.7856    2.5198   -0.3651 H       1  UNL1        0.1659
@<TRIPOS>BOND
     1     1     2    2
     2     2     3   am
     3     3     4    1
     4     4     5    1
     5     5     6   ar
     6     6     7   ar
     7     7     8   ar
     8     8     9   ar
     9     9    10    1
    10    10    11   ar
    11    11    12   ar
    12    12    13   ar
    13    13    14   ar
    14    14    15    1
    15    15    16    1
    16    16    17    1
    17    17    18    1
    18    18    19    1
    19    19    20    1
    20    20    21    1
    21    21    22    1
    22    22    23    1
    23    23    24    1
    24    14    25   ar
    25    25    26   ar
    26    26    27   ar
    27    27    28   ar
    28     9    29   ar
    29    29     2    1
    30    29     5   ar
    31    28    10   ar
    32    27    12   ar
    33    24    19    1
    34     3    30    1
    35     4    31    1
    36     4    32    1
    37     6    33    1
    38     7    34    1
    39     8    35    1
    40    11    36    1
    41    13    37    1
    42    16    38    1
    43    16    39    1
    44    17    40    1
    45    17    41    1
    46    18    42    1
    47    18    43    1
    48    20    44    1
    49    20    45    1
    50    21    46    1
    51    21    47    1
    52    22    48    1
    53    22    49    1
    54    23    50    1
    55    23    51    1
    56    24    52    1
    57    24    53    1
    58    25    54    1
    59    26    55    1
    60    28    56    1
