
     RDKit          3D

 56 60  0  0  0  0  0  0  0  0999 V2000
   -5.0879    1.8856   -2.2140 O   0  0  0  0  0  0  0  0  0  0  0  0
   -5.9914    1.1049   -1.8887 C   0  0  0  0  0  0  0  0  0  0  0  0
   -7.2292    0.9343   -2.6187 N   0  0  0  0  0  0  0  0  0  0  0  0
   -8.0893    0.0354   -1.9386 C   0  0  0  0  0  0  0  0  0  0  0  0
   -7.2567   -0.4746   -0.8199 C   0  0  0  0  0  0  0  0  0  0  0  0
   -7.5723   -1.4769    0.0941 C   0  0  0  0  0  0  0  0  0  0  0  0
   -6.6589   -1.7832    1.0612 C   0  0  0  0  0  0  0  0  0  0  0  0
   -5.4654   -1.1180    1.1282 C   0  0  0  0  0  0  0  0  0  0  0  0
   -5.1107   -0.0974    0.2233 C   0  0  0  0  0  0  0  0  0  0  0  0
   -3.8053    0.5374    0.3537 C   0  0  0  0  0  0  0  0  0  0  0  0
   -2.7355   -0.2253    0.8908 C   0  0  0  0  0  0  0  0  0  0  0  0
   -1.6213    0.5426    0.8414 C   0  0  0  0  0  0  0  0  0  0  0  0
   -0.3132    0.2554    1.2451 C   0  0  0  0  0  0  0  0  0  0  0  0
    0.6461    1.2020    1.0900 C   0  0  0  0  0  0  0  0  0  0  0  0
    1.9420    1.0623    1.4302 O   0  0  0  0  0  0  0  0  0  0  0  0
    2.7145    0.0736    1.9620 C   0  0  0  0  0  0  0  0  0  0  0  0
    2.8379   -1.1613    1.1160 C   0  0  0  0  0  0  0  0  0  0  0  0
    3.4536   -0.8536   -0.2296 C   0  0  0  0  0  0  0  0  0  0  0  0
    4.7850   -0.2944   -0.1448 N   0  0  0  0  0  0  0  0  0  0  0  0
    5.1966   -0.0440   -1.5134 C   0  0  0  0  0  0  0  0  0  0  0  0
    6.6691   -0.0066   -1.7161 C   0  0  0  0  0  0  0  0  0  0  0  0
    7.3651    0.3046   -0.4323 C   0  0  0  0  0  0  0  0  0  0  0  0
    7.0906   -0.8467    0.5218 C   0  0  0  0  0  0  0  0  0  0  0  0
    5.6488   -1.2558    0.5093 C   0  0  0  0  0  0  0  0  0  0  0  0
    0.2678    2.4386    0.5246 C   0  0  0  0  0  0  0  0  0  0  0  0
   -1.0163    2.7065    0.1341 C   0  0  0  0  0  0  0  0  0  0  0  0
   -1.9758    1.7332    0.2989 C   0  0  0  0  0  0  0  0  0  0  0  0
   -3.3062    1.7080    0.0120 N   0  0  0  0  0  0  0  0  0  0  0  0
   -6.0368    0.1992   -0.7488 C   0  0  0  0  0  0  0  0  0  0  0  0
   -7.4186    1.4318   -3.5271 H   0  0  0  0  0  0  0  0  0  0  0  0
   -9.0317    0.4976   -1.5736 H   0  0  0  0  0  0  0  0  0  0  0  0
   -8.3169   -0.8780   -2.5658 H   0  0  0  0  0  0  0  0  0  0  0  0
   -8.5417   -1.9902    0.0120 H   0  0  0  0  0  0  0  0  0  0  0  0
   -6.8582   -2.5475    1.7842 H   0  0  0  0  0  0  0  0  0  0  0  0
   -4.7178   -1.3410    1.8959 H   0  0  0  0  0  0  0  0  0  0  0  0
   -2.7883   -1.2265    1.2683 H   0  0  0  0  0  0  0  0  0  0  0  0
   -0.1123   -0.6956    1.6766 H   0  0  0  0  0  0  0  0  0  0  0  0
    2.3958   -0.2612    2.9879 H   0  0  0  0  0  0  0  0  0  0  0  0
    3.7866    0.4063    2.1478 H   0  0  0  0  0  0  0  0  0  0  0  0
    3.3901   -1.9657    1.6477 H   0  0  0  0  0  0  0  0  0  0  0  0
    1.8428   -1.5692    0.9091 H   0  0  0  0  0  0  0  0  0  0  0  0
    3.5054   -1.7776   -0.8166 H   0  0  0  0  0  0  0  0  0  0  0  0
    2.7702   -0.1422   -0.7460 H   0  0  0  0  0  0  0  0  0  0  0  0
    4.7568   -0.7957   -2.2015 H   0  0  0  0  0  0  0  0  0  0  0  0
    4.7893    0.9577   -1.7982 H   0  0  0  0  0  0  0  0  0  0  0  0
    6.9319    0.7681   -2.4757 H   0  0  0  0  0  0  0  0  0  0  0  0
    7.0057   -1.0193   -2.0702 H   0  0  0  0  0  0  0  0  0  0  0  0
    6.9141    1.2066    0.0133 H   0  0  0  0  0  0  0  0  0  0  0  0
    8.4568    0.3963   -0.6033 H   0  0  0  0  0  0  0  0  0  0  0  0
    7.4989   -0.6521    1.5294 H   0  0  0  0  0  0  0  0  0  0  0  0
    7.6842   -1.7110    0.1170 H   0  0  0  0  0  0  0  0  0  0  0  0
    5.4845   -2.2424   -0.0066 H   0  0  0  0  0  0  0  0  0  0  0  0
    5.3201   -1.3314    1.5656 H   0  0  0  0  0  0  0  0  0  0  0  0
    1.0072    3.2214    0.3850 H   0  0  0  0  0  0  0  0  0  0  0  0
   -1.3142    3.6554   -0.3015 H   0  0  0  0  0  0  0  0  0  0  0  0
   -3.7856    2.5198   -0.3651 H   0  0  0  0  0  0  0  0  0  0  0  0
  1  2  2  0
  2  3  1  0
  3  4  1  0
  4  5  1  0
  5  6  2  0
  6  7  1  0
  7  8  2  0
  8  9  1  0
  9 10  1  0
 10 11  2  0
 11 12  1  0
 12 13  2  0
 13 14  1  0
 14 15  1  0
 15 16  1  0
 16 17  1  0
 17 18  1  0
 18 19  1  0
 19 20  1  0
 20 21  1  0
 21 22  1  0
 22 23  1  0
 23 24  1  0
 14 25  2  0
 25 26  1  0
 26 27  2  0
 27 28  1  0
  9 29  2  0
 29  2  1  0
 29  5  1  0
 28 10  1  0
 27 12  1  0
 24 19  1  0
  3 30  1  0
  4 31  1  0
  4 32  1  0
  6 33  1  0
  7 34  1  0
  8 35  1  0
 11 36  1  0
 13 37  1  0
 16 38  1  0
 16 39  1  0
 17 40  1  0
 17 41  1  0
 18 42  1  0
 18 43  1  0
 20 44  1  0
 20 45  1  0
 21 46  1  0
 21 47  1  0
 22 48  1  0
 22 49  1  0
 23 50  1  0
 23 51  1  0
 24 52  1  0
 24 53  1  0
 25 54  1  0
 26 55  1  0
 28 56  1  0
M  END
$$$$
