@<TRIPOS>MOLECULE
*****
 56 58 0 0 0
SMALL
GASTEIGER

@<TRIPOS>ATOM
      1 C          -4.2581    6.5225   -1.1168 C.3     1  UNL1       -0.0319
      2 C          -4.0154    5.1303   -0.7319 C.ar    1  UNL1        0.0068
      3 C          -4.7380    4.1533   -0.1593 C.ar    1  UNL1        0.0383
      4 N          -4.1363    3.0002    0.0237 N.ar    1  UNL1       -0.2471
      5 C          -3.0721    2.6905   -0.2330 C.ar    1  UNL1        0.1086
      6 C          -2.0847    1.5476   -0.1841 C.ar    1  UNL1        0.0113
      7 C          -2.5354    0.3639    0.3658 C.ar    1  UNL1       -0.0102
      8 C          -1.6918   -0.7167    0.4425 C.ar    1  UNL1        0.1224
      9 O          -2.0074   -1.9298    0.9564 O.3     1  UNL1       -0.4865
     10 C          -3.2488   -2.2596    1.4877 C.3     1  UNL1        0.1228
     11 C          -3.0354   -2.6303    2.9649 C.3     1  UNL1       -0.0253
     12 C          -3.8228   -3.4836    0.7857 C.3     1  UNL1        0.0889
     13 C          -3.9453   -3.2023   -0.6911 C.3     1  UNL1       -0.0355
     14 O          -5.0563   -3.7867    1.3354 O.3     1  UNL1       -0.3884
     15 C          -0.3741   -0.5683   -0.0538 C.ar    1  UNL1       -0.0078
     16 C           0.0858    0.5988   -0.6013 C.ar    1  UNL1        0.0408
     17 C           1.4303    0.7110   -1.0945 C.2     1  UNL1        0.2447
     18 O           1.7485    1.8560   -1.5865 O.2     1  UNL1       -0.2702
     19 N           2.3922   -0.3234   -1.0733 N.am    1  UNL1       -0.3047
     20 C           3.7054   -0.0542   -1.6087 C.3     1  UNL1        0.0487
     21 C           3.8717   -0.9339   -2.8315 C.3     1  UNL1       -0.0423
     22 C           4.7753   -0.3074   -0.6074 C.ar    1  UNL1        0.0087
     23 C           4.7718   -1.4423    0.1759 C.ar    1  UNL1        0.0363
     24 N           5.7484   -1.6555    1.0774 N.ar    1  UNL1       -0.2321
     25 C           6.7651   -0.7958    1.2668 C.ar    1  UNL1        0.2339
     26 C           7.8372   -1.0610    2.2780 C.3     1  UNL1        0.4522
     27 F           7.2988   -1.5954    3.4314 F       1  UNL1       -0.1632
     28 F           8.4953    0.0943    2.6050 F       1  UNL1       -0.1632
     29 F           8.7632   -1.9633    1.8051 F       1  UNL1       -0.1632
     30 N           6.7731    0.3129    0.5050 N.ar    1  UNL1       -0.2321
     31 C           5.8199    0.5721   -0.4102 C.ar    1  UNL1        0.0363
     32 C          -0.8192    1.6507   -0.6475 C.ar    1  UNL1       -0.0397
     33 S          -2.4222    4.2953   -0.9916 S.2     1  UNL1       -0.0725
     34 H          -4.9978    6.9482   -0.3962 H       1  UNL1        0.0283
     35 H          -3.3766    7.1609   -1.1011 H       1  UNL1        0.0283
     36 H          -4.7875    6.5221   -2.1046 H       1  UNL1        0.0283
     37 H          -5.7892    4.3106    0.1441 H       1  UNL1        0.0838
     38 H          -3.5461    0.2796    0.7365 H       1  UNL1        0.0661
     39 H          -4.0056   -1.4602    1.4761 H       1  UNL1        0.0756
     40 H          -2.2827   -1.9516    3.3792 H       1  UNL1        0.0266
     41 H          -2.6278   -3.6614    3.0164 H       1  UNL1        0.0266
     42 H          -3.9914   -2.5267    3.4933 H       1  UNL1        0.0266
     43 H          -3.1230   -4.3320    0.9135 H       1  UNL1        0.0627
     44 H          -3.2411   -2.4134   -0.9965 H       1  UNL1        0.0256
     45 H          -3.7672   -4.1022   -1.2802 H       1  UNL1        0.0256
     46 H          -4.9937   -2.8558   -0.9061 H       1  UNL1        0.0256
     47 H          -5.7807   -3.3656    0.7823 H       1  UNL1        0.2099
     48 H           0.2742   -1.4298    0.0155 H       1  UNL1        0.0662
     49 H           2.1288   -1.2479   -0.6738 H       1  UNL1        0.1496
     50 H           3.7328    0.9875   -1.9676 H       1  UNL1        0.0546
     51 H           4.5176   -0.4481   -3.5956 H       1  UNL1        0.0251
     52 H           4.4161   -1.8548   -2.5124 H       1  UNL1        0.0251
     53 H           2.8863   -1.2395   -3.2524 H       1  UNL1        0.0251
     54 H           3.9604   -2.1558    0.0437 H       1  UNL1        0.0834
     55 H           5.8389    1.4772   -1.0226 H       1  UNL1        0.0834
     56 H          -0.4637    2.5685   -1.0759 H       1  UNL1        0.0632
@<TRIPOS>BOND
     1     1     2    1
     2     2     3   ar
     3     3     4   ar
     4     4     5   ar
     5     5     6    1
     6     6     7   ar
     7     7     8   ar
     8     8     9    1
     9     9    10    1
    10    10    11    1
    11    10    12    1
    12    12    13    1
    13    12    14    1
    14     8    15   ar
    15    15    16   ar
    16    16    17    1
    17    17    18    2
    18    17    19   am
    19    19    20    1
    20    20    21    1
    21    20    22    1
    22    22    23   ar
    23    23    24   ar
    24    24    25   ar
    25    25    26    1
    26    26    27    1
    27    26    28    1
    28    26    29    1
    29    25    30   ar
    30    30    31   ar
    31    16    32   ar
    32     5    33   ar
    33    33     2   ar
    34    32     6   ar
    35    31    22   ar
    36     1    34    1
    37     1    35    1
    38     1    36    1
    39     3    37    1
    40     7    38    1
    41    10    39    1
    42    11    40    1
    43    11    41    1
    44    11    42    1
    45    12    43    1
    46    13    44    1
    47    13    45    1
    48    13    46    1
    49    14    47    1
    50    15    48    1
    51    19    49    1
    52    20    50    1
    53    21    51    1
    54    21    52    1
    55    21    53    1
    56    23    54    1
    57    31    55    1
    58    32    56    1
