
     RDKit          3D

 56 58  0  0  0  0  0  0  0  0999 V2000
   -4.2581    6.5225   -1.1168 C   0  0  0  0  0  0  0  0  0  0  0  0
   -4.0154    5.1303   -0.7319 C   0  0  0  0  0  0  0  0  0  0  0  0
   -4.7380    4.1533   -0.1593 C   0  0  0  0  0  0  0  0  0  0  0  0
   -4.1363    3.0002    0.0237 N   0  0  0  0  0  0  0  0  0  0  0  0
   -3.0721    2.6905   -0.2330 C   0  0  0  0  0  0  0  0  0  0  0  0
   -2.0847    1.5476   -0.1841 C   0  0  0  0  0  0  0  0  0  0  0  0
   -2.5354    0.3639    0.3658 C   0  0  0  0  0  0  0  0  0  0  0  0
   -1.6918   -0.7167    0.4425 C   0  0  0  0  0  0  0  0  0  0  0  0
   -2.0074   -1.9298    0.9564 O   0  0  0  0  0  0  0  0  0  0  0  0
   -3.2488   -2.2596    1.4877 C   0  0  0  0  0  0  0  0  0  0  0  0
   -3.0354   -2.6303    2.9649 C   0  0  0  0  0  0  0  0  0  0  0  0
   -3.8228   -3.4836    0.7857 C   0  0  0  0  0  0  0  0  0  0  0  0
   -3.9453   -3.2023   -0.6911 C   0  0  0  0  0  0  0  0  0  0  0  0
   -5.0563   -3.7867    1.3354 O   0  0  0  0  0  0  0  0  0  0  0  0
   -0.3741   -0.5683   -0.0538 C   0  0  0  0  0  0  0  0  0  0  0  0
    0.0858    0.5988   -0.6013 C   0  0  0  0  0  0  0  0  0  0  0  0
    1.4303    0.7110   -1.0945 C   0  0  0  0  0  0  0  0  0  0  0  0
    1.7485    1.8560   -1.5865 O   0  0  0  0  0  0  0  0  0  0  0  0
    2.3922   -0.3234   -1.0733 N   0  0  0  0  0  0  0  0  0  0  0  0
    3.7054   -0.0542   -1.6087 C   0  0  2  0  0  0  0  0  0  0  0  0
    3.8717   -0.9339   -2.8315 C   0  0  0  0  0  0  0  0  0  0  0  0
    4.7753   -0.3074   -0.6074 C   0  0  0  0  0  0  0  0  0  0  0  0
    4.7718   -1.4423    0.1759 C   0  0  0  0  0  0  0  0  0  0  0  0
    5.7484   -1.6555    1.0774 N   0  0  0  0  0  0  0  0  0  0  0  0
    6.7651   -0.7958    1.2668 C   0  0  0  0  0  0  0  0  0  0  0  0
    7.8372   -1.0610    2.2780 C   0  0  0  0  0  0  0  0  0  0  0  0
    7.2988   -1.5954    3.4314 F   0  0  0  0  0  0  0  0  0  0  0  0
    8.4953    0.0943    2.6050 F   0  0  0  0  0  0  0  0  0  0  0  0
    8.7632   -1.9633    1.8051 F   0  0  0  0  0  0  0  0  0  0  0  0
    6.7731    0.3129    0.5050 N   0  0  0  0  0  0  0  0  0  0  0  0
    5.8199    0.5721   -0.4102 C   0  0  0  0  0  0  0  0  0  0  0  0
   -0.8192    1.6507   -0.6475 C   0  0  0  0  0  0  0  0  0  0  0  0
   -2.4222    4.2953   -0.9916 S   0  0  0  0  0  0  0  0  0  0  0  0
   -4.9978    6.9482   -0.3962 H   0  0  0  0  0  0  0  0  0  0  0  0
   -3.3766    7.1609   -1.1011 H   0  0  0  0  0  0  0  0  0  0  0  0
   -4.7875    6.5221   -2.1046 H   0  0  0  0  0  0  0  0  0  0  0  0
   -5.7892    4.3106    0.1441 H   0  0  0  0  0  0  0  0  0  0  0  0
   -3.5461    0.2796    0.7365 H   0  0  0  0  0  0  0  0  0  0  0  0
   -4.0056   -1.4602    1.4761 H   0  0  0  0  0  0  0  0  0  0  0  0
   -2.2827   -1.9516    3.3792 H   0  0  0  0  0  0  0  0  0  0  0  0
   -2.6278   -3.6614    3.0164 H   0  0  0  0  0  0  0  0  0  0  0  0
   -3.9914   -2.5267    3.4933 H   0  0  0  0  0  0  0  0  0  0  0  0
   -3.1230   -4.3320    0.9135 H   0  0  0  0  0  0  0  0  0  0  0  0
   -3.2411   -2.4134   -0.9965 H   0  0  0  0  0  0  0  0  0  0  0  0
   -3.7672   -4.1022   -1.2802 H   0  0  0  0  0  0  0  0  0  0  0  0
   -4.9937   -2.8558   -0.9061 H   0  0  0  0  0  0  0  0  0  0  0  0
   -5.7807   -3.3656    0.7823 H   0  0  0  0  0  0  0  0  0  0  0  0
    0.2742   -1.4298    0.0155 H   0  0  0  0  0  0  0  0  0  0  0  0
    2.1288   -1.2479   -0.6738 H   0  0  0  0  0  0  0  0  0  0  0  0
    3.7328    0.9875   -1.9676 H   0  0  0  0  0  0  0  0  0  0  0  0
    4.5176   -0.4481   -3.5956 H   0  0  0  0  0  0  0  0  0  0  0  0
    4.4161   -1.8548   -2.5124 H   0  0  0  0  0  0  0  0  0  0  0  0
    2.8863   -1.2395   -3.2524 H   0  0  0  0  0  0  0  0  0  0  0  0
    3.9604   -2.1558    0.0437 H   0  0  0  0  0  0  0  0  0  0  0  0
    5.8389    1.4772   -1.0226 H   0  0  0  0  0  0  0  0  0  0  0  0
   -0.4637    2.5685   -1.0759 H   0  0  0  0  0  0  0  0  0  0  0  0
  1  2  1  0
  2  3  2  0
  3  4  1  0
  4  5  2  0
  5  6  1  0
  6  7  2  0
  7  8  1  0
  8  9  1  0
  9 10  1  0
 10 11  1  0
 10 12  1  0
 12 13  1  0
 12 14  1  0
  8 15  2  0
 15 16  1  0
 16 17  1  0
 17 18  2  0
 17 19  1  0
 19 20  1  0
 20 21  1  0
 20 22  1  0
 22 23  2  0
 23 24  1  0
 24 25  2  0
 25 26  1  0
 26 27  1  0
 26 28  1  0
 26 29  1  0
 25 30  1  0
 30 31  2  0
 16 32  2  0
  5 33  1  0
 33  2  1  0
 32  6  1  0
 31 22  1  0
  1 34  1  0
  1 35  1  0
  1 36  1  0
  3 37  1  0
  7 38  1  0
 10 39  1  0
 11 40  1  0
 11 41  1  0
 11 42  1  0
 12 43  1  0
 13 44  1  0
 13 45  1  0
 13 46  1  0
 14 47  1  0
 15 48  1  0
 19 49  1  0
 20 50  1  6
 21 51  1  0
 21 52  1  0
 21 53  1  0
 23 54  1  0
 31 55  1  0
 32 56  1  0
M  END
$$$$
