
     RDKit          3D

 61 65  0  0  0  0  0  0  0  0999 V2000
    3.3977   -0.2493    1.4986 C   0  0  2  0  0  0  0  0  0  0  0  0
    3.7892   -1.4549    2.2978 C   0  0  0  0  0  0  0  0  0  0  0  0
    2.6145   -1.7900    3.1893 C   0  0  0  0  0  0  0  0  0  0  0  0
    1.4178   -1.4703    2.3189 C   0  0  0  0  0  0  0  0  0  0  0  0
    1.9318   -0.3743    1.5153 N   0  0  0  0  0  0  0  0  0  0  0  0
    1.1815    0.5889    0.7450 C   0  0  0  0  0  0  0  0  0  0  0  0
    1.6516    1.5482    0.0427 O   0  0  0  0  0  0  0  0  0  0  0  0
   -0.3077    0.4542    0.7681 C   0  0  0  0  0  0  0  0  0  0  0  0
   -0.9821    1.5312   -0.0840 C   0  0  0  0  0  0  0  0  0  0  0  0
   -2.4252    1.4126   -0.0705 N   0  0  0  0  0  0  0  0  0  0  0  0
   -3.0471    0.6547   -1.0200 C   0  0  0  0  0  0  0  0  0  0  0  0
   -2.3363    0.0720   -1.8948 O   0  0  0  0  0  0  0  0  0  0  0  0
   -4.4121    0.4866   -1.0810 C   0  0  0  0  0  0  0  0  0  0  0  0
   -5.1997    1.0737   -0.1908 N   0  0  0  0  0  0  0  0  0  0  0  0
   -4.6358    1.8278    0.7609 C   0  0  0  0  0  0  0  0  0  0  0  0
   -5.4374    2.4474    1.7011 C   0  0  0  0  0  0  0  0  0  0  0  0
   -4.8764    3.2327    2.6999 C   0  0  0  0  0  0  0  0  0  0  0  0
   -3.4953    3.3833    2.7359 C   0  0  0  0  0  0  0  0  0  0  0  0
   -2.7156    2.7591    1.7921 C   0  0  0  0  0  0  0  0  0  0  0  0
   -3.2734    1.9805    0.8015 C   0  0  0  0  0  0  0  0  0  0  0  0
   -5.0602   -0.3248   -2.0997 C   0  0  0  0  0  0  0  0  0  0  0  0
   -6.1850    0.2155   -2.7108 C   0  0  0  0  0  0  0  0  0  0  0  0
   -6.8195   -0.5361   -3.6831 C   0  0  0  0  0  0  0  0  0  0  0  0
   -6.3880   -1.8025   -4.0779 C   0  0  0  0  0  0  0  0  0  0  0  0
   -5.2695   -2.3214   -3.4593 C   0  0  0  0  0  0  0  0  0  0  0  0
   -4.6208   -1.5735   -2.4774 C   0  0  0  0  0  0  0  0  0  0  0  0
    3.7688   -0.3857    0.0549 C   0  0  0  0  0  0  0  0  0  0  0  0
    3.2150   -0.5664   -1.0634 O   0  0  0  0  0  0  0  0  0  0  0  0
    5.1512   -0.2981   -0.2491 N   0  0  0  0  0  0  0  0  0  0  0  0
    5.6683   -0.4111   -1.6019 C   0  0  0  0  0  0  0  0  0  0  0  0
    6.5850   -1.6271   -1.4598 C   0  0  0  0  0  0  0  0  0  0  0  0
    7.2751   -1.2696   -0.1396 C   0  0  0  0  0  0  0  0  0  0  0  0
    6.4443   -0.1047    0.4120 C   0  0  0  0  0  0  0  0  0  0  0  0
    3.7343    0.7133    1.9056 H   0  0  0  0  0  0  0  0  0  0  0  0
    4.0194   -2.3397    1.6927 H   0  0  0  0  0  0  0  0  0  0  0  0
    4.7170   -1.2734    2.9111 H   0  0  0  0  0  0  0  0  0  0  0  0
    2.6510   -1.1251    4.0831 H   0  0  0  0  0  0  0  0  0  0  0  0
    2.6190   -2.8653    3.4870 H   0  0  0  0  0  0  0  0  0  0  0  0
    0.5375   -1.1665    2.9179 H   0  0  0  0  0  0  0  0  0  0  0  0
    1.2182   -2.3443    1.6764 H   0  0  0  0  0  0  0  0  0  0  0  0
   -0.5851   -0.5509    0.3926 H   0  0  0  0  0  0  0  0  0  0  0  0
   -0.6693    0.5421    1.8018 H   0  0  0  0  0  0  0  0  0  0  0  0
   -0.6787    2.5490    0.1912 H   0  0  0  0  0  0  0  0  0  0  0  0
   -0.6363    1.2778   -1.1361 H   0  0  0  0  0  0  0  0  0  0  0  0
   -6.4987    2.3028    1.6343 H   0  0  0  0  0  0  0  0  0  0  0  0
   -5.5811    3.6763    3.3891 H   0  0  0  0  0  0  0  0  0  0  0  0
   -3.0868    4.0032    3.5286 H   0  0  0  0  0  0  0  0  0  0  0  0
   -1.6618    2.9188    1.8853 H   0  0  0  0  0  0  0  0  0  0  0  0
   -6.6099    1.1863   -2.4861 H   0  0  0  0  0  0  0  0  0  0  0  0
   -7.6832   -0.1515   -4.1705 H   0  0  0  0  0  0  0  0  0  0  0  0
   -6.9526   -2.3314   -4.8602 H   0  0  0  0  0  0  0  0  0  0  0  0
   -4.9205   -3.3082   -3.7564 H   0  0  0  0  0  0  0  0  0  0  0  0
   -3.7306   -1.9925   -1.9885 H   0  0  0  0  0  0  0  0  0  0  0  0
    4.8768   -0.6086   -2.3541 H   0  0  0  0  0  0  0  0  0  0  0  0
    6.3252    0.4327   -1.8919 H   0  0  0  0  0  0  0  0  0  0  0  0
    5.9465   -2.5337   -1.3632 H   0  0  0  0  0  0  0  0  0  0  0  0
    7.3235   -1.7002   -2.2558 H   0  0  0  0  0  0  0  0  0  0  0  0
    8.3184   -0.9942   -0.3169 H   0  0  0  0  0  0  0  0  0  0  0  0
    7.1248   -2.1059    0.5720 H   0  0  0  0  0  0  0  0  0  0  0  0
    6.9110    0.8212    0.0074 H   0  0  0  0  0  0  0  0  0  0  0  0
    6.3674   -0.1406    1.4977 H   0  0  0  0  0  0  0  0  0  0  0  0
  1  2  1  0
  2  3  1  0
  3  4  1  0
  4  5  1  0
  5  6  1  0
  6  7  2  0
  6  8  1  0
  8  9  1  0
  9 10  1  0
 10 11  1  0
 11 12  2  0
 11 13  1  0
 13 14  2  0
 14 15  1  0
 15 16  2  0
 16 17  1  0
 17 18  2  0
 18 19  1  0
 19 20  2  0
 13 21  1  0
 21 22  2  0
 22 23  1  0
 23 24  2  0
 24 25  1  0
 25 26  2  0
  1 27  1  0
 27 28  2  0
 27 29  1  0
 29 30  1  0
 30 31  1  0
 31 32  1  0
 32 33  1  0
  5  1  1  0
 20 10  1  0
 26 21  1  0
 33 29  1  0
 20 15  1  0
  1 34  1  1
  2 35  1  0
  2 36  1  0
  3 37  1  0
  3 38  1  0
  4 39  1  0
  4 40  1  0
  8 41  1  0
  8 42  1  0
  9 43  1  0
  9 44  1  0
 16 45  1  0
 17 46  1  0
 18 47  1  0
 19 48  1  0
 22 49  1  0
 23 50  1  0
 24 51  1  0
 25 52  1  0
 26 53  1  0
 30 54  1  0
 30 55  1  0
 31 56  1  0
 31 57  1  0
 32 58  1  0
 32 59  1  0
 33 60  1  0
 33 61  1  0
M  END
$$$$
