@<TRIPOS>MOLECULE
*****
 24 23 0 0 0
SMALL
GASTEIGER

@<TRIPOS>ATOM
      1 NZ          3.4413   -0.3814   -0.8327 N.3     1  LYS1       -0.3300
      2 CE          2.6691   -0.9659    0.2322 C.3     1  LYS1       -0.0069
      3 CD          1.4061   -0.1592    0.5522 C.3     1  LYS1       -0.0406
      4 CG          0.5812   -0.1271   -0.6980 C.3     1  LYS1       -0.0500
      5 CB         -0.6954    0.6175   -0.5832 C.3     1  LYS1       -0.0273
      6 CA         -1.6446    0.0919    0.4482 C.3     1  LYS1        0.1032
      7 N          -2.0192   -1.2830    0.1689 N.3     1  LYS1       -0.3184
      8 C          -2.8938    0.8991    0.4083 C.2     1  LYS1        0.3217
      9 O          -2.6926    2.2686    0.6627 O.3     1  LYS1       -0.4795
     10 OXT        -4.0828    0.5097    0.1789 O.2     1  LYS1       -0.2493
     11 HZ1         3.6113    0.6343   -0.6768 H       1  LYS1        0.1182
     12 HZ2         3.0238   -0.5142   -1.7682 H       1  LYS1        0.1182
     13 HE1         2.3994   -2.0016   -0.0613 H       1  LYS1        0.0422
     14 HE2         3.3255   -1.0795    1.1252 H       1  LYS1        0.0422
     15 HD1         0.8468   -0.7773    1.2977 H       1  LYS1        0.0277
     16 HD2         1.6876    0.8198    0.9346 H       1  LYS1        0.0277
     17 HG1         1.2060    0.4268   -1.4523 H       1  LYS1        0.0266
     18 HG2         0.4777   -1.1386   -1.1054 H       1  LYS1        0.0266
     19 HB1        -1.2119    0.5299   -1.5691 H       1  LYS1        0.0286
     20 HB2        -0.5195    1.6913   -0.4276 H       1  LYS1        0.0286
     21 HA         -1.2597    0.1443    1.4796 H       1  LYS1        0.0574
     22 H1         -2.8511   -1.2651   -0.4690 H       1  LYS1        0.1190
     23 H2         -1.2931   -1.8135   -0.3515 H       1  LYS1        0.1190
     24 H          -3.5121    2.8733    0.6323 H       1  LYS1        0.2951
@<TRIPOS>BOND
     1     1     2    1
     2     2     3    1
     3     3     4    1
     4     4     5    1
     5     5     6    1
     6     6     7    1
     7     6     8    1
     8     8     9    1
     9     8    10    2
    10     1    11    1
    11     1    12    1
    12     2    13    1
    13     2    14    1
    14     3    15    1
    15     3    16    1
    16     4    17    1
    17     4    18    1
    18     5    19    1
    19     5    20    1
    20     6    21    1
    21     7    22    1
    22     7    23    1
    23     9    24    1
