
     RDKit          3D

 24 23  0  0  0  0  0  0  0  0999 V2000
    3.4413   -0.3814   -0.8327 N   0  0  0  0  0  0  0  0  0  0  0  0
    2.6691   -0.9659    0.2322 C   0  0  0  0  0  0  0  0  0  0  0  0
    1.4061   -0.1592    0.5522 C   0  0  0  0  0  0  0  0  0  0  0  0
    0.5812   -0.1271   -0.6980 C   0  0  0  0  0  0  0  0  0  0  0  0
   -0.6954    0.6175   -0.5832 C   0  0  0  0  0  0  0  0  0  0  0  0
   -1.6446    0.0919    0.4482 C   0  0  2  0  0  0  0  0  0  0  0  0
   -2.0192   -1.2830    0.1689 N   0  0  0  0  0  0  0  0  0  0  0  0
   -2.8938    0.8991    0.4083 C   0  0  0  0  0  0  0  0  0  0  0  0
   -2.6926    2.2686    0.6627 O   0  0  0  0  0  0  0  0  0  0  0  0
   -4.0828    0.5097    0.1789 O   0  0  0  0  0  0  0  0  0  0  0  0
    3.6113    0.6343   -0.6768 H   0  0  0  0  0  0  0  0  0  0  0  0
    3.0238   -0.5142   -1.7682 H   0  0  0  0  0  0  0  0  0  0  0  0
    2.3994   -2.0016   -0.0613 H   0  0  0  0  0  0  0  0  0  0  0  0
    3.3255   -1.0795    1.1252 H   0  0  0  0  0  0  0  0  0  0  0  0
    0.8468   -0.7773    1.2977 H   0  0  0  0  0  0  0  0  0  0  0  0
    1.6876    0.8198    0.9346 H   0  0  0  0  0  0  0  0  0  0  0  0
    1.2060    0.4268   -1.4523 H   0  0  0  0  0  0  0  0  0  0  0  0
    0.4777   -1.1386   -1.1054 H   0  0  0  0  0  0  0  0  0  0  0  0
   -1.2119    0.5299   -1.5691 H   0  0  0  0  0  0  0  0  0  0  0  0
   -0.5195    1.6913   -0.4276 H   0  0  0  0  0  0  0  0  0  0  0  0
   -1.2597    0.1443    1.4796 H   0  0  0  0  0  0  0  0  0  0  0  0
   -2.8511   -1.2651   -0.4690 H   0  0  0  0  0  0  0  0  0  0  0  0
   -1.2931   -1.8135   -0.3515 H   0  0  0  0  0  0  0  0  0  0  0  0
   -3.5121    2.8733    0.6323 H   0  0  0  0  0  0  0  0  0  0  0  0
  1  2  1  0
  2  3  1  0
  3  4  1  0
  4  5  1  0
  5  6  1  0
  6  7  1  0
  6  8  1  0
  8  9  1  0
  8 10  2  0
  1 11  1  0
  1 12  1  0
  2 13  1  0
  2 14  1  0
  3 15  1  0
  3 16  1  0
  4 17  1  0
  4 18  1  0
  5 19  1  0
  5 20  1  0
  6 21  1  1
  7 22  1  0
  7 23  1  0
  9 24  1  0
M  END
$$$$
