
     RDKit          3D

 54 57  0  0  0  0  0  0  0  0999 V2000
   -1.9621    3.4687   -2.2273 C   0  0  0  0  0  0  0  0  0  0  0  0
   -2.0138    3.7176   -0.7546 C   0  0  0  0  0  0  0  0  0  0  0  0
   -1.5624    2.5130    0.0249 C   0  0  0  0  0  0  0  0  0  0  0  0
   -2.2128    1.3241    0.2938 C   0  0  0  0  0  0  0  0  0  0  0  0
   -3.5504    1.0189   -0.1527 C   0  0  0  0  0  0  0  0  0  0  0  0
   -4.2196    2.0738   -0.4441 O   0  0  0  0  0  0  0  0  0  0  0  0
   -4.3389   -0.1718   -0.3611 C   0  0  0  0  0  0  0  0  0  0  0  0
   -3.8284   -1.4313   -0.6648 C   0  0  0  0  0  0  0  0  0  0  0  0
   -4.5409   -2.5898   -0.8496 C   0  0  0  0  0  0  0  0  0  0  0  0
   -3.6059   -4.2139   -1.2639 Br  0  0  0  0  0  0  0  0  0  0  0  0
   -5.8964   -2.5049   -0.7233 C   0  0  0  0  0  0  0  0  0  0  0  0
   -6.6532   -3.6477   -0.9000 O   0  0  0  0  0  0  0  0  0  0  0  0
   -6.4812   -1.2827   -0.4216 C   0  0  0  0  0  0  0  0  0  0  0  0
   -8.3798   -1.1883   -0.2502 Br  0  0  0  0  0  0  0  0  0  0  0  0
   -5.7118   -0.1572   -0.2485 C   0  0  0  0  0  0  0  0  0  0  0  0
   -1.3015    0.6230    1.0477 C   0  0  0  0  0  0  0  0  0  0  0  0
   -0.1524    1.3593    1.2217 C   0  0  0  0  0  0  0  0  0  0  0  0
   -0.3834    2.4552    0.5916 O   0  0  0  0  0  0  0  0  0  0  0  0
    0.9250    0.8869    1.9433 C   0  0  0  0  0  0  0  0  0  0  0  0
    0.8690   -0.3638    2.5218 C   0  0  0  0  0  0  0  0  0  0  0  0
   -0.2872   -1.1132    2.3549 C   0  0  0  0  0  0  0  0  0  0  0  0
   -1.3361   -0.6129    1.6315 C   0  0  0  0  0  0  0  0  0  0  0  0
    2.1505   -1.1026    3.4584 S   0  0  0  0  0  0  0  0  0  0  0  0
    3.0461   -0.0117    4.0213 O   0  0  0  0  0  0  0  0  0  0  0  0
    1.5954   -1.9736    4.5402 O   0  0  0  0  0  0  0  0  0  0  0  0
    3.1025   -2.0496    2.3583 N   0  0  0  0  0  0  0  0  0  0  0  0
    3.8412   -1.6159    1.2301 C   0  0  0  0  0  0  0  0  0  0  0  0
    4.6675   -0.5033    1.3050 C   0  0  0  0  0  0  0  0  0  0  0  0
    5.3816   -0.1144    0.1701 C   0  0  0  0  0  0  0  0  0  0  0  0
    5.2475   -0.8521   -1.0100 C   0  0  0  0  0  0  0  0  0  0  0  0
    4.4274   -1.9447   -1.0611 C   0  0  0  0  0  0  0  0  0  0  0  0
    3.7188   -2.3426    0.0400 C   0  0  0  0  0  0  0  0  0  0  0  0
    6.1707   -0.3207   -2.3956 S   0  0  0  0  0  0  0  0  0  0  0  0
    5.2336    0.8348   -3.2619 N   0  0  0  0  0  0  0  0  0  0  0  0
    6.5503   -1.4831   -3.2744 O   0  0  0  0  0  0  0  0  0  0  0  0
    7.4585    0.3128   -1.8803 O   0  0  0  0  0  0  0  0  0  0  0  0
   -1.2529    2.6659   -2.5059 H   0  0  0  0  0  0  0  0  0  0  0  0
   -1.6216    4.3756   -2.7620 H   0  0  0  0  0  0  0  0  0  0  0  0
   -2.9629    3.2106   -2.6153 H   0  0  0  0  0  0  0  0  0  0  0  0
   -2.9972    4.0232   -0.3726 H   0  0  0  0  0  0  0  0  0  0  0  0
   -1.3240    4.5523   -0.5409 H   0  0  0  0  0  0  0  0  0  0  0  0
   -2.7499   -1.4944   -0.7666 H   0  0  0  0  0  0  0  0  0  0  0  0
   -7.5177   -3.8177   -0.4143 H   0  0  0  0  0  0  0  0  0  0  0  0
   -6.2022    0.7854   -0.0124 H   0  0  0  0  0  0  0  0  0  0  0  0
    1.8325    1.4533    2.0852 H   0  0  0  0  0  0  0  0  0  0  0  0
   -0.3727   -2.1130    2.8010 H   0  0  0  0  0  0  0  0  0  0  0  0
   -2.2128   -1.2201    1.5455 H   0  0  0  0  0  0  0  0  0  0  0  0
    3.1638   -3.0829    2.5184 H   0  0  0  0  0  0  0  0  0  0  0  0
    4.7789    0.0736    2.2071 H   0  0  0  0  0  0  0  0  0  0  0  0
    6.0400    0.7647    0.2155 H   0  0  0  0  0  0  0  0  0  0  0  0
    4.3591   -2.4895   -2.0137 H   0  0  0  0  0  0  0  0  0  0  0  0
    3.0788   -3.2130   -0.0379 H   0  0  0  0  0  0  0  0  0  0  0  0
    4.2983    0.9299   -2.8131 H   0  0  0  0  0  0  0  0  0  0  0  0
    5.6954    1.7729   -3.1275 H   0  0  0  0  0  0  0  0  0  0  0  0
  1  2  1  0
  2  3  1  0
  3  4  2  0
  4  5  1  0
  5  6  2  0
  5  7  1  0
  7  8  2  0
  8  9  1  0
  9 10  1  0
  9 11  2  0
 11 12  1  0
 11 13  1  0
 13 14  1  0
 13 15  2  0
  4 16  1  0
 16 17  2  0
 17 18  1  0
 17 19  1  0
 19 20  2  0
 20 21  1  0
 21 22  2  0
 20 23  1  0
 23 24  2  0
 23 25  2  0
 23 26  1  0
 26 27  1  0
 27 28  2  0
 28 29  1  0
 29 30  2  0
 30 31  1  0
 31 32  2  0
 30 33  1  0
 33 34  1  0
 33 35  2  0
 33 36  2  0
 18  3  1  0
 32 27  1  0
 15  7  1  0
 22 16  1  0
  1 37  1  0
  1 38  1  0
  1 39  1  0
  2 40  1  0
  2 41  1  0
  8 42  1  0
 12 43  1  0
 15 44  1  0
 19 45  1  0
 21 46  1  0
 22 47  1  0
 26 48  1  0
 28 49  1  0
 29 50  1  0
 31 51  1  0
 32 52  1  0
 34 53  1  0
 34 54  1  0
M  END
$$$$
