@<TRIPOS>MOLECULE
*****
 37 41 0 0 0
SMALL
GASTEIGER

@<TRIPOS>ATOM
      1 C           0.6877    2.3837   -0.5982 C.3     1  UNL1       -0.0203
      2 C           1.1355    1.0315   -0.1468 C.ar    1  UNL1        0.0644
      3 N           2.4552    0.8376   -0.0055 N.ar    1  UNL1       -0.2306
      4 C           3.0018   -0.3259    0.3927 C.ar    1  UNL1        0.1604
      5 C           2.1144   -1.3530    0.6606 C.ar    1  UNL1        0.1099
      6 C           0.7477   -1.2199    0.5354 C.ar    1  UNL1       -0.0070
      7 C           0.2564    0.0021    0.1223 C.ar    1  UNL1        0.0704
      8 N          -1.1372    0.2122   -0.0287 N.ar    1  UNL1       -0.3042
      9 C          -1.9132   -0.5678   -0.8056 C.ar    1  UNL1        0.0567
     10 C          -1.6511   -1.6787   -1.6048 C.ar    1  UNL1       -0.0345
     11 C          -2.6679   -2.2822   -2.2995 C.ar    1  UNL1       -0.0245
     12 C          -3.9362   -1.7541   -2.1766 C.ar    1  UNL1        0.1242
     13 F          -4.9604   -2.3294   -2.8512 F       1  UNL1       -0.2055
     14 C          -4.2183   -0.6575   -1.3930 C.ar    1  UNL1       -0.0152
     15 C          -3.1866   -0.0441   -0.6873 C.ar    1  UNL1        0.0284
     16 C          -3.1652    1.0456    0.1593 C.ar    1  UNL1        0.0916
     17 N          -3.8825    2.0202    0.7508 N.ar    1  UNL1       -0.2748
     18 N          -3.0963    2.7686    1.5056 N.ar    1  UNL1       -0.1796
     19 C          -1.8255    2.2862    1.4187 C.ar    1  UNL1        0.0736
     20 C          -1.8537    1.1819    0.5593 C.ar    1  UNL1        0.0925
     21 N           2.9019   -2.3940    1.0350 N.ar    1  UNL1       -0.2340
     22 C           4.1928   -2.0198    0.9965 C.ar    1  UNL1        0.0979
     23 N           4.2658   -0.7372    0.5988 N.ar    1  UNL1       -0.3181
     24 C           5.4738    0.0442    0.4275 C.3     1  UNL1        0.0146
     25 H           0.7455    3.1077    0.2571 H       1  UNL1        0.0293
     26 H           1.4043    2.7999   -1.3529 H       1  UNL1        0.0293
     27 H          -0.2899    2.3705   -1.0789 H       1  UNL1        0.0293
     28 H           0.0752   -2.0642    0.7591 H       1  UNL1        0.0661
     29 H          -0.6448   -2.0526   -1.6674 H       1  UNL1        0.0639
     30 H          -2.4916   -3.1599   -2.9378 H       1  UNL1        0.0647
     31 H          -5.1980   -0.2319   -1.2845 H       1  UNL1        0.0653
     32 H          -4.9233    2.1105    0.5866 H       1  UNL1        0.1890
     33 H          -0.9386    2.6639    1.9097 H       1  UNL1        0.0869
     34 H           5.0290   -2.6586    1.2478 H       1  UNL1        0.1029
     35 H           6.3521   -0.6589    0.4037 H       1  UNL1        0.0457
     36 H           5.5028    0.5387   -0.5883 H       1  UNL1        0.0457
     37 H           5.6384    0.7849    1.2095 H       1  UNL1        0.0457
@<TRIPOS>BOND
     1     1     2    1
     2     2     3   ar
     3     3     4   ar
     4     4     5   ar
     5     5     6   ar
     6     6     7   ar
     7     7     8    1
     8     8     9   ar
     9     9    10   ar
    10    10    11   ar
    11    11    12   ar
    12    12    13    1
    13    12    14   ar
    14    14    15   ar
    15    15    16   ar
    16    16    17   ar
    17    17    18   ar
    18    18    19   ar
    19    19    20   ar
    20     5    21   ar
    21    21    22   ar
    22    22    23   ar
    23    23    24    1
    24     7     2   ar
    25    20     8   ar
    26    23     4   ar
    27    15     9   ar
    28    20    16   ar
    29     1    25    1
    30     1    26    1
    31     1    27    1
    32     6    28    1
    33    10    29    1
    34    11    30    1
    35    14    31    1
    36    17    32    1
    37    19    33    1
    38    22    34    1
    39    24    35    1
    40    24    36    1
    41    24    37    1
