
     RDKit          3D

 52 56  0  0  0  0  0  0  0  0999 V2000
    2.5160    2.5074    1.2949 N   0  0  0  0  0  0  0  0  0  0  0  0
    3.0125    1.3387    0.5243 C   0  0  2  0  0  0  0  0  0  0  0  0
    2.1705    1.2899   -0.7204 C   0  0  0  0  0  0  0  0  0  0  0  0
    0.8531    1.0922   -0.6457 O   0  0  0  0  0  0  0  0  0  0  0  0
   -0.2085    1.6859   -0.1636 C   0  0  0  0  0  0  0  0  0  0  0  0
   -0.6540    2.7980    0.5046 C   0  0  0  0  0  0  0  0  0  0  0  0
   -1.9013    3.1160    0.8717 N   0  0  0  0  0  0  0  0  0  0  0  0
   -2.9070    2.2651    0.5712 C   0  0  0  0  0  0  0  0  0  0  0  0
   -2.6139    1.0978   -0.1041 C   0  0  0  0  0  0  0  0  0  0  0  0
   -1.2907    0.8238   -0.4588 C   0  0  0  0  0  0  0  0  0  0  0  0
   -3.7953    0.2832   -0.3577 C   0  0  0  0  0  0  0  0  0  0  0  0
   -4.8475    0.2883    0.5333 C   0  0  0  0  0  0  0  0  0  0  0  0
   -5.9714   -0.5003    0.2708 C   0  0  0  0  0  0  0  0  0  0  0  0
   -5.9365   -1.2395   -0.8890 C   0  0  0  0  0  0  0  0  0  0  0  0
   -4.9236   -1.2938   -1.8222 C   0  0  0  0  0  0  0  0  0  0  0  0
   -3.8232   -0.4864   -1.5110 C   0  0  0  0  0  0  0  0  0  0  0  0
   -7.0381   -2.0457   -1.1962 C   0  0  0  0  0  0  0  0  0  0  0  0
   -8.1164   -2.0911   -0.3594 N   0  0  0  0  0  0  0  0  0  0  0  0
   -8.1027   -1.3478    0.7654 C   0  0  0  0  0  0  0  0  0  0  0  0
   -7.0473   -0.5275    1.1327 C   0  0  0  0  0  0  0  0  0  0  0  0
    2.9159    0.1155    1.3601 C   0  0  0  0  0  0  0  0  0  0  0  0
    3.3689   -1.1816    0.8508 C   0  0  0  0  0  0  0  0  0  0  0  0
    2.6579   -1.6248   -0.3601 C   0  0  0  0  0  0  0  0  0  0  0  0
    3.4540   -1.9284   -1.3591 N   0  0  0  0  0  0  0  0  0  0  0  0
    4.7742   -1.7000   -0.8882 C   0  0  0  0  0  0  0  0  0  0  0  0
    6.0051   -1.8544   -1.5285 C   0  0  0  0  0  0  0  0  0  0  0  0
    7.2261   -1.5861   -0.9492 C   0  0  0  0  0  0  0  0  0  0  0  0
    7.2171   -1.1378    0.3445 C   0  0  0  0  0  0  0  0  0  0  0  0
    6.0164   -0.9706    1.0178 C   0  0  0  0  0  0  0  0  0  0  0  0
    4.7989   -1.2451    0.4204 C   0  0  0  0  0  0  0  0  0  0  0  0
    3.1195    2.6639    2.1336 H   0  0  0  0  0  0  0  0  0  0  0  0
    2.5360    3.3571    0.6928 H   0  0  0  0  0  0  0  0  0  0  0  0
    4.0506    1.5985    0.2360 H   0  0  0  0  0  0  0  0  0  0  0  0
    2.3581    2.3116   -1.2280 H   0  0  0  0  0  0  0  0  0  0  0  0
    2.6204    0.5761   -1.4654 H   0  0  0  0  0  0  0  0  0  0  0  0
    0.1385    3.4854    0.7267 H   0  0  0  0  0  0  0  0  0  0  0  0
   -3.8756    2.5966    0.9015 H   0  0  0  0  0  0  0  0  0  0  0  0
   -1.3184   -0.1355   -0.9718 H   0  0  0  0  0  0  0  0  0  0  0  0
   -4.8555    0.8693    1.4283 H   0  0  0  0  0  0  0  0  0  0  0  0
   -4.9792   -1.9028   -2.7082 H   0  0  0  0  0  0  0  0  0  0  0  0
   -2.9887   -0.4802   -2.2038 H   0  0  0  0  0  0  0  0  0  0  0  0
   -7.1339   -2.6815   -2.0881 H   0  0  0  0  0  0  0  0  0  0  0  0
   -8.9705   -1.3944    1.4225 H   0  0  0  0  0  0  0  0  0  0  0  0
   -7.0186    0.0731    2.0268 H   0  0  0  0  0  0  0  0  0  0  0  0
    1.8607    0.0621    1.7650 H   0  0  0  0  0  0  0  0  0  0  0  0
    3.5364    0.3207    2.2995 H   0  0  0  0  0  0  0  0  0  0  0  0
    3.2266   -1.9895    1.6636 H   0  0  0  0  0  0  0  0  0  0  0  0
    1.5830   -1.7273   -0.5216 H   0  0  0  0  0  0  0  0  0  0  0  0
    5.9888   -2.2088   -2.5478 H   0  0  0  0  0  0  0  0  0  0  0  0
    8.1204   -1.7445   -1.5504 H   0  0  0  0  0  0  0  0  0  0  0  0
    8.1687   -0.9276    0.8044 H   0  0  0  0  0  0  0  0  0  0  0  0
    6.0237   -0.6164    2.0356 H   0  0  0  0  0  0  0  0  0  0  0  0
  1  2  1  0
  2  3  1  0
  3  4  1  0
  4  5  1  0
  5  6  2  0
  6  7  1  0
  7  8  2  0
  8  9  1  0
  9 10  2  0
  9 11  1  0
 11 12  2  0
 12 13  1  0
 13 14  2  0
 14 15  1  0
 15 16  2  0
 14 17  1  0
 17 18  2  0
 18 19  1  0
 19 20  2  0
  2 21  1  0
 21 22  1  0
 22 23  1  0
 23 24  2  0
 24 25  1  0
 25 26  2  0
 26 27  1  0
 27 28  2  0
 28 29  1  0
 29 30  2  0
 10  5  1  0
 16 11  1  0
 30 22  1  0
 20 13  1  0
 30 25  1  0
  1 31  1  0
  1 32  1  0
  2 33  1  6
  3 34  1  0
  3 35  1  0
  6 36  1  0
  8 37  1  0
 10 38  1  0
 12 39  1  0
 15 40  1  0
 16 41  1  0
 17 42  1  0
 19 43  1  0
 20 44  1  0
 21 45  1  0
 21 46  1  0
 22 47  1  0
 23 48  1  0
 26 49  1  0
 27 50  1  0
 28 51  1  0
 29 52  1  0
M  END
$$$$
