
     RDKit          3D

 41 42  0  0  0  0  0  0  0  0999 V2000
   -1.9382   -3.3420   -0.3949 C   0  0  0  0  0  0  0  0  0  0  0  0
   -2.0607   -2.5608    0.8975 C   0  0  0  0  0  0  0  0  0  0  0  0
   -1.5282   -1.1792    0.7451 C   0  0  0  0  0  0  0  0  0  0  0  0
   -0.3047   -0.8090    1.2529 C   0  0  0  0  0  0  0  0  0  0  0  0
    0.2103    0.4849    1.1164 C   0  0  0  0  0  0  0  0  0  0  0  0
    1.5482    0.8110    1.7036 C   0  0  0  0  0  0  0  0  0  0  0  0
    2.6743    0.4394    0.8389 C   0  0  0  0  0  0  0  0  0  0  0  0
    3.3735   -0.7123    1.1590 C   0  0  0  0  0  0  0  0  0  0  0  0
    4.4010   -1.0752    0.3798 N   0  0  0  0  0  0  0  0  0  0  0  0
    4.7991   -0.3843   -0.7039 C   0  0  0  0  0  0  0  0  0  0  0  0
    5.8854   -0.7788   -1.5185 N   0  0  0  0  0  0  0  0  0  0  0  0
    4.1263    0.7283   -1.0158 N   0  0  0  0  0  0  0  0  0  0  0  0
    3.0764    1.1479   -0.2653 C   0  0  0  0  0  0  0  0  0  0  0  0
    2.4186    2.3270   -0.6462 N   0  0  0  0  0  0  0  0  0  0  0  0
   -0.5617    1.3924    0.4454 C   0  0  0  0  0  0  0  0  0  0  0  0
   -1.8195    1.0791   -0.0969 C   0  0  0  0  0  0  0  0  0  0  0  0
   -2.5011    2.1764   -0.7782 C   0  0  0  0  0  0  0  0  0  0  0  0
   -3.8569    1.9105   -1.3094 C   0  0  0  0  0  0  0  0  0  0  0  0
   -2.2577   -0.1980    0.0730 C   0  0  0  0  0  0  0  0  0  0  0  0
   -3.5064   -0.6078   -0.4365 N   0  0  0  0  0  0  0  0  0  0  0  0
   -2.9217   -3.5863   -0.8342 H   0  0  0  0  0  0  0  0  0  0  0  0
   -1.2887   -2.7484   -1.0727 H   0  0  0  0  0  0  0  0  0  0  0  0
   -1.4223   -4.3112   -0.1932 H   0  0  0  0  0  0  0  0  0  0  0  0
   -3.1345   -2.5011    1.1984 H   0  0  0  0  0  0  0  0  0  0  0  0
   -1.5377   -3.0854    1.7055 H   0  0  0  0  0  0  0  0  0  0  0  0
    0.2800   -1.5478    1.7783 H   0  0  0  0  0  0  0  0  0  0  0  0
    1.6136    0.3009    2.6914 H   0  0  0  0  0  0  0  0  0  0  0  0
    1.5231    1.8976    1.9388 H   0  0  0  0  0  0  0  0  0  0  0  0
    3.0747   -1.3023    2.0395 H   0  0  0  0  0  0  0  0  0  0  0  0
    5.7550   -0.9386   -2.5430 H   0  0  0  0  0  0  0  0  0  0  0  0
    6.8310   -0.9160   -1.1086 H   0  0  0  0  0  0  0  0  0  0  0  0
    1.5946    2.3228   -1.3146 H   0  0  0  0  0  0  0  0  0  0  0  0
    2.6942    3.2648   -0.3030 H   0  0  0  0  0  0  0  0  0  0  0  0
   -0.1619    2.3989    0.3456 H   0  0  0  0  0  0  0  0  0  0  0  0
   -2.5525    3.1058   -0.1468 H   0  0  0  0  0  0  0  0  0  0  0  0
   -1.8536    2.4957   -1.6490 H   0  0  0  0  0  0  0  0  0  0  0  0
   -3.8674    1.3843   -2.2883 H   0  0  0  0  0  0  0  0  0  0  0  0
   -4.2965    2.9303   -1.5654 H   0  0  0  0  0  0  0  0  0  0  0  0
   -4.5790    1.5043   -0.5775 H   0  0  0  0  0  0  0  0  0  0  0  0
   -4.3046   -0.7085    0.2164 H   0  0  0  0  0  0  0  0  0  0  0  0
   -3.6239   -0.8092   -1.4361 H   0  0  0  0  0  0  0  0  0  0  0  0
  1  2  1  0
  2  3  1  0
  3  4  2  0
  4  5  1  0
  5  6  1  0
  6  7  1  0
  7  8  2  0
  8  9  1  0
  9 10  2  0
 10 11  1  0
 10 12  1  0
 12 13  2  0
 13 14  1  0
  5 15  2  0
 15 16  1  0
 16 17  1  0
 17 18  1  0
 16 19  2  0
 19 20  1  0
 19  3  1  0
 13  7  1  0
  1 21  1  0
  1 22  1  0
  1 23  1  0
  2 24  1  0
  2 25  1  0
  4 26  1  0
  6 27  1  0
  6 28  1  0
  8 29  1  0
 11 30  1  0
 11 31  1  0
 14 32  1  0
 14 33  1  0
 15 34  1  0
 17 35  1  0
 17 36  1  0
 18 37  1  0
 18 38  1  0
 18 39  1  0
 20 40  1  0
 20 41  1  0
M  END
$$$$
