@<TRIPOS>MOLECULE
*****
 41 42 0 0 0
SMALL
GASTEIGER

@<TRIPOS>ATOM
      1 C          -1.9382   -3.3420   -0.3949 C.3     1  UNL1       -0.0612
      2 C          -2.0607   -2.5608    0.8975 C.3     1  UNL1       -0.0288
      3 C          -1.5282   -1.1792    0.7451 C.ar    1  UNL1       -0.0265
      4 C          -0.3047   -0.8090    1.2529 C.ar    1  UNL1       -0.0533
      5 C           0.2103    0.4849    1.1164 C.ar    1  UNL1       -0.0423
      6 C           1.5482    0.8110    1.7036 C.3     1  UNL1        0.0023
      7 C           2.6743    0.4394    0.8389 C.ar    1  UNL1        0.0146
      8 C           3.3735   -0.7123    1.1590 C.ar    1  UNL1        0.0379
      9 N           4.4010   -1.0752    0.3798 N.ar    1  UNL1       -0.2227
     10 C           4.7991   -0.3843   -0.7039 C.ar    1  UNL1        0.2142
     11 N           5.8854   -0.7788   -1.5185 N.pl3   1  UNL1       -0.3274
     12 N           4.1263    0.7283   -1.0158 N.ar    1  UNL1       -0.1999
     13 C           3.0764    1.1479   -0.2653 C.ar    1  UNL1        0.1247
     14 N           2.4186    2.3270   -0.6462 N.pl3   1  UNL1       -0.3428
     15 C          -0.5617    1.3924    0.4454 C.ar    1  UNL1       -0.0533
     16 C          -1.8195    1.0791   -0.0969 C.ar    1  UNL1       -0.0265
     17 C          -2.5011    2.1764   -0.7782 C.3     1  UNL1       -0.0288
     18 C          -3.8569    1.9105   -1.3094 C.3     1  UNL1       -0.0612
     19 C          -2.2577   -0.1980    0.0730 C.ar    1  UNL1        0.0310
     20 N          -3.5064   -0.6078   -0.4365 N.pl3   1  UNL1       -0.3575
     21 H          -2.9217   -3.5863   -0.8342 H       1  UNL1        0.0233
     22 H          -1.2887   -2.7484   -1.0727 H       1  UNL1        0.0233
     23 H          -1.4223   -4.3112   -0.1932 H       1  UNL1        0.0233
     24 H          -3.1345   -2.5011    1.1984 H       1  UNL1        0.0311
     25 H          -1.5377   -3.0854    1.7055 H       1  UNL1        0.0311
     26 H           0.2800   -1.5478    1.7783 H       1  UNL1        0.0624
     27 H           1.6136    0.3009    2.6914 H       1  UNL1        0.0363
     28 H           1.5231    1.8976    1.9388 H       1  UNL1        0.0363
     29 H           3.0747   -1.3023    2.0395 H       1  UNL1        0.0834
     30 H           5.7550   -0.9386   -2.5430 H       1  UNL1        0.1452
     31 H           6.8310   -0.9160   -1.1086 H       1  UNL1        0.1452
     32 H           1.5946    2.3228   -1.3146 H       1  UNL1        0.1437
     33 H           2.6942    3.2648   -0.3030 H       1  UNL1        0.1437
     34 H          -0.1619    2.3989    0.3456 H       1  UNL1        0.0624
     35 H          -2.5525    3.1058   -0.1468 H       1  UNL1        0.0311
     36 H          -1.8536    2.4957   -1.6490 H       1  UNL1        0.0311
     37 H          -3.8674    1.3843   -2.2883 H       1  UNL1        0.0233
     38 H          -4.2965    2.9303   -1.5654 H       1  UNL1        0.0233
     39 H          -4.5790    1.5043   -0.5775 H       1  UNL1        0.0233
     40 H          -4.3046   -0.7085    0.2164 H       1  UNL1        0.1423
     41 H          -3.6239   -0.8092   -1.4361 H       1  UNL1        0.1423
@<TRIPOS>BOND
     1     1     2    1
     2     2     3    1
     3     3     4   ar
     4     4     5   ar
     5     5     6    1
     6     6     7    1
     7     7     8   ar
     8     8     9   ar
     9     9    10   ar
    10    10    11    1
    11    10    12   ar
    12    12    13   ar
    13    13    14    1
    14     5    15   ar
    15    15    16   ar
    16    16    17    1
    17    17    18    1
    18    16    19   ar
    19    19    20    1
    20    19     3   ar
    21    13     7   ar
    22     1    21    1
    23     1    22    1
    24     1    23    1
    25     2    24    1
    26     2    25    1
    27     4    26    1
    28     6    27    1
    29     6    28    1
    30     8    29    1
    31    11    30    1
    32    11    31    1
    33    14    32    1
    34    14    33    1
    35    15    34    1
    36    17    35    1
    37    17    36    1
    38    18    37    1
    39    18    38    1
    40    18    39    1
    41    20    40    1
    42    20    41    1
