@<TRIPOS>MOLECULE
*****
 75 79 0 0 0
SMALL
GASTEIGER

@<TRIPOS>ATOM
      1 C           8.7327   -3.2381   -1.0778 C.3     1  UNL1        0.0365
      2 O           9.5919   -2.2106   -0.7772 O.3     1  UNL1       -0.3814
      3 C           9.2625   -1.4715    0.3279 C.3     1  UNL1        0.0645
      4 C           7.9150   -0.7942    0.2379 C.3     1  UNL1        0.0552
      5 C           7.8664    0.2433   -0.8418 C.3     1  UNL1       -0.0323
      6 C           7.8856    1.5871   -0.1658 C.3     1  UNL1       -0.0370
      7 C           8.1572    1.2815    1.2721 C.3     1  UNL1        0.0209
      8 N           7.7118   -0.0640    1.4540 N.3     1  UNL1       -0.1713
      9 S           6.1674   -0.2276    2.1387 S.O2    1  UNL1        0.0612
     10 O           6.2126    0.4043    3.5232 O.2     1  UNL1       -0.1528
     11 O           5.9174   -1.6993    2.3794 O.2     1  UNL1       -0.1528
     12 C           4.8964    0.4785    1.1748 C.ar    1  UNL1        0.1063
     13 C           4.2791   -0.3120    0.2323 C.ar    1  UNL1       -0.0335
     14 C           3.2675    0.1729   -0.5664 C.ar    1  UNL1       -0.0377
     15 C           2.8232    1.4970   -0.4516 C.ar    1  UNL1        0.0481
     16 C           3.4421    2.2905    0.4934 C.ar    1  UNL1        0.0502
     17 C           4.4645    1.7778    1.2912 C.ar    1  UNL1       -0.0226
     18 C           2.8072    3.6019    0.4101 C.2     1  UNL1        0.2496
     19 O           3.0886    4.6097    1.1094 O.2     1  UNL1       -0.2817
     20 C           1.7860    3.5549   -0.6228 C.2     1  UNL1        0.2915
     21 O           1.0134    4.5083   -0.9921 O.2     1  UNL1       -0.2661
     22 N           1.8189    2.2335   -1.1407 N.am    1  UNL1       -0.2598
     23 C           0.9785    1.7227   -2.1946 C.3     1  UNL1        0.0452
     24 C          -0.3061    1.1818   -1.6927 C.ar    1  UNL1       -0.0295
     25 C          -0.4124   -0.1473   -1.3546 C.ar    1  UNL1       -0.0536
     26 C          -1.5972   -0.6798   -0.8819 C.ar    1  UNL1       -0.0196
     27 C          -2.7059    0.1243   -0.7404 C.ar    1  UNL1        0.1206
     28 O          -3.8751   -0.4512   -0.2624 O.3     1  UNL1       -0.4896
     29 C          -5.0690    0.2809   -0.0791 C.3     1  UNL1        0.1151
     30 C          -6.1163   -0.6756    0.4506 C.3     1  UNL1        0.1109
     31 O          -6.2676   -1.6846   -0.5195 O.3     1  UNL1       -0.2309
     32 S          -7.4316   -2.7761    0.0303 S.O2    1  UNL1        0.1121
     33 O          -7.0201   -3.4091    1.3246 O.2     1  UNL1       -0.1419
     34 O          -7.5361   -3.8626   -1.0305 O.2     1  UNL1       -0.1419
     35 C          -8.9445   -1.9283    0.1538 C.ar    1  UNL1        0.1171
     36 C          -9.2668   -1.3067    1.3379 C.ar    1  UNL1       -0.0341
     37 C         -10.4809   -0.6205    1.4521 C.ar    1  UNL1       -0.0570
     38 C         -11.3563   -0.5598    0.3951 C.ar    1  UNL1       -0.0503
     39 C         -12.6450    0.1591    0.4913 C.3     1  UNL1       -0.0397
     40 C         -11.0192   -1.1920   -0.7962 C.ar    1  UNL1       -0.0570
     41 C          -9.8072   -1.8804   -0.9191 C.ar    1  UNL1       -0.0341
     42 C          -2.6147    1.4578   -1.0751 C.ar    1  UNL1       -0.0196
     43 C          -1.4274    1.9734   -1.5446 C.ar    1  UNL1       -0.0536
     44 H           9.1200   -3.7591   -1.9987 H       1  UNL1        0.0523
     45 H           8.6777   -4.0231   -0.2959 H       1  UNL1        0.0523
     46 H           7.7075   -2.9180   -1.3547 H       1  UNL1        0.0523
     47 H          10.0821   -0.7460    0.5087 H       1  UNL1        0.0576
     48 H           9.2019   -2.1612    1.2163 H       1  UNL1        0.0576
     49 H           7.1567   -1.5876    0.0817 H       1  UNL1        0.0502
     50 H           8.7018    0.1477   -1.5749 H       1  UNL1        0.0282
     51 H           6.8759    0.1276   -1.3634 H       1  UNL1        0.0282
     52 H           8.7117    2.2389   -0.5392 H       1  UNL1        0.0279
     53 H           6.9080    2.1133   -0.2326 H       1  UNL1        0.0279
     54 H           9.2301    1.3437    1.5444 H       1  UNL1        0.0444
     55 H           7.5473    1.9369    1.9565 H       1  UNL1        0.0444
     56 H           4.5788   -1.3650    0.0882 H       1  UNL1        0.0638
     57 H           2.7840   -0.4653   -1.3178 H       1  UNL1        0.0637
     58 H           4.9212    2.4208    2.0128 H       1  UNL1        0.0645
     59 H           0.8157    2.5597   -2.9097 H       1  UNL1        0.0518
     60 H           1.5125    0.9274   -2.7163 H       1  UNL1        0.0518
     61 H           0.4420   -0.8376   -1.4494 H       1  UNL1        0.0622
     62 H          -1.6276   -1.7507   -0.6257 H       1  UNL1        0.0654
     63 H          -5.4185    0.7938   -0.9757 H       1  UNL1        0.0720
     64 H          -4.9154    1.0412    0.7384 H       1  UNL1        0.0720
     65 H          -7.0777   -0.1720    0.6601 H       1  UNL1        0.0618
     66 H          -5.7370   -1.1064    1.4114 H       1  UNL1        0.0618
     67 H          -8.5650   -1.3662    2.1569 H       1  UNL1        0.0637
     68 H         -10.7242   -0.1336    2.3923 H       1  UNL1        0.0621
     69 H         -12.4898    1.2451    0.7587 H       1  UNL1        0.0278
     70 H         -13.3104   -0.2487    1.2828 H       1  UNL1        0.0278
     71 H         -13.1652    0.1553   -0.4700 H       1  UNL1        0.0278
     72 H         -11.7120   -1.1400   -1.6225 H       1  UNL1        0.0621
     73 H          -9.5896   -2.3588   -1.8727 H       1  UNL1        0.0637
     74 H          -3.4667    2.1053   -0.9731 H       1  UNL1        0.0654
     75 H          -1.3624    3.0327   -1.8083 H       1  UNL1        0.0622
@<TRIPOS>BOND
     1     1     2    1
     2     2     3    1
     3     3     4    1
     4     4     5    1
     5     5     6    1
     6     6     7    1
     7     7     8    1
     8     8     9    1
     9     9    10    2
    10     9    11    2
    11     9    12    1
    12    12    13   ar
    13    13    14   ar
    14    14    15   ar
    15    15    16   ar
    16    16    17   ar
    17    16    18    1
    18    18    19    2
    19    18    20    1
    20    20    21    2
    21    20    22   am
    22    22    23    1
    23    23    24    1
    24    24    25   ar
    25    25    26   ar
    26    26    27   ar
    27    27    28    1
    28    28    29    1
    29    29    30    1
    30    30    31    1
    31    31    32    1
    32    32    33    2
    33    32    34    2
    34    32    35    1
    35    35    36   ar
    36    36    37   ar
    37    37    38   ar
    38    38    39    1
    39    38    40   ar
    40    40    41   ar
    41    27    42   ar
    42    42    43   ar
    43     8     4    1
    44    17    12   ar
    45    43    24   ar
    46    22    15    1
    47    41    35   ar
    48     1    44    1
    49     1    45    1
    50     1    46    1
    51     3    47    1
    52     3    48    1
    53     4    49    1
    54     5    50    1
    55     5    51    1
    56     6    52    1
    57     6    53    1
    58     7    54    1
    59     7    55    1
    60    13    56    1
    61    14    57    1
    62    17    58    1
    63    23    59    1
    64    23    60    1
    65    25    61    1
    66    26    62    1
    67    29    63    1
    68    29    64    1
    69    30    65    1
    70    30    66    1
    71    36    67    1
    72    37    68    1
    73    39    69    1
    74    39    70    1
    75    39    71    1
    76    40    72    1
    77    41    73    1
    78    42    74    1
    79    43    75    1
