
     RDKit          3D

 31 32  0  0  0  0  0  0  0  0999 V2000
   -1.3417   -1.7427   -0.0142 C   0  0  0  0  0  0  0  0  0  0  0  0
   -1.3580   -0.2741   -0.4383 C   0  0  0  0  0  0  0  0  0  0  0  0
   -1.1895   -0.2996   -1.9491 C   0  0  0  0  0  0  0  0  0  0  0  0
   -2.5609    0.3776   -0.0554 N   0  0  0  0  0  0  0  0  0  0  0  0
   -2.7421    1.3600    0.7221 C   0  0  0  0  0  0  0  0  0  0  0  0
   -4.0725    1.8587    0.9648 N   0  0  0  0  0  0  0  0  0  0  0  0
   -1.6080    1.9422    1.3345 N   0  0  0  0  0  0  0  0  0  0  0  0
   -0.4541    1.4504    1.0753 C   0  0  0  0  0  0  0  0  0  0  0  0
    0.7412    2.0023    1.6707 N   0  0  0  0  0  0  0  0  0  0  0  0
   -0.2260    0.3517    0.2081 N   0  0  0  0  0  0  0  0  0  0  0  0
    1.1081   -0.1362   -0.0280 C   0  0  0  0  0  0  0  0  0  0  0  0
    1.8955    0.3418   -1.0418 C   0  0  0  0  0  0  0  0  0  0  0  0
    3.1867   -0.1562   -1.2405 C   0  0  0  0  0  0  0  0  0  0  0  0
    3.6401   -1.1306   -0.3974 C   0  0  0  0  0  0  0  0  0  0  0  0
    5.2441   -1.7677   -0.6233 Cl  0  0  0  0  0  0  0  0  0  0  0  0
    2.8692   -1.6184    0.6177 C   0  0  0  0  0  0  0  0  0  0  0  0
    1.5812   -1.1135    0.8067 C   0  0  0  0  0  0  0  0  0  0  0  0
   -1.2849   -1.8471    1.0885 H   0  0  0  0  0  0  0  0  0  0  0  0
   -0.4576   -2.2649   -0.4322 H   0  0  0  0  0  0  0  0  0  0  0  0
   -2.2817   -2.2453   -0.3213 H   0  0  0  0  0  0  0  0  0  0  0  0
   -0.4863   -1.0653   -2.2660 H   0  0  0  0  0  0  0  0  0  0  0  0
   -0.8798    0.6748   -2.3480 H   0  0  0  0  0  0  0  0  0  0  0  0
   -2.1867   -0.5414   -2.3797 H   0  0  0  0  0  0  0  0  0  0  0  0
   -4.7680    1.8489    0.1970 H   0  0  0  0  0  0  0  0  0  0  0  0
   -4.3422    2.2219    1.8809 H   0  0  0  0  0  0  0  0  0  0  0  0
    0.8528    1.8787    2.6958 H   0  0  0  0  0  0  0  0  0  0  0  0
    1.4634    2.4961    1.1420 H   0  0  0  0  0  0  0  0  0  0  0  0
    1.5743    1.1070   -1.7246 H   0  0  0  0  0  0  0  0  0  0  0  0
    3.7931    0.2304   -2.0424 H   0  0  0  0  0  0  0  0  0  0  0  0
    3.2566   -2.3931    1.2720 H   0  0  0  0  0  0  0  0  0  0  0  0
    1.0338   -1.5463    1.6263 H   0  0  0  0  0  0  0  0  0  0  0  0
  1  2  1  0
  2  3  1  0
  2  4  1  0
  4  5  2  0
  5  6  1  0
  5  7  1  0
  7  8  2  0
  8  9  1  0
  8 10  1  0
 10 11  1  0
 11 12  2  0
 12 13  1  0
 13 14  2  0
 14 15  1  0
 14 16  1  0
 16 17  2  0
 10  2  1  0
 17 11  1  0
  1 18  1  0
  1 19  1  0
  1 20  1  0
  3 21  1  0
  3 22  1  0
  3 23  1  0
  6 24  1  0
  6 25  1  0
  9 26  1  0
  9 27  1  0
 12 28  1  0
 13 29  1  0
 16 30  1  0
 17 31  1  0
M  END
$$$$
