@<TRIPOS>MOLECULE
*****
 31 32 0 0 0
SMALL
GASTEIGER

@<TRIPOS>ATOM
      1 C          -1.3417   -1.7427   -0.0142 C.3     1  UNL1        0.0067
      2 C          -1.3580   -0.2741   -0.4383 C.3     1  UNL1        0.2351
      3 C          -1.1895   -0.2996   -1.9491 C.3     1  UNL1        0.0067
      4 N          -2.5609    0.3776   -0.0554 N.2     1  UNL1       -0.0704
      5 C          -2.7421    1.3600    0.7221 C.cat   1  UNL1        0.4197
      6 N          -4.0725    1.8587    0.9648 N.pl3   1  UNL1       -0.2468
      7 N          -1.6080    1.9422    1.3345 N.2     1  UNL1       -0.0088
      8 C          -0.4541    1.4504    1.0753 C.cat   1  UNL1        0.3829
      9 N           0.7412    2.0023    1.6707 N.pl3   1  UNL1       -0.2507
     10 N          -0.2260    0.3517    0.2081 N.pl3   1  UNL1       -0.1537
     11 C           1.1081   -0.1362   -0.0280 C.ar    1  UNL1        0.0981
     12 C           1.8955    0.3418   -1.0418 C.ar    1  UNL1       -0.0235
     13 C           3.1867   -0.1562   -1.2405 C.ar    1  UNL1       -0.0403
     14 C           3.6401   -1.1306   -0.3974 C.ar    1  UNL1        0.0412
     15 CL          5.2441   -1.7677   -0.6233 Cl      1  UNL1       -0.0835
     16 C           2.8692   -1.6184    0.6177 C.ar    1  UNL1       -0.0403
     17 C           1.5812   -1.1135    0.8067 C.ar    1  UNL1       -0.0235
     18 H          -1.2849   -1.8471    1.0885 H       1  UNL1        0.0299
     19 H          -0.4576   -2.2649   -0.4322 H       1  UNL1        0.0299
     20 H          -2.2817   -2.2453   -0.3213 H       1  UNL1        0.0299
     21 H          -0.4863   -1.0653   -2.2660 H       1  UNL1        0.0299
     22 H          -0.8798    0.6748   -2.3480 H       1  UNL1        0.0299
     23 H          -2.1867   -0.5414   -2.3797 H       1  UNL1        0.0299
     24 H          -4.7680    1.8489    0.1970 H       1  UNL1        0.2415
     25 H          -4.3422    2.2219    1.8809 H       1  UNL1        0.2415
     26 H           0.8528    1.8787    2.6958 H       1  UNL1        0.2412
     27 H           1.4634    2.4961    1.1420 H       1  UNL1        0.2412
     28 H           1.5743    1.1070   -1.7246 H       1  UNL1        0.0651
     29 H           3.7931    0.2304   -2.0424 H       1  UNL1        0.0633
     30 H           3.2566   -2.3931    1.2720 H       1  UNL1        0.0633
     31 H           1.0338   -1.5463    1.6263 H       1  UNL1        0.0651
@<TRIPOS>BOND
     1     1     2    1
     2     2     3    1
     3     2     4    1
     4     4     5    2
     5     5     6    1
     6     5     7    1
     7     7     8    2
     8     8     9    1
     9     8    10    1
    10    10    11    1
    11    11    12   ar
    12    12    13   ar
    13    13    14   ar
    14    14    15    1
    15    14    16   ar
    16    16    17   ar
    17    10     2    1
    18    17    11   ar
    19     1    18    1
    20     1    19    1
    21     1    20    1
    22     3    21    1
    23     3    22    1
    24     3    23    1
    25     6    24    1
    26     6    25    1
    27     9    26    1
    28     9    27    1
    29    12    28    1
    30    13    29    1
    31    16    30    1
    32    17    31    1
