@<TRIPOS>MOLECULE
*****
 102 108 0 0 0
SMALL
GASTEIGER

@<TRIPOS>ATOM
      1 C          -6.9594    5.9730    3.2505 C.3     1  UNL1        0.0788
      2 O          -6.3023    5.1620    2.3007 O.3     1  UNL1       -0.4951
      3 C          -6.9140    4.0523    1.7407 C.ar    1  UNL1        0.1202
      4 C          -6.2192    3.2964    0.8159 C.ar    1  UNL1       -0.0179
      5 C          -6.7881    2.1664    0.2199 C.ar    1  UNL1       -0.0327
      6 C          -8.0660    1.7772    0.5441 C.ar    1  UNL1        0.0677
      7 N          -8.6590    0.6288   -0.0549 N.ar    1  UNL1       -0.2181
      8 N          -9.6608    0.5993   -0.9530 N.ar    1  UNL1       -0.1694
      9 C          -9.9508   -0.6617   -1.2784 C.ar    1  UNL1        0.0679
     10 C         -10.9742   -1.1947   -2.2224 C.3     1  UNL1       -0.0025
     11 C         -10.2031   -1.9659   -3.2899 C.3     1  UNL1       -0.0572
     12 C         -11.7978   -2.2038   -1.4658 C.3     1  UNL1       -0.0572
     13 C          -9.0877   -1.4595   -0.5482 C.ar    1  UNL1        0.0018
     14 C          -8.2813   -0.6244    0.2175 C.ar    1  UNL1        0.1299
     15 N          -7.2855   -1.1356    1.0846 N.am    1  UNL1       -0.2538
     16 C          -5.9467   -1.3899    0.6319 C.2     1  UNL1        0.3092
     17 O          -5.7022   -1.1275   -0.5696 O.2     1  UNL1       -0.2521
     18 N          -4.9420   -1.9170    1.5058 N.am    1  UNL1       -0.2686
     19 C          -3.6257   -2.1744    1.0491 C.ar    1  UNL1        0.0427
     20 C          -2.6387   -1.2296    1.1298 C.ar    1  UNL1       -0.0363
     21 C          -1.3415   -1.4980    0.6681 C.ar    1  UNL1       -0.0169
     22 C          -1.0358   -2.7110    0.1269 C.ar    1  UNL1        0.1381
     23 O           0.1972   -3.0412   -0.3387 O.3     1  UNL1       -0.4373
     24 C           1.3672   -2.3996   -0.3973 C.ar    1  UNL1        0.2249
     25 C           2.4514   -3.0728   -0.9740 C.ar    1  UNL1        0.0186
     26 C           3.6540   -2.4444   -1.0462 C.ar    1  UNL1        0.0362
     27 N           3.7453   -1.2066   -0.5603 N.ar    1  UNL1       -0.2225
     28 C           2.7531   -0.5065    0.0022 C.ar    1  UNL1        0.2226
     29 N           2.9090    0.7897    0.5218 N.pl3   1  UNL1       -0.2834
     30 C           4.0770    1.5684    0.5220 C.ar    1  UNL1        0.0378
     31 C           4.2334    2.6077    1.4424 C.ar    1  UNL1        0.0013
     32 C           5.3438    3.4100    1.5120 C.ar    1  UNL1        0.1226
     33 O           5.4486    4.4314    2.4488 O.3     1  UNL1       -0.4950
     34 C           6.6165    5.2150    2.4641 C.3     1  UNL1        0.0788
     35 C           6.3754    3.1595    0.5976 C.ar    1  UNL1       -0.0077
     36 C           6.2178    2.1336   -0.3102 C.ar    1  UNL1        0.0419
     37 C           7.3012    1.8311   -1.2661 C.2     1  UNL1        0.2443
     38 O           7.0701    1.0755   -2.2558 O.2     1  UNL1       -0.2702
     39 N           8.6082    2.3373   -1.1466 N.am    1  UNL1       -0.3101
     40 C           9.6849    2.0590   -2.0644 C.3     1  UNL1        0.0247
     41 C           9.9222    0.5678   -2.1064 C.3     1  UNL1        0.0146
     42 N          10.2432    0.1052   -0.7932 N.3     1  UNL1       -0.2965
     43 C          11.4719    0.5129   -0.2436 C.3     1  UNL1        0.0225
     44 C          12.3297   -0.5611    0.3489 C.3     1  UNL1        0.0604
     45 O          11.6263   -1.6368    0.8698 O.3     1  UNL1       -0.3772
     46 C          10.9054   -2.1925   -0.1861 C.3     1  UNL1        0.0604
     47 C           9.8165   -1.2386   -0.5340 C.3     1  UNL1        0.0225
     48 C           5.0960    1.3357   -0.3696 C.ar    1  UNL1       -0.0281
     49 N           1.5575   -1.1626    0.0607 N.ar    1  UNL1       -0.1789
     50 C          -2.0673   -3.6594    0.0574 C.ar    1  UNL1        0.0262
     51 C          -1.7661   -4.8940   -0.4875 C.ar    1  UNL1       -0.0505
     52 C          -2.7574   -5.8693   -0.5750 C.ar    1  UNL1       -0.0611
     53 C          -4.0239   -5.5849   -0.1155 C.ar    1  UNL1       -0.0611
     54 C          -4.3502   -4.3663    0.4301 C.ar    1  UNL1       -0.0521
     55 C          -3.3367   -3.4043    0.5065 C.ar    1  UNL1        0.0069
     56 C          -8.7560    2.5418    1.4732 C.ar    1  UNL1       -0.0327
     57 C          -8.2069    3.6588    2.0685 C.ar    1  UNL1       -0.0179
     58 H          -6.9547    5.5570    4.2699 H       1  UNL1        0.0660
     59 H          -6.4437    6.9683    3.2127 H       1  UNL1        0.0660
     60 H          -8.0329    6.1651    2.9745 H       1  UNL1        0.0660
     61 H          -5.2165    3.5948    0.5570 H       1  UNL1        0.0655
     62 H          -6.2389    1.5793   -0.5027 H       1  UNL1        0.0640
     63 H         -11.5645   -0.3745   -2.6663 H       1  UNL1        0.0359
     64 H          -9.3388   -2.4477   -2.7471 H       1  UNL1        0.0236
     65 H          -9.8042   -1.3041   -4.0633 H       1  UNL1        0.0236
     66 H         -10.8182   -2.7967   -3.6505 H       1  UNL1        0.0236
     67 H         -11.0918   -2.7494   -0.7853 H       1  UNL1        0.0236
     68 H         -12.1961   -2.9861   -2.1673 H       1  UNL1        0.0236
     69 H         -12.5917   -1.6809   -0.9063 H       1  UNL1        0.0236
     70 H          -9.0538   -2.5390   -0.5739 H       1  UNL1        0.0671
     71 H          -7.5193   -1.3384    2.0678 H       1  UNL1        0.1578
     72 H          -5.2443   -2.0946    2.4870 H       1  UNL1        0.1564
     73 H          -2.8061   -0.2462    1.5457 H       1  UNL1        0.0637
     74 H          -0.5958   -0.7043    0.7589 H       1  UNL1        0.0655
     75 H           2.3457   -4.0778   -1.3581 H       1  UNL1        0.0686
     76 H           4.4961   -2.9582   -1.4907 H       1  UNL1        0.0832
     77 H           2.0513    1.2431    0.9648 H       1  UNL1        0.1550
     78 H           3.4207    2.7870    2.1448 H       1  UNL1        0.0673
     79 H           6.6819    5.8823    3.3287 H       1  UNL1        0.0660
     80 H           6.6533    5.7775    1.5066 H       1  UNL1        0.0660
     81 H           7.5061    4.5461    2.5151 H       1  UNL1        0.0660
     82 H           7.2453    3.7924    0.6544 H       1  UNL1        0.0662
     83 H           8.7908    2.9577   -0.3238 H       1  UNL1        0.1490
     84 H           9.4294    2.4570   -3.0707 H       1  UNL1        0.0475
     85 H          10.5978    2.5738   -1.6958 H       1  UNL1        0.0475
     86 H           9.0851    0.0282   -2.5507 H       1  UNL1        0.0442
     87 H          10.8337    0.3666   -2.7442 H       1  UNL1        0.0442
     88 H          11.3180    1.3457    0.5076 H       1  UNL1        0.0449
     89 H          12.0791    0.9969   -1.0640 H       1  UNL1        0.0449
     90 H          13.0788   -0.9876   -0.3421 H       1  UNL1        0.0572
     91 H          12.9018   -0.1143    1.1964 H       1  UNL1        0.0572
     92 H          11.6345   -2.3669   -1.0003 H       1  UNL1        0.0572
     93 H          10.4528   -3.1265    0.1876 H       1  UNL1        0.0572
     94 H           9.3223   -1.6053   -1.4815 H       1  UNL1        0.0449
     95 H           9.0396   -1.2857    0.2474 H       1  UNL1        0.0449
     96 H           5.0514    0.5452   -1.1375 H       1  UNL1        0.0644
     97 H          -0.7608   -5.0780   -0.8375 H       1  UNL1        0.0625
     98 H          -2.4807   -6.8235   -1.0062 H       1  UNL1        0.0618
     99 H          -4.8023   -6.3209   -0.1724 H       1  UNL1        0.0618
    100 H          -5.3164   -4.1055    0.7968 H       1  UNL1        0.0624
    101 H          -9.7628    2.2321    1.7266 H       1  UNL1        0.0640
    102 H          -8.7576    4.2537    2.7976 H       1  UNL1        0.0655
@<TRIPOS>BOND
     1     1     2    1
     2     2     3    1
     3     3     4   ar
     4     4     5   ar
     5     5     6   ar
     6     6     7    1
     7     7     8   ar
     8     8     9   ar
     9     9    10    1
    10    10    11    1
    11    10    12    1
    12     9    13   ar
    13    13    14   ar
    14    14    15    1
    15    15    16   am
    16    16    17    2
    17    16    18   am
    18    18    19    1
    19    19    20   ar
    20    20    21   ar
    21    21    22   ar
    22    22    23    1
    23    23    24    1
    24    24    25   ar
    25    25    26   ar
    26    26    27   ar
    27    27    28   ar
    28    28    29    1
    29    29    30    1
    30    30    31   ar
    31    31    32   ar
    32    32    33    1
    33    33    34    1
    34    32    35   ar
    35    35    36   ar
    36    36    37    1
    37    37    38    2
    38    37    39   am
    39    39    40    1
    40    40    41    1
    41    41    42    1
    42    42    43    1
    43    43    44    1
    44    44    45    1
    45    45    46    1
    46    46    47    1
    47    36    48   ar
    48    28    49   ar
    49    22    50   ar
    50    50    51   ar
    51    51    52   ar
    52    52    53   ar
    53    53    54   ar
    54    54    55   ar
    55     6    56   ar
    56    56    57   ar
    57    57     3   ar
    58    14     7   ar
    59    55    19   ar
    60    49    24   ar
    61    55    50   ar
    62    48    30   ar
    63    47    42    1
    64     1    58    1
    65     1    59    1
    66     1    60    1
    67     4    61    1
    68     5    62    1
    69    10    63    1
    70    11    64    1
    71    11    65    1
    72    11    66    1
    73    12    67    1
    74    12    68    1
    75    12    69    1
    76    13    70    1
    77    15    71    1
    78    18    72    1
    79    20    73    1
    80    21    74    1
    81    25    75    1
    82    26    76    1
    83    29    77    1
    84    31    78    1
    85    34    79    1
    86    34    80    1
    87    34    81    1
    88    35    82    1
    89    39    83    1
    90    40    84    1
    91    40    85    1
    92    41    86    1
    93    41    87    1
    94    43    88    1
    95    43    89    1
    96    44    90    1
    97    44    91    1
    98    46    92    1
    99    46    93    1
   100    47    94    1
   101    47    95    1
   102    48    96    1
   103    51    97    1
   104    52    98    1
   105    53    99    1
   106    54   100    1
   107    56   101    1
   108    57   102    1
