@<TRIPOS>MOLECULE
*****
 37 39 0 0 0
SMALL
GASTEIGER

@<TRIPOS>ATOM
      1 C           3.6186   -1.2251   -0.8256 C.3     1  UNL1       -0.0152
      2 N           3.4641    0.1788   -1.0122 N.3     1  UNL1       -0.3123
      3 C           2.1384    0.6698   -0.8079 C.3     1  UNL1        0.0329
      4 C           1.1222    0.0328   -1.7573 C.3     1  UNL1       -0.0326
      5 C          -0.0859    0.9397   -1.7386 C.3     1  UNL1       -0.0405
      6 C          -0.6619    1.0457   -0.3673 C.3     1  UNL1        0.0096
      7 C          -1.9811    0.3716   -0.2600 C.ar    1  UNL1       -0.0385
      8 C          -2.2204   -0.8399   -0.8795 C.ar    1  UNL1       -0.0565
      9 C          -3.4319   -1.4834   -0.7952 C.ar    1  UNL1       -0.0417
     10 C          -4.4647   -0.9288   -0.0763 C.ar    1  UNL1        0.0593
     11 CL         -6.0159   -1.7735    0.0195 Cl      1  UNL1       -0.0820
     12 C          -4.2608    0.2693    0.5488 C.ar    1  UNL1        0.0595
     13 CL         -5.6029    0.9517    1.4606 Cl      1  UNL1       -0.0820
     14 C          -3.0378    0.8987    0.4519 C.ar    1  UNL1       -0.0382
     15 C           0.2555    0.6502    0.7197 C.ar    1  UNL1       -0.0353
     16 C          -0.2483    0.4567    1.9778 C.ar    1  UNL1       -0.0577
     17 C           0.5592    0.0862    3.0521 C.ar    1  UNL1       -0.0615
     18 C           1.9072   -0.0979    2.8726 C.ar    1  UNL1       -0.0614
     19 C           2.4201    0.0982    1.5953 C.ar    1  UNL1       -0.0568
     20 C           1.6099    0.4644    0.5422 C.ar    1  UNL1       -0.0267
     21 H           4.6161   -1.4223   -0.3648 H       1  UNL1        0.0388
     22 H           3.6131   -1.7382   -1.8171 H       1  UNL1        0.0388
     23 H           2.8106   -1.6921   -0.2308 H       1  UNL1        0.0388
     24 H           3.7647    0.4600   -1.9720 H       1  UNL1        0.1222
     25 H           2.1298    1.7562   -1.0296 H       1  UNL1        0.0510
     26 H           1.5446   -0.0810   -2.7688 H       1  UNL1        0.0284
     27 H           0.8995   -0.9525   -1.3314 H       1  UNL1        0.0284
     28 H          -0.8395    0.6292   -2.4959 H       1  UNL1        0.0275
     29 H           0.2945    1.9387   -2.1029 H       1  UNL1        0.0275
     30 H          -0.8753    2.1511   -0.2100 H       1  UNL1        0.0397
     31 H          -1.4540   -1.3305   -1.4603 H       1  UNL1        0.0621
     32 H          -3.6017   -2.4265   -1.2837 H       1  UNL1        0.0633
     33 H          -2.9151    1.8620    0.9695 H       1  UNL1        0.0635
     34 H          -1.2971    0.5835    2.1917 H       1  UNL1        0.0621
     35 H           0.1567   -0.0651    4.0422 H       1  UNL1        0.0618
     36 H           2.5817   -0.3839    3.6633 H       1  UNL1        0.0618
     37 H           3.4881   -0.0536    1.4799 H       1  UNL1        0.0621
@<TRIPOS>BOND
     1     1     2    1
     2     2     3    1
     3     3     4    1
     4     4     5    1
     5     5     6    1
     6     6     7    1
     7     7     8   ar
     8     8     9   ar
     9     9    10   ar
    10    10    11    1
    11    10    12   ar
    12    12    13    1
    13    12    14   ar
    14     6    15    1
    15    15    16   ar
    16    16    17   ar
    17    17    18   ar
    18    18    19   ar
    19    19    20   ar
    20    20     3    1
    21    14     7   ar
    22    20    15   ar
    23     1    21    1
    24     1    22    1
    25     1    23    1
    26     2    24    1
    27     3    25    1
    28     4    26    1
    29     4    27    1
    30     5    28    1
    31     5    29    1
    32     6    30    1
    33     8    31    1
    34     9    32    1
    35    14    33    1
    36    16    34    1
    37    17    35    1
    38    18    36    1
    39    19    37    1
