@<TRIPOS>MOLECULE
*****
 53 56 0 0 0
SMALL
GASTEIGER

@<TRIPOS>ATOM
      1 C           5.4487    0.2243    3.4020 C.3     1  UNL1       -0.0307
      2 C           4.2959   -0.2346    2.5183 C.3     1  UNL1        0.0870
      3 O           4.2153    0.5624    1.3569 O.3     1  UNL1       -0.4883
      4 C           3.2866    0.3704    0.3595 C.ar    1  UNL1        0.1689
      5 C           2.3218   -0.6329    0.3864 C.ar    1  UNL1       -0.0106
      6 C           1.4195   -0.7820   -0.6379 C.ar    1  UNL1       -0.0126
      7 C           0.3400   -1.8431   -0.6279 C.3     1  UNL1        0.0777
      8 N           0.4697   -2.6157   -1.8438 N.am    1  UNL1       -0.2882
      9 C          -0.5405   -2.7241   -2.8301 C.2     1  UNL1        0.3046
     10 O          -0.3185   -3.4193   -3.8652 O.2     1  UNL1       -0.2525
     11 N          -1.7537   -2.0477   -2.6091 N.am    1  UNL1       -0.2686
     12 C          -1.9090   -1.2796   -1.3969 C.2     1  UNL1        0.0478
     13 C          -3.2396   -0.6373   -1.2432 C.ar    1  UNL1       -0.0034
     14 C          -3.9041   -0.7535   -0.0555 C.ar    1  UNL1       -0.0528
     15 C          -5.1612   -0.1497    0.1181 C.ar    1  UNL1       -0.0611
     16 C          -5.7329    0.5566   -0.8926 C.ar    1  UNL1       -0.0617
     17 C          -5.0598    0.6797   -2.1123 C.ar    1  UNL1       -0.0611
     18 C          -3.8249    0.0794   -2.2623 C.ar    1  UNL1       -0.0528
     19 C          -0.9827   -1.1727   -0.4916 C.2     1  UNL1        0.0062
     20 C          -1.2085   -0.3324    0.6818 C.ar    1  UNL1       -0.0180
     21 C          -1.7287    0.9414    0.6422 C.ar    1  UNL1       -0.0542
     22 C          -1.9196    1.6808    1.8046 C.ar    1  UNL1       -0.0612
     23 C          -1.5924    1.1564    3.0328 C.ar    1  UNL1       -0.0617
     24 C          -1.0665   -0.1293    3.0873 C.ar    1  UNL1       -0.0612
     25 C          -0.8843   -0.8490    1.9125 C.ar    1  UNL1       -0.0542
     26 C           1.4737    0.0769   -1.7078 C.ar    1  UNL1        0.0249
     27 C           2.4232    1.0963   -1.7754 C.ar    1  UNL1        0.3180
     28 N           2.4636    1.9887   -2.8863 N.pl3   1  UNL1        0.0836
     29 O           2.8343    3.1704   -2.6944 O.2     1  UNL1        0.0416
     30 O           2.1197    1.6552   -4.1509 O.co2   1  UNL1       -0.5759
     31 C           3.3130    1.2256   -0.7406 C.ar    1  UNL1        0.2372
     32 O           4.2698    2.2248   -0.7721 O.3     1  UNL1       -0.4989
     33 H           6.4166    0.1791    2.8182 H       1  UNL1        0.0262
     34 H           5.5709   -0.5055    4.2256 H       1  UNL1        0.0262
     35 H           5.2978    1.2153    3.8346 H       1  UNL1        0.0262
     36 H           4.4754   -1.2931    2.2496 H       1  UNL1        0.0694
     37 H           3.3540   -0.1750    3.1209 H       1  UNL1        0.0694
     38 H           2.2979   -1.2940    1.2343 H       1  UNL1        0.0659
     39 H           0.5635   -2.5160    0.2165 H       1  UNL1        0.0600
     40 H           1.3814   -3.1481   -2.0261 H       1  UNL1        0.1512
     41 H          -2.5211   -2.1087   -3.3201 H       1  UNL1        0.1564
     42 H          -3.5282   -1.2963    0.7941 H       1  UNL1        0.0624
     43 H          -5.6691   -0.2515    1.0588 H       1  UNL1        0.0618
     44 H          -6.6966    1.0131   -0.7477 H       1  UNL1        0.0618
     45 H          -5.5538    1.2469   -2.8803 H       1  UNL1        0.0618
     46 H          -3.3227    0.1853   -3.2019 H       1  UNL1        0.0624
     47 H          -1.9891    1.3706   -0.3327 H       1  UNL1        0.0624
     48 H          -2.3258    2.6783    1.7713 H       1  UNL1        0.0618
     49 H          -1.7264    1.7055    3.9668 H       1  UNL1        0.0618
     50 H          -0.8001   -0.5713    4.0416 H       1  UNL1        0.0618
     51 H          -0.4742   -1.8557    1.9562 H       1  UNL1        0.0624
     52 H           0.7957    0.0137   -2.5444 H       1  UNL1        0.0690
     53 H           4.5859    2.7151    0.0581 H       1  UNL1        0.2925
@<TRIPOS>UNITY_ATOM_ATTR
28 1
charge 1
30 1
charge -1
@<TRIPOS>BOND
     1     1     2    1
     2     2     3    1
     3     3     4    1
     4     4     5   ar
     5     5     6   ar
     6     6     7    1
     7     7     8    1
     8     8     9   am
     9     9    10    2
    10     9    11   am
    11    11    12    1
    12    12    13    1
    13    13    14   ar
    14    14    15   ar
    15    15    16   ar
    16    16    17   ar
    17    17    18   ar
    18    12    19    2
    19    19    20    1
    20    20    21   ar
    21    21    22   ar
    22    22    23   ar
    23    23    24   ar
    24    24    25   ar
    25     6    26   ar
    26    26    27   ar
    27    27    28    1
    28    28    29    2
    29    28    30    1
    30    27    31   ar
    31    31    32    1
    32    31     4   ar
    33    19     7    1
    34    25    20   ar
    35    18    13   ar
    36     1    33    1
    37     1    34    1
    38     1    35    1
    39     2    36    1
    40     2    37    1
    41     5    38    1
    42     7    39    1
    43     8    40    1
    44    11    41    1
    45    14    42    1
    46    15    43    1
    47    16    44    1
    48    17    45    1
    49    18    46    1
    50    21    47    1
    51    22    48    1
    52    23    49    1
    53    24    50    1
    54    25    51    1
    55    26    52    1
    56    32    53    1
