@<TRIPOS>MOLECULE
*****
 22 23 0 0 0
SMALL
GASTEIGER

@<TRIPOS>ATOM
      1 N          -3.8272    0.8800    0.1297 N.3     1  UNL1       -0.2077
      2 S          -2.9599   -0.4568    0.7850 S.O2    1  UNL1        0.0326
      3 O          -2.5045   -0.0856    2.1292 O.2     1  UNL1       -0.1581
      4 O          -3.8779   -1.6276    0.8577 O.2     1  UNL1       -0.1581
      5 C          -1.6013   -0.9057   -0.2535 C.3     1  UNL1        0.1272
      6 C          -0.5709    0.1542   -0.4004 C.ar    1  UNL1        0.1137
      7 N          -0.6747    1.4836   -0.5947 N.ar    1  UNL1       -0.0803
      8 O           0.4713    2.0659   -0.5857 O.2     1  UNL1       -0.3543
      9 C           1.4719    1.2655   -0.4004 C.ar    1  UNL1        0.1675
     10 C           2.8371    1.2829   -0.3082 C.ar    1  UNL1       -0.0161
     11 C           3.5906    0.1508   -0.1085 C.ar    1  UNL1       -0.0582
     12 C           2.9960   -1.0877    0.0127 C.ar    1  UNL1       -0.0609
     13 C           1.5879   -1.1030   -0.0723 C.ar    1  UNL1       -0.0491
     14 C           0.8189    0.0617   -0.2780 C.ar    1  UNL1        0.0459
     15 H          -3.9255    0.8067   -0.9059 H       1  UNL1        0.1439
     16 H          -3.5940    1.8041    0.4850 H       1  UNL1        0.1439
     17 H          -1.8467   -1.3217   -1.2179 H       1  UNL1        0.0582
     18 H          -1.0617   -1.7272    0.3306 H       1  UNL1        0.0582
     19 H           3.3099    2.2328   -0.3914 H       1  UNL1        0.0655
     20 H           4.6764    0.1980   -0.0234 H       1  UNL1        0.0619
     21 H           3.5671   -1.9983    0.1602 H       1  UNL1        0.0618
     22 H           1.1172   -2.0726    0.0459 H       1  UNL1        0.0625
@<TRIPOS>BOND
     1     1     2    1
     2     2     3    2
     3     2     4    2
     4     2     5    1
     5     5     6    1
     6     6     7   ar
     7     7     8   ar
     8     8     9   ar
     9     9    10   ar
    10    10    11   ar
    11    11    12   ar
    12    12    13   ar
    13    13    14   ar
    14    14     6   ar
    15    14     9   ar
    16     1    15    1
    17     1    16    1
    18     5    17    1
    19     5    18    1
    20    10    19    1
    21    11    20    1
    22    12    21    1
    23    13    22    1
