
     RDKit          3D

 77 79  0  0  0  0  0  0  0  0999 V2000
    1.7138    1.3236    2.1963 C   0  0  0  0  0  0  0  0  0  0  0  0
    2.6690    1.4779    1.0767 C   0  0  0  0  0  0  0  0  0  0  0  0
    2.5721    0.4063   -0.0287 C   0  0  2  0  0  0  0  0  0  0  0  0
    3.5708    0.7366   -0.9869 N   0  0  0  0  0  0  0  0  0  0  0  0
    4.8349    0.1059   -0.9641 C   0  0  1  0  0  0  0  0  0  0  0  0
    5.5885    0.2521    0.2962 C   0  0  0  0  0  0  0  0  0  0  0  0
    6.9865   -0.3291    0.3301 C   0  0  0  0  0  0  0  0  0  0  0  0
    7.8920    0.3715   -0.6056 C   0  0  0  0  0  0  0  0  0  0  0  0
    8.1242   -0.0594   -1.8680 C   0  0  0  0  0  0  0  0  0  0  0  0
    8.9815    0.6557   -2.7032 C   0  0  0  0  0  0  0  0  0  0  0  0
    9.5958    1.7872   -2.2738 C   0  0  0  0  0  0  0  0  0  0  0  0
    9.3687    2.2342   -0.9947 C   0  0  0  0  0  0  0  0  0  0  0  0
    8.5324    1.5449   -0.1668 C   0  0  0  0  0  0  0  0  0  0  0  0
    4.6300   -1.3420   -1.3238 C   0  0  0  0  0  0  0  0  0  0  0  0
    3.4826   -1.7074   -1.6432 O   0  0  0  0  0  0  0  0  0  0  0  0
    5.6372   -2.2445   -1.3075 O   0  0  0  0  0  0  0  0  0  0  0  0
    1.2603    0.5755   -0.7578 C   0  0  0  0  0  0  0  0  0  0  0  0
    1.2612    1.3437   -1.8065 O   0  0  0  0  0  0  0  0  0  0  0  0
    0.0530   -0.0159   -0.4170 N   0  0  0  0  0  0  0  0  0  0  0  0
   -1.1962    0.3008   -1.1448 C   0  0  0  0  0  0  0  0  0  0  0  0
   -2.1939    0.2280   -0.0151 C   0  0  1  0  0  0  0  0  0  0  0  0
   -3.5118   -0.0754   -0.5599 N   0  0  0  0  0  0  0  0  0  0  0  0
   -4.6175    0.7476   -0.2306 C   0  0  0  0  0  0  0  0  0  0  0  0
   -4.4700    1.7306    0.5251 O   0  0  0  0  0  0  0  0  0  0  0  0
   -5.9497    0.4418   -0.7825 C   0  0  0  0  0  0  0  0  0  0  0  0
   -7.0442    1.3617   -0.3380 C   0  0  2  0  0  0  0  0  0  0  0  0
   -6.8583    2.7338   -0.6714 N   0  0  0  0  0  0  0  0  0  0  0  0
   -7.3270    1.1026    1.1231 C   0  0  0  0  0  0  0  0  0  0  0  0
   -7.7468   -0.3242    1.2501 C   0  0  0  0  0  0  0  0  0  0  0  0
   -6.9155   -1.3102    1.7352 C   0  0  0  0  0  0  0  0  0  0  0  0
   -7.3255   -2.6240    1.8430 C   0  0  0  0  0  0  0  0  0  0  0  0
   -6.5008   -3.5983    2.3236 F   0  0  0  0  0  0  0  0  0  0  0  0
   -8.6055   -3.0145    1.4621 C   0  0  0  0  0  0  0  0  0  0  0  0
   -8.9921   -4.3108    1.5750 F   0  0  0  0  0  0  0  0  0  0  0  0
   -9.4320   -2.0221    0.9778 C   0  0  0  0  0  0  0  0  0  0  0  0
   -9.0214   -0.7152    0.8719 C   0  0  0  0  0  0  0  0  0  0  0  0
   -9.8375    0.2730    0.3966 F   0  0  0  0  0  0  0  0  0  0  0  0
   -1.7215   -0.9043    0.8633 C   0  0  0  0  0  0  0  0  0  0  0  0
   -0.2497   -1.0134    0.5523 C   0  0  1  0  0  0  0  0  0  0  0  0
    0.0772   -2.3929    0.0429 C   0  0  0  0  0  0  0  0  0  0  0  0
    0.5634   -2.5901   -1.0945 O   0  0  0  0  0  0  0  0  0  0  0  0
   -0.1564   -3.5038    0.8374 O   0  0  0  0  0  0  0  0  0  0  0  0
    0.6588    1.4336    1.9470 H   0  0  0  0  0  0  0  0  0  0  0  0
    1.9015    0.3395    2.6944 H   0  0  0  0  0  0  0  0  0  0  0  0
    1.9812    2.0728    2.9957 H   0  0  0  0  0  0  0  0  0  0  0  0
    3.7032    1.6086    1.4207 H   0  0  0  0  0  0  0  0  0  0  0  0
    2.4242    2.4782    0.5908 H   0  0  0  0  0  0  0  0  0  0  0  0
    2.5796   -0.5972    0.3782 H   0  0  0  0  0  0  0  0  0  0  0  0
    3.3379    1.4059   -1.6948 H   0  0  0  0  0  0  0  0  0  0  0  0
    5.4408    0.5332   -1.7929 H   0  0  0  0  0  0  0  0  0  0  0  0
    5.0580   -0.2280    1.1444 H   0  0  0  0  0  0  0  0  0  0  0  0
    5.7607    1.3601    0.4464 H   0  0  0  0  0  0  0  0  0  0  0  0
    7.0372   -1.4149    0.2805 H   0  0  0  0  0  0  0  0  0  0  0  0
    7.3601   -0.0715    1.3746 H   0  0  0  0  0  0  0  0  0  0  0  0
    7.6738   -0.9635   -2.2837 H   0  0  0  0  0  0  0  0  0  0  0  0
    9.1482    0.2891   -3.7091 H   0  0  0  0  0  0  0  0  0  0  0  0
   10.2693    2.3668   -2.9010 H   0  0  0  0  0  0  0  0  0  0  0  0
    9.8591    3.1442   -0.6441 H   0  0  0  0  0  0  0  0  0  0  0  0
    8.3579    1.8966    0.8360 H   0  0  0  0  0  0  0  0  0  0  0  0
    5.5930   -3.2198   -1.5016 H   0  0  0  0  0  0  0  0  0  0  0  0
   -1.1749    1.2824   -1.6058 H   0  0  0  0  0  0  0  0  0  0  0  0
   -1.4221   -0.4620   -1.9140 H   0  0  0  0  0  0  0  0  0  0  0  0
   -2.2275    1.1720    0.5844 H   0  0  0  0  0  0  0  0  0  0  0  0
   -3.6276   -0.8976   -1.1892 H   0  0  0  0  0  0  0  0  0  0  0  0
   -5.8861    0.4106   -1.9107 H   0  0  0  0  0  0  0  0  0  0  0  0
   -6.1727   -0.6226   -0.5112 H   0  0  0  0  0  0  0  0  0  0  0  0
   -7.9706    1.0198   -0.9023 H   0  0  0  0  0  0  0  0  0  0  0  0
   -5.9057    3.1015   -0.6519 H   0  0  0  0  0  0  0  0  0  0  0  0
   -7.2108    2.8903   -1.6576 H   0  0  0  0  0  0  0  0  0  0  0  0
   -8.1022    1.7905    1.5089 H   0  0  0  0  0  0  0  0  0  0  0  0
   -6.4089    1.2214    1.6958 H   0  0  0  0  0  0  0  0  0  0  0  0
   -5.9032   -1.0205    2.0409 H   0  0  0  0  0  0  0  0  0  0  0  0
  -10.4339   -2.2967    0.6708 H   0  0  0  0  0  0  0  0  0  0  0  0
   -2.2745   -1.8402    0.6196 H   0  0  0  0  0  0  0  0  0  0  0  0
   -1.8674   -0.6353    1.9289 H   0  0  0  0  0  0  0  0  0  0  0  0
    0.2914   -0.8788    1.4697 H   0  0  0  0  0  0  0  0  0  0  0  0
    0.4303   -4.3060    0.8646 H   0  0  0  0  0  0  0  0  0  0  0  0
  1  2  1  0
  2  3  1  0
  3  4  1  0
  4  5  1  0
  5  6  1  0
  6  7  1  0
  7  8  1  0
  8  9  2  0
  9 10  1  0
 10 11  2  0
 11 12  1  0
 12 13  2  0
  5 14  1  0
 14 15  2  0
 14 16  1  0
  3 17  1  0
 17 18  2  0
 17 19  1  0
 19 20  1  0
 20 21  1  0
 21 22  1  0
 22 23  1  0
 23 24  2  0
 23 25  1  0
 25 26  1  0
 26 27  1  0
 26 28  1  0
 28 29  1  0
 29 30  2  0
 30 31  1  0
 31 32  1  0
 31 33  2  0
 33 34  1  0
 33 35  1  0
 35 36  2  0
 36 37  1  0
 21 38  1  0
 38 39  1  0
 39 40  1  0
 40 41  2  0
 40 42  1  0
 13  8  1  0
 39 19  1  0
 36 29  1  0
  1 43  1  0
  1 44  1  0
  1 45  1  0
  2 46  1  0
  2 47  1  0
  3 48  1  1
  4 49  1  0
  5 50  1  6
  6 51  1  0
  6 52  1  0
  7 53  1  0
  7 54  1  0
  9 55  1  0
 10 56  1  0
 11 57  1  0
 12 58  1  0
 13 59  1  0
 16 60  1  0
 20 61  1  0
 20 62  1  0
 21 63  1  1
 22 64  1  0
 25 65  1  0
 25 66  1  0
 26 67  1  6
 27 68  1  0
 27 69  1  0
 28 70  1  0
 28 71  1  0
 30 72  1  0
 35 73  1  0
 38 74  1  0
 38 75  1  0
 39 76  1  1
 42 77  1  0
M  END
$$$$
