@<TRIPOS>MOLECULE
*****
 77 79 0 0 0
SMALL
GASTEIGER

@<TRIPOS>ATOM
      1 C           1.7138    1.3236    2.1963 C.3     1  UNL1       -0.0634
      2 C           2.6690    1.4779    1.0767 C.3     1  UNL1       -0.0319
      3 CA          2.5721    0.4063   -0.0287 C.3     1  UNL1        0.0853
      4 N           3.5708    0.7366   -0.9869 N.3     1  UNL1       -0.2935
      5 CA          4.8349    0.1059   -0.9641 C.3     1  UNL1        0.1066
      6 C           5.5885    0.2521    0.2962 C.3     1  UNL1       -0.0232
      7 C           6.9865   -0.3291    0.3301 C.3     1  UNL1       -0.0258
      8 C           7.8920    0.3715   -0.6056 C.ar    1  UNL1       -0.0473
      9 C           8.1242   -0.0594   -1.8680 C.ar    1  UNL1       -0.0586
     10 C           8.9815    0.6557   -2.7032 C.ar    1  UNL1       -0.0615
     11 C           9.5958    1.7872   -2.2738 C.ar    1  UNL1       -0.0617
     12 C           9.3687    2.2342   -0.9947 C.ar    1  UNL1       -0.0615
     13 C           8.5324    1.5449   -0.1668 C.ar    1  UNL1       -0.0586
     14 C           4.6300   -1.3420   -1.3238 C.2     1  UNL1        0.3219
     15 O           3.4826   -1.7074   -1.6432 O.2     1  UNL1       -0.2492
     16 OXT         5.6372   -2.2445   -1.3075 O.3     1  UNL1       -0.4795
     17 C           1.2603    0.5755   -0.7578 C.2     1  UNL1        0.2333
     18 O           1.2612    1.3437   -1.8065 O.2     1  UNL1       -0.2739
     19 N           0.0530   -0.0159   -0.4170 N.am    1  UNL1       -0.2849
     20 C          -1.1962    0.3008   -1.1448 C.3     1  UNL1        0.0341
     21 C          -2.1939    0.2280   -0.0151 C.3     1  UNL1        0.0411
     22 N          -3.5118   -0.0754   -0.5599 N.am    1  UNL1       -0.3108
     23 C          -4.6175    0.7476   -0.2306 C.2     1  UNL1        0.2148
     24 O          -4.4700    1.7306    0.5251 O.2     1  UNL1       -0.2758
     25 C          -5.9497    0.4418   -0.7825 C.3     1  UNL1        0.0394
     26 C          -7.0442    1.3617   -0.3380 C.3     1  UNL1        0.0172
     27 N          -6.8583    2.7338   -0.6714 N.3     1  UNL1       -0.3265
     28 C          -7.3270    1.1026    1.1231 C.3     1  UNL1       -0.0092
     29 C          -7.7468   -0.3242    1.2501 C.ar    1  UNL1       -0.0078
     30 C          -6.9155   -1.3102    1.7352 C.ar    1  UNL1       -0.0176
     31 C          -7.3255   -2.6240    1.8430 C.ar    1  UNL1        0.1588
     32 F          -6.5008   -3.5983    2.3236 F       1  UNL1       -0.2025
     33 C          -8.6055   -3.0145    1.4621 C.ar    1  UNL1        0.1611
     34 F          -8.9921   -4.3108    1.5750 F       1  UNL1       -0.2024
     35 C          -9.4320   -2.0221    0.9778 C.ar    1  UNL1        0.0119
     36 C          -9.0214   -0.7152    0.8719 C.ar    1  UNL1        0.1295
     37 F          -9.8375    0.2730    0.3966 F       1  UNL1       -0.2051
     38 C          -1.7215   -0.9043    0.8633 C.3     1  UNL1       -0.0039
     39 CA         -0.2497   -1.0134    0.5523 C.3     1  UNL1        0.1246
     40 C           0.0772   -2.3929    0.0429 C.2     1  UNL1        0.3255
     41 O           0.5634   -2.5901   -1.0945 O.2     1  UNL1       -0.2489
     42 OXT        -0.1564   -3.5038    0.8374 O.3     1  UNL1       -0.4793
     43 H           0.6588    1.4336    1.9470 H       1  UNL1        0.0230
     44 H           1.9015    0.3395    2.6944 H       1  UNL1        0.0230
     45 H           1.9812    2.0728    2.9957 H       1  UNL1        0.0230
     46 H           3.7032    1.6086    1.4207 H       1  UNL1        0.0282
     47 H           2.4242    2.4782    0.5908 H       1  UNL1        0.0282
     48 HA          2.5796   -0.5972    0.3782 H       1  UNL1        0.0556
     49 H           3.3379    1.4059   -1.6948 H       1  UNL1        0.1234
     50 HA          5.4408    0.5332   -1.7929 H       1  UNL1        0.0576
     51 H           5.0580   -0.2280    1.1444 H       1  UNL1        0.0289
     52 H           5.7607    1.3601    0.4464 H       1  UNL1        0.0289
     53 H           7.0372   -1.4149    0.2805 H       1  UNL1        0.0314
     54 H           7.3601   -0.0715    1.3746 H       1  UNL1        0.0314
     55 H           7.6738   -0.9635   -2.2837 H       1  UNL1        0.0620
     56 H           9.1482    0.2891   -3.7091 H       1  UNL1        0.0618
     57 H          10.2693    2.3668   -2.9010 H       1  UNL1        0.0618
     58 H           9.8591    3.1442   -0.6441 H       1  UNL1        0.0618
     59 H           8.3579    1.8966    0.8360 H       1  UNL1        0.0620
     60 HXT         5.5930   -3.2198   -1.5016 H       1  UNL1        0.2951
     61 H          -1.1749    1.2824   -1.6058 H       1  UNL1        0.0483
     62 H          -1.4221   -0.4620   -1.9140 H       1  UNL1        0.0483
     63 H          -2.2275    1.1720    0.5844 H       1  UNL1        0.0514
     64 H          -3.6276   -0.8976   -1.1892 H       1  UNL1        0.1490
     65 H          -5.8861    0.4106   -1.9107 H       1  UNL1        0.0374
     66 H          -6.1727   -0.6226   -0.5112 H       1  UNL1        0.0374
     67 H          -7.9706    1.0198   -0.9023 H       1  UNL1        0.0466
     68 H          -5.9057    3.1015   -0.6519 H       1  UNL1        0.1185
     69 H          -7.2108    2.8903   -1.6576 H       1  UNL1        0.1185
     70 H          -8.1022    1.7905    1.5089 H       1  UNL1        0.0329
     71 H          -6.4089    1.2214    1.6958 H       1  UNL1        0.0329
     72 H          -5.9032   -1.0205    2.0409 H       1  UNL1        0.0651
     73 H         -10.4339   -2.2967    0.6708 H       1  UNL1        0.0676
     74 H          -2.2745   -1.8402    0.6196 H       1  UNL1        0.0307
     75 H          -1.8674   -0.6353    1.9289 H       1  UNL1        0.0307
     76 HA          0.2914   -0.8788    1.4697 H       1  UNL1        0.0617
     77 HXT         0.4303   -4.3060    0.8646 H       1  UNL1        0.2951
@<TRIPOS>BOND
     1     1     2    1
     2     2     3    1
     3     3     4    1
     4     4     5    1
     5     5     6    1
     6     6     7    1
     7     7     8    1
     8     8     9   ar
     9     9    10   ar
    10    10    11   ar
    11    11    12   ar
    12    12    13   ar
    13     5    14    1
    14    14    15    2
    15    14    16    1
    16     3    17    1
    17    17    18    2
    18    17    19   am
    19    19    20    1
    20    20    21    1
    21    21    22    1
    22    22    23   am
    23    23    24    2
    24    23    25    1
    25    25    26    1
    26    26    27    1
    27    26    28    1
    28    28    29    1
    29    29    30   ar
    30    30    31   ar
    31    31    32    1
    32    31    33   ar
    33    33    34    1
    34    33    35   ar
    35    35    36   ar
    36    36    37    1
    37    21    38    1
    38    38    39    1
    39    39    40    1
    40    40    41    2
    41    40    42    1
    42    13     8   ar
    43    39    19    1
    44    36    29   ar
    45     1    43    1
    46     1    44    1
    47     1    45    1
    48     2    46    1
    49     2    47    1
    50     3    48    1
    51     4    49    1
    52     5    50    1
    53     6    51    1
    54     6    52    1
    55     7    53    1
    56     7    54    1
    57     9    55    1
    58    10    56    1
    59    11    57    1
    60    12    58    1
    61    13    59    1
    62    16    60    1
    63    20    61    1
    64    20    62    1
    65    21    63    1
    66    22    64    1
    67    25    65    1
    68    25    66    1
    69    26    67    1
    70    27    68    1
    71    27    69    1
    72    28    70    1
    73    28    71    1
    74    30    72    1
    75    35    73    1
    76    38    74    1
    77    38    75    1
    78    39    76    1
    79    42    77    1
