@<TRIPOS>MOLECULE
*****
 61 63 0 0 0
SMALL
GASTEIGER

@<TRIPOS>ATOM
      1 C           2.7474    1.4243    1.5113 C.3     1  UNL1       -0.0549
      2 C           2.5178    0.4739    0.3542 C.3     1  UNL1        0.0201
      3 C           2.9994   -0.8864    0.7997 C.3     1  UNL1       -0.0549
      4 C           3.2685    0.9375   -0.8617 C.3     1  UNL1       -0.0179
      5 C           4.7312    1.0091   -0.6352 C.ar    1  UNL1       -0.0467
      6 C           5.4965   -0.1088   -0.9118 C.ar    1  UNL1       -0.0586
      7 C           6.8451   -0.0911   -0.7169 C.ar    1  UNL1       -0.0615
      8 C           7.4299    1.0576   -0.2411 C.ar    1  UNL1       -0.0617
      9 C           6.6833    2.1622    0.0333 C.ar    1  UNL1       -0.0615
     10 C           5.3289    2.1569   -0.1579 C.ar    1  UNL1       -0.0586
     11 C           1.0389    0.4840    0.0477 C.3     1  UNL1        0.1652
     12 O           0.3036    0.0718    1.1457 O.3     1  UNL1       -0.3503
     13 C          -0.9890    0.5413    1.0007 C.3     1  UNL1        0.0564
     14 C          -1.3726    0.5272   -0.4378 C.3     1  UNL1        0.0165
     15 C          -2.8926    0.4807   -0.5315 C.3     1  UNL1       -0.0271
     16 C          -3.4975   -0.6819    0.1230 C.2     1  UNL1       -0.0875
     17 C          -4.3506   -0.4915    1.1158 C.2     1  UNL1       -0.0874
     18 C          -4.7946    0.7645    1.6773 C.3     1  UNL1       -0.0247
     19 C          -6.3009    0.9733    1.5670 C.3     1  UNL1        0.0482
     20 C          -6.7361    0.9605    0.1651 C.2     1  UNL1        0.3050
     21 O          -6.8531   -0.1241   -0.4575 O.2     1  UNL1       -0.2510
     22 O          -7.0177    2.1588   -0.4682 O.3     1  UNL1       -0.4806
     23 C          -0.6269   -0.3355   -1.3573 C.3     1  UNL1        0.0932
     24 C          -1.0392   -1.7192   -1.5431 C.ar    1  UNL1       -0.0003
     25 C          -0.6283   -2.6954   -0.6684 C.ar    1  UNL1       -0.0532
     26 C          -1.0082   -4.0048   -0.8529 C.ar    1  UNL1       -0.0433
     27 C          -1.8053   -4.3671   -1.9128 C.ar    1  UNL1        0.0276
     28 N          -2.1812   -3.3805   -2.7396 N.ar    1  UNL1       -0.2629
     29 C          -1.8383   -2.0925   -2.6031 C.ar    1  UNL1        0.0332
     30 O           0.7344   -0.2506   -1.0801 O.3     1  UNL1       -0.3426
     31 H           2.5618    2.4629    1.2188 H       1  UNL1        0.0237
     32 H           2.0680    1.1024    2.3340 H       1  UNL1        0.0237
     33 H           3.7859    1.2830    1.9281 H       1  UNL1        0.0237
     34 H           2.4689   -1.1620    1.7318 H       1  UNL1        0.0237
     35 H           4.0887   -0.8082    0.9825 H       1  UNL1        0.0237
     36 H           2.7532   -1.6702    0.0518 H       1  UNL1        0.0237
     37 H           3.0137    0.2120   -1.6838 H       1  UNL1        0.0320
     38 H           2.8415    1.9211   -1.1527 H       1  UNL1        0.0320
     39 H           4.9927   -0.9946   -1.2866 H       1  UNL1        0.0620
     40 H           7.4008   -0.9963   -0.9495 H       1  UNL1        0.0618
     41 H           8.5076    1.0943   -0.0776 H       1  UNL1        0.0618
     42 H           7.1474    3.0710    0.4097 H       1  UNL1        0.0618
     43 H           4.7090    3.0318    0.0553 H       1  UNL1        0.0620
     44 H           0.7883    1.5440   -0.1666 H       1  UNL1        0.0915
     45 H          -1.7143    0.0036    1.6527 H       1  UNL1        0.0564
     46 H          -0.9736    1.5846    1.4404 H       1  UNL1        0.0564
     47 H          -1.1358    1.6010   -0.7960 H       1  UNL1        0.0354
     48 H          -3.1710    0.5092   -1.6381 H       1  UNL1        0.0312
     49 H          -3.2383    1.4632   -0.1707 H       1  UNL1        0.0312
     50 H          -3.2719   -1.7242   -0.1799 H       1  UNL1        0.0569
     51 H          -4.7867   -1.4054    1.5831 H       1  UNL1        0.0569
     52 H          -4.6309    0.6727    2.8045 H       1  UNL1        0.0312
     53 H          -4.3237    1.6890    1.4135 H       1  UNL1        0.0312
     54 H          -6.8495    0.2223    2.1888 H       1  UNL1        0.0380
     55 H          -6.5501    1.9590    2.0048 H       1  UNL1        0.0380
     56 H          -6.9857    2.2532   -1.4666 H       1  UNL1        0.2951
     57 H          -0.7125    0.1457   -2.3930 H       1  UNL1        0.0651
     58 H           0.0135   -2.4660    0.2023 H       1  UNL1        0.0622
     59 H          -0.6713   -4.7660   -0.1471 H       1  UNL1        0.0633
     60 H          -2.1169   -5.4105   -2.0724 H       1  UNL1        0.0829
     61 H          -2.2014   -1.3771   -3.3352 H       1  UNL1        0.0833
@<TRIPOS>BOND
     1     1     2    1
     2     2     3    1
     3     2     4    1
     4     4     5    1
     5     5     6   ar
     6     6     7   ar
     7     7     8   ar
     8     8     9   ar
     9     9    10   ar
    10     2    11    1
    11    11    12    1
    12    12    13    1
    13    13    14    1
    14    14    15    1
    15    15    16    1
    16    16    17    2
    17    17    18    1
    18    18    19    1
    19    19    20    1
    20    20    21    2
    21    20    22    1
    22    14    23    1
    23    23    24    1
    24    24    25   ar
    25    25    26   ar
    26    26    27   ar
    27    27    28   ar
    28    28    29   ar
    29    23    30    1
    30    10     5   ar
    31    30    11    1
    32    29    24   ar
    33     1    31    1
    34     1    32    1
    35     1    33    1
    36     3    34    1
    37     3    35    1
    38     3    36    1
    39     4    37    1
    40     4    38    1
    41     6    39    1
    42     7    40    1
    43     8    41    1
    44     9    42    1
    45    10    43    1
    46    11    44    1
    47    13    45    1
    48    13    46    1
    49    14    47    1
    50    15    48    1
    51    15    49    1
    52    16    50    1
    53    17    51    1
    54    18    52    1
    55    18    53    1
    56    19    54    1
    57    19    55    1
    58    22    56    1
    59    23    57    1
    60    25    58    1
    61    26    59    1
    62    27    60    1
    63    29    61    1
