
     RDKit          3D

 33 35  0  0  0  0  0  0  0  0999 V2000
    3.1637    0.2089   -1.4560 C   0  0  2  0  0  0  0  0  0  0  0  0
    2.7352   -0.1410   -2.7343 O   0  0  0  0  0  0  0  0  0  0  0  0
    3.8359   -0.9326   -0.7239 C   0  0  0  0  0  0  0  0  0  0  0  0
    3.5600   -0.5218    0.7203 C   0  0  0  0  0  0  0  0  0  0  0  0
    2.1205   -0.2779    0.6326 N   0  0  0  0  0  0  0  0  0  0  0  0
    0.8095   -0.5057    1.1579 C   0  0  0  0  0  0  0  0  0  0  0  0
    0.5926   -0.9085    2.3283 O   0  0  0  0  0  0  0  0  0  0  0  0
   -0.0677   -0.1727    0.0689 N   0  0  0  0  0  0  0  0  0  0  0  0
    0.6993    0.2363   -1.0564 C   0  0  0  0  0  0  0  0  0  0  0  0
    0.2655    0.2683   -2.2329 O   0  0  0  0  0  0  0  0  0  0  0  0
    2.0598    0.5955   -0.5325 C   0  0  2  0  0  0  0  0  0  0  0  0
   -1.4836   -0.2754    0.2113 C   0  0  0  0  0  0  0  0  0  0  0  0
   -2.2101    0.8097    0.6623 C   0  0  0  0  0  0  0  0  0  0  0  0
   -1.5138    2.0730    0.9950 C   0  0  0  0  0  0  0  0  0  0  0  0
   -3.5778    0.6864    0.7919 C   0  0  0  0  0  0  0  0  0  0  0  0
   -4.4802    2.0822    1.3680 Cl  0  0  0  0  0  0  0  0  0  0  0  0
   -4.2139   -0.4968    0.4783 C   0  0  0  0  0  0  0  0  0  0  0  0
   -3.5131   -1.6170    0.0189 C   0  0  0  0  0  0  0  0  0  0  0  0
   -2.1482   -1.4460   -0.0945 C   0  0  0  0  0  0  0  0  0  0  0  0
   -5.6335   -0.5569    0.6354 C   0  0  0  0  0  0  0  0  0  0  0  0
   -6.7950   -0.5941    0.7805 N   0  0  0  0  0  0  0  0  0  0  0  0
    3.9094    1.0498   -1.4722 H   0  0  0  0  0  0  0  0  0  0  0  0
    3.4765    0.1245   -3.3582 H   0  0  0  0  0  0  0  0  0  0  0  0
    3.2970   -1.8685   -0.9178 H   0  0  0  0  0  0  0  0  0  0  0  0
    4.9195   -0.9892   -0.9409 H   0  0  0  0  0  0  0  0  0  0  0  0
    3.8086   -1.3217    1.4457 H   0  0  0  0  0  0  0  0  0  0  0  0
    4.0191    0.4368    0.9671 H   0  0  0  0  0  0  0  0  0  0  0  0
    2.0461    1.6711   -0.2659 H   0  0  0  0  0  0  0  0  0  0  0  0
   -0.8678    2.0027    1.8973 H   0  0  0  0  0  0  0  0  0  0  0  0
   -0.9300    2.3936    0.0985 H   0  0  0  0  0  0  0  0  0  0  0  0
   -2.2723    2.8655    1.1829 H   0  0  0  0  0  0  0  0  0  0  0  0
   -4.0057   -2.5473   -0.2286 H   0  0  0  0  0  0  0  0  0  0  0  0
   -1.6056   -2.3310   -0.4561 H   0  0  0  0  0  0  0  0  0  0  0  0
  1  2  1  0
  1  3  1  0
  3  4  1  0
  4  5  1  0
  5  6  1  0
  6  7  2  0
  6  8  1  0
  8  9  1  0
  9 10  2  0
  9 11  1  0
  8 12  1  0
 12 13  2  0
 13 14  1  0
 13 15  1  0
 15 16  1  0
 15 17  2  0
 17 18  1  0
 18 19  2  0
 17 20  1  0
 20 21  3  0
 11  1  1  0
 19 12  1  0
 11  5  1  0
  1 22  1  6
  2 23  1  0
  3 24  1  0
  3 25  1  0
  4 26  1  0
  4 27  1  0
 11 28  1  1
 14 29  1  0
 14 30  1  0
 14 31  1  0
 18 32  1  0
 19 33  1  0
M  END
$$$$
