
     RDKit          3D

 67 71  0  0  0  0  0  0  0  0999 V2000
  -10.0641   -1.9550    1.2187 C   0  0  0  0  0  0  0  0  0  0  0  0
   -8.8185   -1.3546    1.4922 O   0  0  0  0  0  0  0  0  0  0  0  0
   -8.1339   -0.5894    0.5574 C   0  0  0  0  0  0  0  0  0  0  0  0
   -8.5251   -0.3073   -0.7164 N   0  0  0  0  0  0  0  0  0  0  0  0
   -7.6193    0.4460   -1.3038 N   0  0  0  0  0  0  0  0  0  0  0  0
   -7.6560    0.9604   -2.6592 C   0  0  0  0  0  0  0  0  0  0  0  0
   -6.6025    0.6929   -0.4544 C   0  0  0  0  0  0  0  0  0  0  0  0
   -6.9265    0.0403    0.7157 C   0  0  0  0  0  0  0  0  0  0  0  0
   -6.1281    0.0118    1.8831 N   0  0  0  0  0  0  0  0  0  0  0  0
   -4.9203    0.7559    1.8946 C   0  0  0  0  0  0  0  0  0  0  0  0
   -4.9379    1.9286    2.5444 N   0  0  0  0  0  0  0  0  0  0  0  0
   -3.8436    2.7008    2.5869 C   0  0  0  0  0  0  0  0  0  0  0  0
   -2.7038    2.2562    1.9462 C   0  0  0  0  0  0  0  0  0  0  0  0
   -1.5671    2.9845    1.9522 F   0  0  0  0  0  0  0  0  0  0  0  0
   -2.6794    1.0518    1.2763 C   0  0  0  0  0  0  0  0  0  0  0  0
   -1.4694    0.6199    0.5930 C   0  0  0  0  0  0  0  0  0  0  0  0
   -0.7289    1.3602   -0.3315 C   0  0  0  0  0  0  0  0  0  0  0  0
    0.3203    0.6459   -0.7492 N   0  0  0  0  0  0  0  0  0  0  0  0
    0.3326   -0.5598   -0.1490 C   0  0  0  0  0  0  0  0  0  0  0  0
    1.1859   -1.6475   -0.2331 C   0  0  0  0  0  0  0  0  0  0  0  0
    2.2919   -1.5172   -1.1098 N   0  0  0  0  0  0  0  0  0  0  0  0
    3.5209   -0.9820   -0.5737 C   0  0  0  0  0  0  0  0  0  0  0  0
    3.5143   -0.6773    0.6398 O   0  0  0  0  0  0  0  0  0  0  0  0
    4.6654   -0.8347   -1.4686 C   0  0  1  0  0  0  0  0  0  0  0  0
    4.3082   -0.0823   -2.7300 C   0  0  0  0  0  0  0  0  0  0  0  0
    5.8006   -0.2931   -0.7913 N   0  0  0  0  0  0  0  0  0  0  0  0
    6.9482   -0.1375   -1.6667 C   0  0  0  0  0  0  0  0  0  0  0  0
    8.1864   -0.2313   -0.8038 C   0  0  0  0  0  0  0  0  0  0  0  0
    8.0266    0.6855    0.3072 N   0  0  0  0  0  0  0  0  0  0  0  0
    8.0066    0.0112    1.5888 C   0  0  0  0  0  0  0  0  0  0  0  0
    6.9447    1.6047    0.1172 C   0  0  0  0  0  0  0  0  0  0  0  0
    5.5973    0.8864   -0.0290 C   0  0  0  0  0  0  0  0  0  0  0  0
    0.9129   -2.7533    0.5287 C   0  0  0  0  0  0  0  0  0  0  0  0
   -0.1921   -2.7677    1.3568 C   0  0  0  0  0  0  0  0  0  0  0  0
   -1.0452   -1.6897    1.4460 C   0  0  0  0  0  0  0  0  0  0  0  0
   -0.7864   -0.5705    0.6884 C   0  0  0  0  0  0  0  0  0  0  0  0
   -3.7967    0.3067    1.2574 N   0  0  0  0  0  0  0  0  0  0  0  0
  -10.0290   -2.6595    0.3831 H   0  0  0  0  0  0  0  0  0  0  0  0
  -10.7902   -1.1114    1.0570 H   0  0  0  0  0  0  0  0  0  0  0  0
  -10.3705   -2.4719    2.1500 H   0  0  0  0  0  0  0  0  0  0  0  0
   -6.6704    0.8545   -3.1614 H   0  0  0  0  0  0  0  0  0  0  0  0
   -7.8744    2.0411   -2.6570 H   0  0  0  0  0  0  0  0  0  0  0  0
   -8.3696    0.3432   -3.2290 H   0  0  0  0  0  0  0  0  0  0  0  0
   -5.7172    1.2922   -0.6824 H   0  0  0  0  0  0  0  0  0  0  0  0
   -6.3793   -0.5269    2.7340 H   0  0  0  0  0  0  0  0  0  0  0  0
   -3.8362    3.6479    3.1046 H   0  0  0  0  0  0  0  0  0  0  0  0
   -1.0097    2.3465   -0.6255 H   0  0  0  0  0  0  0  0  0  0  0  0
    1.0602    0.9463   -1.4519 H   0  0  0  0  0  0  0  0  0  0  0  0
    2.2168   -1.8061   -2.1195 H   0  0  0  0  0  0  0  0  0  0  0  0
    4.9600   -1.8652   -1.8087 H   0  0  0  0  0  0  0  0  0  0  0  0
    3.2246   -0.2405   -2.9165 H   0  0  0  0  0  0  0  0  0  0  0  0
    4.4374    1.0146   -2.6425 H   0  0  0  0  0  0  0  0  0  0  0  0
    4.8439   -0.5021   -3.6036 H   0  0  0  0  0  0  0  0  0  0  0  0
    6.9385   -0.8810   -2.4917 H   0  0  0  0  0  0  0  0  0  0  0  0
    6.9420    0.8619   -2.1423 H   0  0  0  0  0  0  0  0  0  0  0  0
    8.2367   -1.2717   -0.4093 H   0  0  0  0  0  0  0  0  0  0  0  0
    9.1184   -0.0621   -1.3847 H   0  0  0  0  0  0  0  0  0  0  0  0
    8.8325    0.4531    2.1929 H   0  0  0  0  0  0  0  0  0  0  0  0
    8.2728   -1.0621    1.4179 H   0  0  0  0  0  0  0  0  0  0  0  0
    7.0337    0.0791    2.0867 H   0  0  0  0  0  0  0  0  0  0  0  0
    7.1626    2.2838   -0.7142 H   0  0  0  0  0  0  0  0  0  0  0  0
    6.9313    2.2586    1.0313 H   0  0  0  0  0  0  0  0  0  0  0  0
    5.2592    0.7345    1.0188 H   0  0  0  0  0  0  0  0  0  0  0  0
    4.9207    1.6261   -0.5080 H   0  0  0  0  0  0  0  0  0  0  0  0
    1.5698   -3.5979    0.4680 H   0  0  0  0  0  0  0  0  0  0  0  0
   -0.4277   -3.6352    1.9698 H   0  0  0  0  0  0  0  0  0  0  0  0
   -1.9047   -1.7470    2.1124 H   0  0  0  0  0  0  0  0  0  0  0  0
  1  2  1  0
  2  3  1  0
  3  4  2  0
  4  5  1  0
  5  6  1  0
  5  7  1  0
  7  8  2  0
  8  9  1  0
  9 10  1  0
 10 11  2  0
 11 12  1  0
 12 13  2  0
 13 14  1  0
 13 15  1  0
 15 16  1  0
 16 17  2  0
 17 18  1  0
 18 19  1  0
 19 20  2  0
 20 21  1  0
 21 22  1  0
 22 23  2  0
 22 24  1  0
 24 25  1  0
 24 26  1  0
 26 27  1  0
 27 28  1  0
 28 29  1  0
 29 30  1  0
 29 31  1  0
 31 32  1  0
 20 33  1  0
 33 34  2  0
 34 35  1  0
 35 36  2  0
 15 37  2  0
  8  3  1  0
 37 10  1  0
 36 16  1  0
 36 19  1  0
 32 26  1  0
  1 38  1  0
  1 39  1  0
  1 40  1  0
  6 41  1  0
  6 42  1  0
  6 43  1  0
  7 44  1  0
  9 45  1  0
 12 46  1  0
 17 47  1  0
 18 48  1  0
 21 49  1  0
 24 50  1  6
 25 51  1  0
 25 52  1  0
 25 53  1  0
 27 54  1  0
 27 55  1  0
 28 56  1  0
 28 57  1  0
 30 58  1  0
 30 59  1  0
 30 60  1  0
 31 61  1  0
 31 62  1  0
 32 63  1  0
 32 64  1  0
 33 65  1  0
 34 66  1  0
 35 67  1  0
M  END
$$$$
