@<TRIPOS>MOLECULE
*****
 67 71 0 0 0
SMALL
GASTEIGER

@<TRIPOS>ATOM
      1 C         -10.0641   -1.9550    1.2187 C.3     1  UNL1        0.0805
      2 O          -8.8185   -1.3546    1.4922 O.3     1  UNL1       -0.4774
      3 C          -8.1339   -0.5894    0.5574 C.ar    1  UNL1        0.2552
      4 N          -8.5251   -0.3073   -0.7164 N.ar    1  UNL1       -0.1317
      5 N          -7.6193    0.4460   -1.3038 N.ar    1  UNL1       -0.2692
      6 C          -7.6560    0.9604   -2.6592 C.3     1  UNL1        0.0304
      7 C          -6.6025    0.6929   -0.4544 C.ar    1  UNL1        0.0503
      8 C          -6.9265    0.0403    0.7157 C.ar    1  UNL1        0.1152
      9 N          -6.1281    0.0118    1.8831 N.pl3   1  UNL1       -0.2782
     10 C          -4.9203    0.7559    1.8946 C.ar    1  UNL1        0.2203
     11 N          -4.9379    1.9286    2.5444 N.ar    1  UNL1       -0.2198
     12 C          -3.8436    2.7008    2.5869 C.ar    1  UNL1        0.0685
     13 C          -2.7038    2.2562    1.9462 C.ar    1  UNL1        0.1674
     14 F          -1.5671    2.9845    1.9522 F       1  UNL1       -0.2016
     15 C          -2.6794    1.0518    1.2763 C.ar    1  UNL1        0.1132
     16 C          -1.4694    0.6199    0.5930 C.ar    1  UNL1        0.0284
     17 C          -0.7289    1.3602   -0.3315 C.ar    1  UNL1        0.0121
     18 N           0.3203    0.6459   -0.7492 N.ar    1  UNL1       -0.3586
     19 C           0.3326   -0.5598   -0.1490 C.ar    1  UNL1        0.0686
     20 C           1.1859   -1.6475   -0.2331 C.ar    1  UNL1        0.0576
     21 N           2.2919   -1.5172   -1.1098 N.am    1  UNL1       -0.2825
     22 C           3.5209   -0.9820   -0.5737 C.2     1  UNL1        0.2342
     23 O           3.5143   -0.6773    0.6398 O.2     1  UNL1       -0.2738
     24 C           4.6654   -0.8347   -1.4686 C.3     1  UNL1        0.0848
     25 C           4.3082   -0.0823   -2.7300 C.3     1  UNL1       -0.0409
     26 N           5.8006   -0.2931   -0.7913 N.3     1  UNL1       -0.2893
     27 C           6.9482   -0.1375   -1.6667 C.3     1  UNL1        0.0124
     28 C           8.1864   -0.2313   -0.8038 C.3     1  UNL1        0.0114
     29 N           8.0266    0.6855    0.3072 N.3     1  UNL1       -0.3029
     30 C           8.0066    0.0112    1.5888 C.3     1  UNL1       -0.0127
     31 C           6.9447    1.6047    0.1172 C.3     1  UNL1        0.0114
     32 C           5.5973    0.8864   -0.0290 C.3     1  UNL1        0.0124
     33 C           0.9129   -2.7533    0.5287 C.ar    1  UNL1       -0.0384
     34 C          -0.1921   -2.7677    1.3568 C.ar    1  UNL1       -0.0593
     35 C          -1.0452   -1.6897    1.4460 C.ar    1  UNL1       -0.0518
     36 C          -0.7864   -0.5705    0.6884 C.ar    1  UNL1        0.0107
     37 N          -3.7967    0.3067    1.2574 N.ar    1  UNL1       -0.2113
     38 H         -10.0290   -2.6595    0.3831 H       1  UNL1        0.0660
     39 H         -10.7902   -1.1114    1.0570 H       1  UNL1        0.0660
     40 H         -10.3705   -2.4719    2.1500 H       1  UNL1        0.0660
     41 H          -6.6704    0.8545   -3.1614 H       1  UNL1        0.0473
     42 H          -7.8744    2.0411   -2.6570 H       1  UNL1        0.0473
     43 H          -8.3696    0.3432   -3.2290 H       1  UNL1        0.0473
     44 H          -5.7172    1.2922   -0.6824 H       1  UNL1        0.0846
     45 H          -6.3793   -0.5269    2.7340 H       1  UNL1        0.1552
     46 H          -3.8362    3.6479    3.1046 H       1  UNL1        0.0861
     47 H          -1.0097    2.3465   -0.6255 H       1  UNL1        0.0814
     48 H           1.0602    0.9463   -1.4519 H       1  UNL1        0.1654
     49 H           2.2168   -1.8061   -2.1195 H       1  UNL1        0.1549
     50 H           4.9600   -1.8652   -1.8087 H       1  UNL1        0.0556
     51 H           3.2246   -0.2405   -2.9165 H       1  UNL1        0.0249
     52 H           4.4374    1.0146   -2.6425 H       1  UNL1        0.0249
     53 H           4.8439   -0.5021   -3.6036 H       1  UNL1        0.0249
     54 H           6.9385   -0.8810   -2.4917 H       1  UNL1        0.0439
     55 H           6.9420    0.8619   -2.1423 H       1  UNL1        0.0439
     56 H           8.2367   -1.2717   -0.4093 H       1  UNL1        0.0439
     57 H           9.1184   -0.0621   -1.3847 H       1  UNL1        0.0439
     58 H           8.8325    0.4531    2.1929 H       1  UNL1        0.0391
     59 H           8.2728   -1.0621    1.4179 H       1  UNL1        0.0391
     60 H           7.0337    0.0791    2.0867 H       1  UNL1        0.0391
     61 H           7.1626    2.2838   -0.7142 H       1  UNL1        0.0439
     62 H           6.9313    2.2586    1.0313 H       1  UNL1        0.0439
     63 H           5.2592    0.7345    1.0188 H       1  UNL1        0.0439
     64 H           4.9207    1.6261   -0.5080 H       1  UNL1        0.0439
     65 H           1.5698   -3.5979    0.4680 H       1  UNL1        0.0637
     66 H          -0.4277   -3.6352    1.9698 H       1  UNL1        0.0618
     67 H          -1.9047   -1.7470    2.1124 H       1  UNL1        0.0624
@<TRIPOS>BOND
     1     1     2    1
     2     2     3    1
     3     3     4   ar
     4     4     5   ar
     5     5     6    1
     6     5     7   ar
     7     7     8   ar
     8     8     9    1
     9     9    10    1
    10    10    11   ar
    11    11    12   ar
    12    12    13   ar
    13    13    14    1
    14    13    15   ar
    15    15    16    1
    16    16    17   ar
    17    17    18   ar
    18    18    19   ar
    19    19    20   ar
    20    20    21    1
    21    21    22   am
    22    22    23    2
    23    22    24    1
    24    24    25    1
    25    24    26    1
    26    26    27    1
    27    27    28    1
    28    28    29    1
    29    29    30    1
    30    29    31    1
    31    31    32    1
    32    20    33   ar
    33    33    34   ar
    34    34    35   ar
    35    35    36   ar
    36    15    37   ar
    37     8     3   ar
    38    37    10   ar
    39    36    16   ar
    40    36    19   ar
    41    32    26    1
    42     1    38    1
    43     1    39    1
    44     1    40    1
    45     6    41    1
    46     6    42    1
    47     6    43    1
    48     7    44    1
    49     9    45    1
    50    12    46    1
    51    17    47    1
    52    18    48    1
    53    21    49    1
    54    24    50    1
    55    25    51    1
    56    25    52    1
    57    25    53    1
    58    27    54    1
    59    27    55    1
    60    28    56    1
    61    28    57    1
    62    30    58    1
    63    30    59    1
    64    30    60    1
    65    31    61    1
    66    31    62    1
    67    32    63    1
    68    32    64    1
    69    33    65    1
    70    34    66    1
    71    35    67    1
