@<TRIPOS>MOLECULE
*****
 42 46 0 0 0
SMALL
GASTEIGER

@<TRIPOS>ATOM
      1 F           5.4843   -3.1308   -0.6753 F       1  UNL1       -0.2040
      2 C           4.6113   -2.1355   -0.4793 C.ar    1  UNL1        0.1417
      3 C           4.5984   -0.9536   -1.1910 C.ar    1  UNL1       -0.0244
      4 C           3.6694    0.0269   -0.9354 C.ar    1  UNL1       -0.0497
      5 C           2.7112   -0.1491    0.0553 C.ar    1  UNL1        0.0040
      6 C           1.7477    0.9355    0.2770 C.ar    1  UNL1        0.0968
      7 N           1.9647    2.2071    0.6607 N.ar    1  UNL1       -0.2351
      8 C           0.7465    2.8171    0.7227 C.ar    1  UNL1        0.0973
      9 N          -0.2196    1.9444    0.3840 N.ar    1  UNL1       -0.3261
     10 C          -1.6542    2.1803    0.3177 C.3     1  UNL1        0.0468
     11 C          -1.8674    3.5311   -0.3783 C.3     1  UNL1        0.0319
     12 C          -2.9005    3.8745    0.6671 C.3     1  UNL1        0.2527
     13 F          -4.1654    3.5778    0.1840 F       1  UNL1       -0.2055
     14 F          -2.8160    5.1265    1.2008 F       1  UNL1       -0.2055
     15 C          -2.2897    2.7714    1.5269 C.3     1  UNL1        0.0319
     16 C           0.3782    0.7698    0.1033 C.ar    1  UNL1        0.0781
     17 C          -0.2756   -0.4599   -0.3089 C.ar    1  UNL1        0.0172
     18 C          -0.0362   -1.0364   -1.5427 C.ar    1  UNL1       -0.0477
     19 C          -0.6646   -2.2033   -1.9137 C.ar    1  UNL1       -0.0182
     20 C          -1.5513   -2.8296   -1.0622 C.ar    1  UNL1        0.1375
     21 N          -2.2791   -3.9634   -1.1971 N.ar    1  UNL1       -0.2361
     22 C          -2.9873   -4.1369   -0.0771 C.ar    1  UNL1        0.0464
     23 C          -2.6697   -3.0742    0.7464 C.ar    1  UNL1        0.0293
     24 N          -1.7823   -2.2774    0.1234 N.ar    1  UNL1       -0.3060
     25 C          -1.1779   -1.1316    0.5109 C.ar    1  UNL1        0.0204
     26 C           2.7073   -1.3084    0.7686 C.ar    1  UNL1       -0.0313
     27 C           3.6437   -2.2808    0.5012 C.ar    1  UNL1        0.0767
     28 CL          3.6122   -3.7765    1.4482 Cl      1  UNL1       -0.0806
     29 H           5.3546   -0.8244   -1.9674 H       1  UNL1        0.0647
     30 H           3.6996    0.9440   -1.5237 H       1  UNL1        0.0625
     31 H           0.5707    3.8511    1.0027 H       1  UNL1        0.1029
     32 H          -2.2084    1.4038   -0.2236 H       1  UNL1        0.0532
     33 H          -0.9958    4.2170   -0.2847 H       1  UNL1        0.0343
     34 H          -2.2166    3.4616   -1.4126 H       1  UNL1        0.0343
     35 H          -1.6132    3.1182    2.3124 H       1  UNL1        0.0343
     36 H          -3.1188    2.1360    1.9117 H       1  UNL1        0.0343
     37 H           0.6706   -0.5175   -2.1933 H       1  UNL1        0.0626
     38 H          -0.4636   -2.6372   -2.8809 H       1  UNL1        0.0654
     39 H          -3.6706   -4.9605    0.1209 H       1  UNL1        0.0845
     40 H          -3.0862   -2.9373    1.7268 H       1  UNL1        0.0829
     41 H          -1.4128   -0.7442    1.4818 H       1  UNL1        0.0820
     42 H           1.9528   -1.4258    1.5360 H       1  UNL1        0.0640
@<TRIPOS>BOND
     1     1     2    1
     2     2     3   ar
     3     3     4   ar
     4     4     5   ar
     5     5     6    1
     6     6     7   ar
     7     7     8   ar
     8     8     9   ar
     9     9    10    1
    10    10    11    1
    11    11    12    1
    12    12    13    1
    13    12    14    1
    14    12    15    1
    15     9    16   ar
    16    16    17    1
    17    17    18   ar
    18    18    19   ar
    19    19    20   ar
    20    20    21   ar
    21    21    22   ar
    22    22    23   ar
    23    23    24   ar
    24    24    25   ar
    25     5    26   ar
    26    26    27   ar
    27    27    28    1
    28    27     2   ar
    29    16     6   ar
    30    25    17   ar
    31    15    10    1
    32    24    20   ar
    33     3    29    1
    34     4    30    1
    35     8    31    1
    36    10    32    1
    37    11    33    1
    38    11    34    1
    39    15    35    1
    40    15    36    1
    41    18    37    1
    42    19    38    1
    43    22    39    1
    44    23    40    1
    45    25    41    1
    46    26    42    1
