@<TRIPOS>MOLECULE
*****
 63 68 0 0 0
SMALL
GASTEIGER

@<TRIPOS>ATOM
      1 C          -0.2663   -0.1970   -1.9207 C.3     1  UNL1       -0.0351
      2 C          -0.1578   -1.4356   -0.9179 C.3     1  UNL1        0.0935
      3 C           1.2908   -1.7015   -0.8822 C.ar    1  UNL1        0.0158
      4 C           2.2635   -0.8355   -0.8606 C.ar    1  UNL1       -0.0463
      5 C           3.5880   -1.0067   -0.6384 C.ar    1  UNL1       -0.0217
      6 C           4.5454    0.0154   -0.4723 C.2     1  UNL1       -0.0172
      7 C           5.8359    0.0956   -0.7111 C.2     1  UNL1        0.1492
      8 F           6.4412   -0.9503   -1.2304 F       1  UNL1       -0.2032
      9 C           6.5690    1.3115   -0.2414 C.ar    1  UNL1        0.0990
     10 C           5.9505    2.1564    0.6047 C.ar    1  UNL1       -0.0322
     11 C           6.5977    3.2600    1.1345 C.ar    1  UNL1       -0.0408
     12 C           7.8315    3.5408    0.8449 C.ar    1  UNL1        0.0699
     13 C           8.5817    4.5219    1.5709 C.1     1  UNL1        0.1007
     14 N           9.2205    5.3839    2.1845 N.1     1  UNL1       -0.1908
     15 C           8.5842    2.6572   -0.1052 C.ar    1  UNL1        0.0457
     16 N           7.8243    1.5876   -0.5551 N.ar    1  UNL1       -0.2514
     17 C           3.9820   -2.3692   -0.4009 C.ar    1  UNL1       -0.0518
     18 C           2.9835   -3.2710   -0.4191 C.ar    1  UNL1       -0.0255
     19 C           1.6872   -3.1405   -0.6240 C.ar    1  UNL1        0.1289
     20 F           0.6819   -4.0056   -0.6442 F       1  UNL1       -0.2051
     21 N          -0.7977   -2.4564   -1.7670 N.2     1  UNL1       -0.2521
     22 C          -1.7199   -3.0915   -1.5877 C.2     1  UNL1        0.1485
     23 N          -2.4097   -4.1337   -2.3882 N.pl3   1  UNL1       -0.3380
     24 S          -2.7080   -2.9214   -0.0285 S.3     1  UNL1       -0.0746
     25 C          -2.0136   -1.4704    0.8054 C.3     1  UNL1        0.1054
     26 C          -2.9720   -0.6053    1.5490 C.2     1  UNL1        0.2326
     27 O          -3.0868   -0.7831    2.8054 O.2     1  UNL1       -0.2741
     28 N          -3.7787    0.4044    0.9894 N.am    1  UNL1       -0.2952
     29 C          -3.5961    0.6845   -0.4160 C.3     1  UNL1        0.0383
     30 C          -4.7448    1.4931   -0.9863 C.3     1  UNL1        0.0644
     31 O          -5.9559    1.2230   -0.4028 O.3     1  UNL1       -0.3657
     32 C          -6.0404    1.2784    0.9387 C.3     1  UNL1        0.1313
     33 C          -7.0141    2.2377    1.6069 C.3     1  UNL1        0.0804
     34 O          -7.3399    1.1846    2.5324 O.3     1  UNL1       -0.3738
     35 C          -7.0285    0.2447    1.4961 C.3     1  UNL1        0.0804
     36 C          -4.7348    1.1854    1.7303 C.3     1  UNL1        0.0482
     37 C          -0.7448   -1.8710    1.6114 C.3     1  UNL1       -0.0220
     38 C          -0.6991   -1.0493    0.3675 C.3     1  UNL1        0.0134
     39 H           0.0158   -0.6097   -2.9272 H       1  UNL1        0.0256
     40 H          -1.3345    0.0488   -1.9396 H       1  UNL1        0.0256
     41 H           0.4119    0.5662   -1.5859 H       1  UNL1        0.0256
     42 H           2.0441    0.2875   -1.0218 H       1  UNL1        0.0628
     43 H           4.0928    0.9926   -0.0976 H       1  UNL1        0.0653
     44 H           4.9332    1.9897    0.9319 H       1  UNL1        0.0640
     45 H           6.0152    3.9212    1.8238 H       1  UNL1        0.0631
     46 H           9.5233    2.8998   -0.3491 H       1  UNL1        0.0843
     47 H           5.0143   -2.5428   -0.2294 H       1  UNL1        0.0624
     48 H           3.3391   -4.3538   -0.1975 H       1  UNL1        0.0646
     49 H          -2.5690   -5.0743   -1.9951 H       1  UNL1        0.1442
     50 H          -2.7126   -3.8834   -3.3313 H       1  UNL1        0.1442
     51 H          -3.5114   -0.2889   -0.9719 H       1  UNL1        0.0487
     52 H          -2.6703    1.2718   -0.4955 H       1  UNL1        0.0487
     53 H          -4.8353    1.1881   -2.0764 H       1  UNL1        0.0576
     54 H          -4.4893    2.5774   -0.8891 H       1  UNL1        0.0576
     55 H          -6.5884    3.0404    2.1960 H       1  UNL1        0.0590
     56 H          -7.9325    2.4784    1.0839 H       1  UNL1        0.0590
     57 H          -7.9078    0.0978    0.8504 H       1  UNL1        0.0590
     58 H          -6.5901   -0.6404    1.9456 H       1  UNL1        0.0590
     59 H          -4.9636    0.8275    2.7268 H       1  UNL1        0.0494
     60 H          -4.3007    2.2252    1.7548 H       1  UNL1        0.0494
     61 H          -0.4606   -2.9159    1.6736 H       1  UNL1        0.0287
     62 H          -0.6889   -1.3338    2.6241 H       1  UNL1        0.0287
     63 H          -0.4847    0.0597    0.6009 H       1  UNL1        0.0346
@<TRIPOS>BOND
     1     2     1    1
     2     2     3    1
     3     3     4   ar
     4     4     5   ar
     5     5     6    1
     6     6     7    2
     7     7     8    1
     8     7     9    1
     9     9    10   ar
    10    10    11   ar
    11    11    12   ar
    12    12    13    1
    13    13    14    3
    14    12    15   ar
    15    15    16   ar
    16     5    17   ar
    17    17    18   ar
    18    18    19   ar
    19    19    20    1
    20     2    21    1
    21    21    22    2
    22    22    23    1
    23    22    24    1
    24    24    25    1
    25    25    26    1
    26    26    27    2
    27    26    28   am
    28    28    29    1
    29    29    30    1
    30    30    31    1
    31    31    32    1
    32    32    33    1
    33    33    34    1
    34    34    35    1
    35    32    36    1
    36    25    37    1
    37    37    38    1
    38    38     2    1
    39    19     3   ar
    40    38    25    1
    41    16     9   ar
    42    36    28    1
    43    35    32    1
    44     1    39    1
    45     1    40    1
    46     1    41    1
    47     4    42    1
    48     6    43    1
    49    10    44    1
    50    11    45    1
    51    15    46    1
    52    17    47    1
    53    18    48    1
    54    23    49    1
    55    23    50    1
    56    29    51    1
    57    29    52    1
    58    30    53    1
    59    30    54    1
    60    33    55    1
    61    33    56    1
    62    35    57    1
    63    35    58    1
    64    36    59    1
    65    36    60    1
    66    37    61    1
    67    37    62    1
    68    38    63    1
