
     RDKit          3D

 63 68  0  0  0  0  0  0  0  0999 V2000
   -0.2663   -0.1970   -1.9207 C   0  0  0  0  0  0  0  0  0  0  0  0
   -0.1578   -1.4356   -0.9179 C   0  0  2  0  0  0  0  0  0  0  0  0
    1.2908   -1.7015   -0.8822 C   0  0  0  0  0  0  0  0  0  0  0  0
    2.2635   -0.8355   -0.8606 C   0  0  0  0  0  0  0  0  0  0  0  0
    3.5880   -1.0067   -0.6384 C   0  0  0  0  0  0  0  0  0  0  0  0
    4.5454    0.0154   -0.4723 C   0  0  0  0  0  0  0  0  0  0  0  0
    5.8359    0.0956   -0.7111 C   0  0  0  0  0  0  0  0  0  0  0  0
    6.4412   -0.9503   -1.2304 F   0  0  0  0  0  0  0  0  0  0  0  0
    6.5690    1.3115   -0.2414 C   0  0  0  0  0  0  0  0  0  0  0  0
    5.9505    2.1564    0.6047 C   0  0  0  0  0  0  0  0  0  0  0  0
    6.5977    3.2600    1.1345 C   0  0  0  0  0  0  0  0  0  0  0  0
    7.8315    3.5408    0.8449 C   0  0  0  0  0  0  0  0  0  0  0  0
    8.5817    4.5219    1.5709 C   0  0  0  0  0  0  0  0  0  0  0  0
    9.2205    5.3839    2.1845 N   0  0  0  0  0  0  0  0  0  0  0  0
    8.5842    2.6572   -0.1052 C   0  0  0  0  0  0  0  0  0  0  0  0
    7.8243    1.5876   -0.5551 N   0  0  0  0  0  0  0  0  0  0  0  0
    3.9820   -2.3692   -0.4009 C   0  0  0  0  0  0  0  0  0  0  0  0
    2.9835   -3.2710   -0.4191 C   0  0  0  0  0  0  0  0  0  0  0  0
    1.6872   -3.1405   -0.6240 C   0  0  0  0  0  0  0  0  0  0  0  0
    0.6819   -4.0056   -0.6442 F   0  0  0  0  0  0  0  0  0  0  0  0
   -0.7977   -2.4564   -1.7670 N   0  0  0  0  0  0  0  0  0  0  0  0
   -1.7199   -3.0915   -1.5877 C   0  0  0  0  0  0  0  0  0  0  0  0
   -2.4097   -4.1337   -2.3882 N   0  0  0  0  0  0  0  0  0  0  0  0
   -2.7080   -2.9214   -0.0285 S   0  0  0  0  0  0  0  0  0  0  0  0
   -2.0136   -1.4704    0.8054 C   0  0  1  0  0  0  0  0  0  0  0  0
   -2.9720   -0.6053    1.5490 C   0  0  0  0  0  0  0  0  0  0  0  0
   -3.0868   -0.7831    2.8054 O   0  0  0  0  0  0  0  0  0  0  0  0
   -3.7787    0.4044    0.9894 N   0  0  0  0  0  0  0  0  0  0  0  0
   -3.5961    0.6845   -0.4160 C   0  0  0  0  0  0  0  0  0  0  0  0
   -4.7448    1.4931   -0.9863 C   0  0  0  0  0  0  0  0  0  0  0  0
   -5.9559    1.2230   -0.4028 O   0  0  0  0  0  0  0  0  0  0  0  0
   -6.0404    1.2784    0.9387 C   0  0  0  0  0  0  0  0  0  0  0  0
   -7.0141    2.2377    1.6069 C   0  0  0  0  0  0  0  0  0  0  0  0
   -7.3399    1.1846    2.5324 O   0  0  0  0  0  0  0  0  0  0  0  0
   -7.0285    0.2447    1.4961 C   0  0  0  0  0  0  0  0  0  0  0  0
   -4.7348    1.1854    1.7303 C   0  0  0  0  0  0  0  0  0  0  0  0
   -0.7448   -1.8710    1.6114 C   0  0  0  0  0  0  0  0  0  0  0  0
   -0.6991   -1.0493    0.3675 C   0  0  1  0  0  0  0  0  0  0  0  0
    0.0158   -0.6097   -2.9272 H   0  0  0  0  0  0  0  0  0  0  0  0
   -1.3345    0.0488   -1.9396 H   0  0  0  0  0  0  0  0  0  0  0  0
    0.4119    0.5662   -1.5859 H   0  0  0  0  0  0  0  0  0  0  0  0
    2.0441    0.2875   -1.0218 H   0  0  0  0  0  0  0  0  0  0  0  0
    4.0928    0.9926   -0.0976 H   0  0  0  0  0  0  0  0  0  0  0  0
    4.9332    1.9897    0.9319 H   0  0  0  0  0  0  0  0  0  0  0  0
    6.0152    3.9212    1.8238 H   0  0  0  0  0  0  0  0  0  0  0  0
    9.5233    2.8998   -0.3491 H   0  0  0  0  0  0  0  0  0  0  0  0
    5.0143   -2.5428   -0.2294 H   0  0  0  0  0  0  0  0  0  0  0  0
    3.3391   -4.3538   -0.1975 H   0  0  0  0  0  0  0  0  0  0  0  0
   -2.5690   -5.0743   -1.9951 H   0  0  0  0  0  0  0  0  0  0  0  0
   -2.7126   -3.8834   -3.3313 H   0  0  0  0  0  0  0  0  0  0  0  0
   -3.5114   -0.2889   -0.9719 H   0  0  0  0  0  0  0  0  0  0  0  0
   -2.6703    1.2718   -0.4955 H   0  0  0  0  0  0  0  0  0  0  0  0
   -4.8353    1.1881   -2.0764 H   0  0  0  0  0  0  0  0  0  0  0  0
   -4.4893    2.5774   -0.8891 H   0  0  0  0  0  0  0  0  0  0  0  0
   -6.5884    3.0404    2.1960 H   0  0  0  0  0  0  0  0  0  0  0  0
   -7.9325    2.4784    1.0839 H   0  0  0  0  0  0  0  0  0  0  0  0
   -7.9078    0.0978    0.8504 H   0  0  0  0  0  0  0  0  0  0  0  0
   -6.5901   -0.6404    1.9456 H   0  0  0  0  0  0  0  0  0  0  0  0
   -4.9636    0.8275    2.7268 H   0  0  0  0  0  0  0  0  0  0  0  0
   -4.3007    2.2252    1.7548 H   0  0  0  0  0  0  0  0  0  0  0  0
   -0.4606   -2.9159    1.6736 H   0  0  0  0  0  0  0  0  0  0  0  0
   -0.6889   -1.3338    2.6241 H   0  0  0  0  0  0  0  0  0  0  0  0
   -0.4847    0.0597    0.6009 H   0  0  0  0  0  0  0  0  0  0  0  0
  2  1  1  6
  2  3  1  0
  3  4  2  0
  4  5  1  0
  5  6  1  0
  6  7  2  0
  7  8  1  0
  7  9  1  0
  9 10  2  0
 10 11  1  0
 11 12  2  0
 12 13  1  0
 13 14  3  0
 12 15  1  0
 15 16  2  0
  5 17  2  0
 17 18  1  0
 18 19  2  0
 19 20  1  0
  2 21  1  0
 21 22  2  0
 22 23  1  0
 22 24  1  0
 24 25  1  0
 25 26  1  1
 26 27  2  0
 26 28  1  0
 28 29  1  0
 29 30  1  0
 30 31  1  0
 31 32  1  0
 32 33  1  0
 33 34  1  0
 34 35  1  0
 32 36  1  0
 25 37  1  0
 37 38  1  0
 38  2  1  0
 19  3  1  0
 38 25  1  0
 16  9  1  0
 36 28  1  0
 35 32  1  0
  1 39  1  0
  1 40  1  0
  1 41  1  0
  4 42  1  0
  6 43  1  0
 10 44  1  0
 11 45  1  0
 15 46  1  0
 17 47  1  0
 18 48  1  0
 23 49  1  0
 23 50  1  0
 29 51  1  0
 29 52  1  0
 30 53  1  0
 30 54  1  0
 33 55  1  0
 33 56  1  0
 35 57  1  0
 35 58  1  0
 36 59  1  0
 36 60  1  0
 37 61  1  0
 37 62  1  0
 38 63  1  1
M  END
$$$$
