
     RDKit          3D

 53 55  0  0  0  0  0  0  0  0999 V2000
    5.8875   -3.0119   -0.2535 C   0  0  0  0  0  0  0  0  0  0  0  0
    6.0270   -1.8532   -1.1886 C   0  0  0  0  0  0  0  0  0  0  0  0
    5.8713   -0.5938   -0.6165 O   0  0  0  0  0  0  0  0  0  0  0  0
    4.7329   -0.1368    0.0218 C   0  0  0  0  0  0  0  0  0  0  0  0
    3.5135   -0.7293    0.2619 C   0  0  0  0  0  0  0  0  0  0  0  0
    2.5277   -0.0472    0.9336 C   0  0  0  0  0  0  0  0  0  0  0  0
    2.6909    1.2596    1.4067 C   0  0  0  0  0  0  0  0  0  0  0  0
    1.5046    1.7999    2.1154 C   0  0  0  0  0  0  0  0  0  0  0  0
    0.4948    2.3111    1.1814 C   0  0  0  0  0  0  0  0  0  0  0  0
    0.4478    3.4876    0.4763 C   0  0  0  0  0  0  0  0  0  0  0  0
    1.7858    4.5828    0.7270 Cl  0  0  0  0  0  0  0  0  0  0  0  0
   -0.5881    3.8034   -0.3748 C   0  0  0  0  0  0  0  0  0  0  0  0
   -1.6513    2.9483   -0.5714 C   0  0  0  0  0  0  0  0  0  0  0  0
   -1.6690    1.7473    0.1061 C   0  0  0  0  0  0  0  0  0  0  0  0
   -0.6081    1.4796    0.9456 C   0  0  0  0  0  0  0  0  0  0  0  0
   -2.7841    0.8157   -0.0831 C   0  0  2  0  0  0  0  0  0  0  0  0
   -3.2673    0.2851    1.1051 O   0  0  0  0  0  0  0  0  0  0  0  0
   -4.2649   -0.6213    0.8804 C   0  0  2  0  0  0  0  0  0  0  0  0
   -4.0314   -1.8837    1.6865 C   0  0  0  0  0  0  0  0  0  0  0  0
   -5.0470   -2.8203    1.4637 O   0  0  0  0  0  0  0  0  0  0  0  0
   -4.5942   -0.9163   -0.5402 C   0  0  1  0  0  0  0  0  0  0  0  0
   -5.5406    0.0086   -1.0385 O   0  0  0  0  0  0  0  0  0  0  0  0
   -3.4389   -1.0820   -1.4636 C   0  0  2  0  0  0  0  0  0  0  0  0
   -3.1438   -2.4166   -1.7378 O   0  0  0  0  0  0  0  0  0  0  0  0
   -2.2488   -0.3318   -0.9447 C   0  0  1  0  0  0  0  0  0  0  0  0
   -1.5228    0.2196   -2.0028 O   0  0  0  0  0  0  0  0  0  0  0  0
    3.9102    1.8325    1.1586 C   0  0  0  0  0  0  0  0  0  0  0  0
    4.9130    1.1691    0.4875 C   0  0  0  0  0  0  0  0  0  0  0  0
    5.3092   -3.8683   -0.6985 H   0  0  0  0  0  0  0  0  0  0  0  0
    6.8894   -3.4684    0.0019 H   0  0  0  0  0  0  0  0  0  0  0  0
    5.4290   -2.7768    0.7050 H   0  0  0  0  0  0  0  0  0  0  0  0
    7.0359   -1.9062   -1.6348 H   0  0  0  0  0  0  0  0  0  0  0  0
    5.2489   -1.9741   -1.9710 H   0  0  0  0  0  0  0  0  0  0  0  0
    3.4601   -1.7291   -0.1308 H   0  0  0  0  0  0  0  0  0  0  0  0
    1.6228   -0.6228    1.0549 H   0  0  0  0  0  0  0  0  0  0  0  0
    1.8448    2.5847    2.8297 H   0  0  0  0  0  0  0  0  0  0  0  0
    1.1004    0.9849    2.7524 H   0  0  0  0  0  0  0  0  0  0  0  0
   -0.5532    4.7570   -0.8996 H   0  0  0  0  0  0  0  0  0  0  0  0
   -2.4232    3.2721   -1.2555 H   0  0  0  0  0  0  0  0  0  0  0  0
   -0.6815    0.5075    1.4553 H   0  0  0  0  0  0  0  0  0  0  0  0
   -3.6091    1.2803   -0.6213 H   0  0  0  0  0  0  0  0  0  0  0  0
   -5.2023   -0.1679    1.3205 H   0  0  0  0  0  0  0  0  0  0  0  0
   -3.0596   -2.3611    1.4558 H   0  0  0  0  0  0  0  0  0  0  0  0
   -4.0501   -1.6846    2.7767 H   0  0  0  0  0  0  0  0  0  0  0  0
   -5.9210   -2.4846    1.7590 H   0  0  0  0  0  0  0  0  0  0  0  0
   -5.1533   -1.8900   -0.5432 H   0  0  0  0  0  0  0  0  0  0  0  0
   -6.2659    0.1358   -0.3908 H   0  0  0  0  0  0  0  0  0  0  0  0
   -3.7104   -0.5998   -2.4422 H   0  0  0  0  0  0  0  0  0  0  0  0
   -3.7961   -2.7382   -2.3997 H   0  0  0  0  0  0  0  0  0  0  0  0
   -1.5413   -0.9614   -0.3702 H   0  0  0  0  0  0  0  0  0  0  0  0
   -1.7139   -0.1958   -2.8766 H   0  0  0  0  0  0  0  0  0  0  0  0
    4.0165    2.8334    1.5369 H   0  0  0  0  0  0  0  0  0  0  0  0
    5.8173    1.7676    0.3743 H   0  0  0  0  0  0  0  0  0  0  0  0
  1  2  1  0
  2  3  1  0
  3  4  1  0
  4  5  2  0
  5  6  1  0
  6  7  2  0
  7  8  1  0
  8  9  1  0
  9 10  2  0
 10 11  1  0
 10 12  1  0
 12 13  2  0
 13 14  1  0
 14 15  2  0
 14 16  1  0
 16 17  1  0
 17 18  1  0
 18 19  1  0
 19 20  1  0
 18 21  1  0
 21 22  1  0
 21 23  1  0
 23 24  1  0
 23 25  1  0
 25 26  1  0
  7 27  1  0
 27 28  2  0
 28  4  1  0
 15  9  1  0
 25 16  1  0
  1 29  1  0
  1 30  1  0
  1 31  1  0
  2 32  1  0
  2 33  1  0
  5 34  1  0
  6 35  1  0
  8 36  1  0
  8 37  1  0
 12 38  1  0
 13 39  1  0
 15 40  1  0
 16 41  1  6
 18 42  1  1
 19 43  1  0
 19 44  1  0
 20 45  1  0
 21 46  1  1
 22 47  1  0
 23 48  1  6
 24 49  1  0
 25 50  1  1
 26 51  1  0
 27 52  1  0
 28 53  1  0
M  END
$$$$
