@<TRIPOS>MOLECULE
*****
 46 48 0 0 0
SMALL
GASTEIGER

@<TRIPOS>ATOM
      1 C          -3.5687   -1.9699   -0.3776 C.3     1  UNL1       -0.0352
      2 C          -2.9403   -0.6121   -0.0496 C.3     1  UNL1        0.0952
      3 C          -1.6577   -0.9114    0.6301 C.ar    1  UNL1        0.0197
      4 C          -0.4222   -0.4869    0.2654 C.ar    1  UNL1       -0.0321
      5 C           0.7506   -0.8352    0.9822 C.ar    1  UNL1        0.0369
      6 N           1.9821   -0.3293    0.5020 N.am    1  UNL1       -0.2801
      7 C           3.2528   -0.5414    1.0437 C.2     1  UNL1        0.2681
      8 O           3.3799   -1.2457    2.0628 O.2     1  UNL1       -0.2681
      9 C           4.4677    0.0415    0.4518 C.ar    1  UNL1        0.1437
     10 C           5.6877   -0.2088    1.0379 C.ar    1  UNL1        0.0586
     11 N           6.8411    0.2897    0.5535 N.ar    1  UNL1       -0.2505
     12 C           6.8122    1.0613   -0.5422 C.ar    1  UNL1        0.1243
     13 C           8.0687    1.6211   -1.0934 C.3     1  UNL1        0.2822
     14 F           7.9455    2.9810   -1.1551 F       1  UNL1       -0.2022
     15 F           8.2126    1.1272   -2.3873 F       1  UNL1       -0.2022
     16 C           5.5776    1.3027   -1.1184 C.ar    1  UNL1        0.0552
     17 N           4.4293    0.8020   -0.6299 N.ar    1  UNL1       -0.2469
     18 C           0.6450   -1.6293    2.0854 C.ar    1  UNL1       -0.0023
     19 C          -0.6307   -2.0806    2.4800 C.ar    1  UNL1        0.1605
     20 F          -0.6793   -2.8715    3.5893 F       1  UNL1       -0.2024
     21 C          -1.7347   -1.7252    1.7664 C.ar    1  UNL1        0.1640
     22 F          -2.9341   -2.1664    2.1614 F       1  UNL1       -0.2021
     23 C          -2.8499    0.1968   -1.2872 C.3     1  UNL1        0.0223
     24 C          -3.9793    1.1946   -1.4754 C.3     1  UNL1        0.1997
     25 C          -5.2888    0.5917   -1.8436 C.3     1  UNL1        0.4266
     26 F          -5.8073   -0.2919   -0.9342 F       1  UNL1       -0.1669
     27 F          -6.2125    1.6443   -1.9208 F       1  UNL1       -0.1669
     28 F          -5.2589    0.0541   -3.1266 F       1  UNL1       -0.1669
     29 O          -4.1738    1.9482   -0.2831 O.2     1  UNL1       -0.4534
     30 C          -4.3113    1.1840    0.8784 C.2     1  UNL1        0.2765
     31 N          -5.1011    1.7426    1.9524 N.pl3   1  UNL1       -0.3134
     32 N          -3.7571    0.0605    0.9527 N.2     1  UNL1       -0.2257
     33 H          -4.3832   -2.1893    0.3212 H       1  UNL1        0.0256
     34 H          -2.7909   -2.7361   -0.2134 H       1  UNL1        0.0256
     35 H          -3.8625   -2.0487   -1.4438 H       1  UNL1        0.0256
     36 H          -0.2930    0.1297   -0.5894 H       1  UNL1        0.0640
     37 H           1.9875    0.2959   -0.3800 H       1  UNL1        0.1552
     38 H           5.7771   -0.8317    1.9349 H       1  UNL1        0.0853
     39 H           8.9221    1.2931   -0.4675 H       1  UNL1        0.1088
     40 H           5.6015    1.9350   -2.0070 H       1  UNL1        0.0850
     41 H           1.5004   -1.9232    2.6646 H       1  UNL1        0.0666
     42 H          -1.9312    0.7766   -1.3214 H       1  UNL1        0.0330
     43 H          -2.8757   -0.4481   -2.1958 H       1  UNL1        0.0330
     44 H          -3.6785    1.8745   -2.2969 H       1  UNL1        0.0826
     45 H          -5.9424    1.2774    2.3444 H       1  UNL1        0.1466
     46 H          -4.7766    2.6572    2.3228 H       1  UNL1        0.1466
@<TRIPOS>BOND
     1     2     1    1
     2     2     3    1
     3     3     4   ar
     4     4     5   ar
     5     5     6    1
     6     6     7   am
     7     7     8    2
     8     7     9    1
     9     9    10   ar
    10    10    11   ar
    11    11    12   ar
    12    12    13    1
    13    13    14    1
    14    13    15    1
    15    12    16   ar
    16    16    17   ar
    17     5    18   ar
    18    18    19   ar
    19    19    20    1
    20    19    21   ar
    21    21    22    1
    22     2    23    1
    23    23    24    1
    24    24    25    1
    25    25    26    1
    26    25    27    1
    27    25    28    1
    28    24    29    1
    29    29    30    1
    30    30    31    1
    31    30    32    2
    32    32     2    1
    33    21     3   ar
    34    17     9   ar
    35     1    33    1
    36     1    34    1
    37     1    35    1
    38     4    36    1
    39     6    37    1
    40    10    38    1
    41    13    39    1
    42    16    40    1
    43    18    41    1
    44    23    42    1
    45    23    43    1
    46    24    44    1
    47    31    45    1
    48    31    46    1
