
     RDKit          3D

 56 60  0  0  0  0  0  0  0  0999 V2000
    5.8591   -1.9783   -1.3599 N   0  0  0  0  0  0  0  0  0  0  0  0
    6.0441   -0.5108   -0.4658 S   0  0  0  0  0  6  0  0  0  0  0  0
    6.7053   -0.7872    0.8497 O   0  0  0  0  0  0  0  0  0  0  0  0
    6.9002    0.4190   -1.2801 O   0  0  0  0  0  0  0  0  0  0  0  0
    4.4684    0.1673   -0.1702 C   0  0  0  0  0  0  0  0  0  0  0  0
    3.8941    1.1024   -1.0030 C   0  0  0  0  0  0  0  0  0  0  0  0
    2.6210    1.6120   -0.7218 C   0  0  0  0  0  0  0  0  0  0  0  0
    1.9140    1.1973    0.3827 C   0  0  0  0  0  0  0  0  0  0  0  0
    0.5657    1.6916    0.7507 C   0  0  0  0  0  0  0  0  0  0  0  0
   -0.5310    0.9039    0.1199 C   0  0  0  0  0  0  0  0  0  0  0  0
   -0.9440    1.0109   -1.1871 C   0  0  0  0  0  0  0  0  0  0  0  0
   -0.5026    1.8598   -2.2786 C   0  0  0  0  0  0  0  0  0  0  0  0
   -0.1818    1.2593   -3.5025 C   0  0  0  0  0  0  0  0  0  0  0  0
    0.2159    1.9931   -4.5875 C   0  0  0  0  0  0  0  0  0  0  0  0
    0.3085    3.3657   -4.4887 C   0  0  0  0  0  0  0  0  0  0  0  0
    0.0049    3.9920   -3.3140 C   0  0  0  0  0  0  0  0  0  0  0  0
   -0.3945    3.2222   -2.2351 C   0  0  0  0  0  0  0  0  0  0  0  0
   -1.9431    0.0871   -1.3562 N   0  0  0  0  0  0  0  0  0  0  0  0
   -2.1334   -0.5409   -0.2400 N   0  0  0  0  0  0  0  0  0  0  0  0
   -3.1271   -1.6168   -0.0171 C   0  0  0  0  0  0  0  0  0  0  0  0
   -3.3740   -2.7042   -0.2343 N   0  0  0  0  0  0  0  0  0  0  0  0
   -4.4097   -3.4370    0.1249 C   0  0  0  0  0  0  0  0  0  0  0  0
   -4.5852   -4.8706   -0.2477 C   0  0  0  0  0  0  0  0  0  0  0  0
   -3.7213   -5.4560   -0.9418 O   0  0  0  0  0  0  0  0  0  0  0  0
   -5.6917   -5.5705    0.1615 O   0  0  0  0  0  0  0  0  0  0  0  0
   -5.3352   -2.7843    0.8798 C   0  0  0  0  0  0  0  0  0  0  0  0
   -4.6098   -1.1034    1.0158 S   0  0  0  0  0  0  0  0  0  0  0  0
   -1.2973   -0.0866    0.7108 C   0  0  0  0  0  0  0  0  0  0  0  0
   -1.2616   -0.5811    2.0846 C   0  0  0  0  0  0  0  0  0  0  0  0
   -1.9360    0.3238    3.0983 C   0  0  0  0  0  0  0  0  0  0  0  0
   -1.9242   -0.2019    4.5398 C   0  0  0  0  0  0  0  0  0  0  0  0
   -1.1294    0.9860    4.1687 C   0  0  0  0  0  0  0  0  0  0  0  0
    2.5317    0.2499    1.1991 C   0  0  0  0  0  0  0  0  0  0  0  0
    3.7817   -0.2621    0.9394 C   0  0  0  0  0  0  0  0  0  0  0  0
    6.7714   -2.4823   -1.2912 H   0  0  0  0  0  0  0  0  0  0  0  0
    5.0665   -2.5367   -0.9738 H   0  0  0  0  0  0  0  0  0  0  0  0
    4.4549    1.4246   -1.8715 H   0  0  0  0  0  0  0  0  0  0  0  0
    2.1999    2.3431   -1.3876 H   0  0  0  0  0  0  0  0  0  0  0  0
    0.5183    2.7450    0.4329 H   0  0  0  0  0  0  0  0  0  0  0  0
    0.4325    1.6972    1.8673 H   0  0  0  0  0  0  0  0  0  0  0  0
   -0.2609    0.1770   -3.5620 H   0  0  0  0  0  0  0  0  0  0  0  0
    0.4536    1.5045   -5.5081 H   0  0  0  0  0  0  0  0  0  0  0  0
    0.6220    3.9782   -5.3344 H   0  0  0  0  0  0  0  0  0  0  0  0
    0.0679    5.0774   -3.2016 H   0  0  0  0  0  0  0  0  0  0  0  0
   -0.6506    3.7231   -1.3028 H   0  0  0  0  0  0  0  0  0  0  0  0
   -5.7703   -6.5515   -0.0728 H   0  0  0  0  0  0  0  0  0  0  0  0
   -6.2954   -3.0703    1.3432 H   0  0  0  0  0  0  0  0  0  0  0  0
   -1.7940   -1.5565    2.1318 H   0  0  0  0  0  0  0  0  0  0  0  0
   -0.2269   -0.8031    2.4239 H   0  0  0  0  0  0  0  0  0  0  0  0
   -2.8885    0.8187    2.8307 H   0  0  0  0  0  0  0  0  0  0  0  0
   -2.8130   -0.0323    5.1660 H   0  0  0  0  0  0  0  0  0  0  0  0
   -1.4517   -1.1811    4.7032 H   0  0  0  0  0  0  0  0  0  0  0  0
   -0.0146    0.8723    4.0442 H   0  0  0  0  0  0  0  0  0  0  0  0
   -1.4185    1.9965    4.4775 H   0  0  0  0  0  0  0  0  0  0  0  0
    2.0216   -0.1020    2.0717 H   0  0  0  0  0  0  0  0  0  0  0  0
    4.1941   -0.9935    1.6187 H   0  0  0  0  0  0  0  0  0  0  0  0
  1  2  1  0
  2  3  2  0
  2  4  2  0
  2  5  1  0
  5  6  2  0
  6  7  1  0
  7  8  2  0
  8  9  1  0
  9 10  1  0
 10 11  1  0
 11 12  1  0
 12 13  2  0
 13 14  1  0
 14 15  2  0
 15 16  1  0
 16 17  2  0
 11 18  2  0
 18 19  1  0
 19 20  1  0
 20 21  2  0
 21 22  1  0
 22 23  1  0
 23 24  2  0
 23 25  1  0
 22 26  2  0
 26 27  1  0
 19 28  1  0
 28 29  1  0
 29 30  1  0
 30 31  1  0
 31 32  1  0
  8 33  1  0
 33 34  2  0
 34  5  1  0
 28 10  2  0
 32 30  1  0
 17 12  1  0
 27 20  1  0
  1 35  1  0
  1 36  1  0
  6 37  1  0
  7 38  1  0
  9 39  1  0
  9 40  1  0
 13 41  1  0
 14 42  1  0
 15 43  1  0
 16 44  1  0
 17 45  1  0
 25 46  1  0
 26 47  1  0
 29 48  1  0
 29 49  1  0
 30 50  1  0
 31 51  1  0
 31 52  1  0
 32 53  1  0
 32 54  1  0
 33 55  1  0
 34 56  1  0
M  END
$$$$
