@<TRIPOS>MOLECULE
*****
 56 60 0 0 0
SMALL
GASTEIGER

@<TRIPOS>ATOM
      1 N1          5.8591   -1.9783   -1.3599 N.3     1  <1>        -0.2035
      2 S1          6.0441   -0.5108   -0.4658 S.O2    1  <1>         0.0559
      3 O1          6.7053   -0.7872    0.8497 O.2     1  <1>        -0.1533
      4 O2          6.9002    0.4190   -1.2801 O.2     1  <1>        -0.1533
      5 C1          4.4684    0.1673   -0.1702 C.ar    1  <1>         0.1050
      6 C2          3.8941    1.1024   -1.0030 C.ar    1  <1>        -0.0351
      7 C3          2.6210    1.6120   -0.7218 C.ar    1  <1>        -0.0564
      8 C4          1.9140    1.1973    0.3827 C.ar    1  <1>        -0.0428
      9 C5          0.5657    1.6916    0.7507 C.3     1  <1>         0.0014
     10 C6         -0.5310    0.9039    0.1199 C.ar    1  <1>         0.0059
     11 C7         -0.9440    1.0109   -1.1871 C.ar    1  <1>         0.0969
     12 C8         -0.5026    1.8598   -2.2786 C.ar    1  <1>         0.0024
     13 C9         -0.1818    1.2593   -3.5025 C.ar    1  <1>        -0.0525
     14 C10         0.2159    1.9931   -4.5875 C.ar    1  <1>        -0.0611
     15 C11         0.3085    3.3657   -4.4887 C.ar    1  <1>        -0.0617
     16 C12         0.0049    3.9920   -3.3140 C.ar    1  <1>        -0.0611
     17 C13        -0.3945    3.2222   -2.2351 C.ar    1  <1>        -0.0525
     18 N2         -1.9431    0.0871   -1.3562 N.ar    1  <1>        -0.1641
     19 N3         -2.1334   -0.5409   -0.2400 N.ar    1  <1>        -0.2117
     20 C14        -3.1271   -1.6168   -0.0171 C.ar    1  <1>         0.1946
     21 N4         -3.3740   -2.7042   -0.2343 N.ar    1  <1>        -0.2145
     22 C15        -4.4097   -3.4370    0.1249 C.ar    1  <1>         0.1568
     23 C16        -4.5852   -4.8706   -0.2477 C.2     1  <1>         0.3559
     24 O3         -3.7213   -5.4560   -0.9418 O.2     1  <1>        -0.2434
     25 O4         -5.6917   -5.5705    0.1615 O.3     1  <1>        -0.4761
     26 C17        -5.3352   -2.7843    0.8798 C.ar    1  <1>         0.0116
     27 S2         -4.6098   -1.1034    1.0158 S.2     1  <1>        -0.0554
     28 C18        -1.2973   -0.0866    0.7108 C.ar    1  <1>         0.0515
     29 C19        -1.2616   -0.5811    2.0846 C.3     1  <1>        -0.0071
     30 C20        -1.9360    0.3238    3.0983 C.3     1  <1>        -0.0356
     31 C21        -1.9242   -0.2019    4.5398 C.3     1  <1>        -0.0496
     32 C22        -1.1294    0.9860    4.1687 C.3     1  <1>        -0.0496
     33 C23         2.5317    0.2499    1.1991 C.ar    1  <1>        -0.0564
     34 C24         3.7817   -0.2621    0.9394 C.ar    1  <1>        -0.0351
     35 H1          6.7714   -2.4823   -1.2912 H       1  <1>         0.1442
     36 H2          5.0665   -2.5367   -0.9738 H       1  <1>         0.1442
     37 H3          4.4549    1.4246   -1.8715 H       1  <1>         0.0637
     38 H4          2.1999    2.3431   -1.3876 H       1  <1>         0.0621
     39 H5          0.5183    2.7450    0.4329 H       1  <1>         0.0363
     40 H6          0.4325    1.6972    1.8673 H       1  <1>         0.0363
     41 H7         -0.2609    0.1770   -3.5620 H       1  <1>         0.0624
     42 H8          0.4536    1.5045   -5.5081 H       1  <1>         0.0618
     43 H9          0.6220    3.9782   -5.3344 H       1  <1>         0.0618
     44 H10         0.0679    5.0774   -3.2016 H       1  <1>         0.0618
     45 H11        -0.6506    3.7231   -1.3028 H       1  <1>         0.0624
     46 H12        -5.7703   -6.5515   -0.0728 H       1  <1>         0.2955
     47 H13        -6.2954   -3.0703    1.3432 H       1  <1>         0.0718
     48 H14        -1.7940   -1.5565    2.1318 H       1  <1>         0.0331
     49 H15        -0.2269   -0.8031    2.4239 H       1  <1>         0.0331
     50 H16        -2.8885    0.8187    2.8307 H       1  <1>         0.0304
     51 H17        -2.8130   -0.0323    5.1660 H       1  <1>         0.0268
     52 H18        -1.4517   -1.1811    4.7032 H       1  <1>         0.0268
     53 H19        -0.0146    0.8723    4.0442 H       1  <1>         0.0268
     54 H20        -1.4185    1.9965    4.4775 H       1  <1>         0.0268
     55 H21         2.0216   -0.1020    2.0717 H       1  <1>         0.0621
     56 H22         4.1941   -0.9935    1.6187 H       1  <1>         0.0637
@<TRIPOS>BOND
     1     1     2    1
     2     2     3    2
     3     2     4    2
     4     2     5    1
     5     5     6   ar
     6     6     7   ar
     7     7     8   ar
     8     8     9    1
     9     9    10    1
    10    10    11   ar
    11    11    12    1
    12    12    13   ar
    13    13    14   ar
    14    14    15   ar
    15    15    16   ar
    16    16    17   ar
    17    11    18   ar
    18    18    19   ar
    19    19    20    1
    20    20    21   ar
    21    21    22   ar
    22    22    23    1
    23    23    24    2
    24    23    25    1
    25    22    26   ar
    26    26    27   ar
    27    19    28   ar
    28    28    29    1
    29    29    30    1
    30    30    31    1
    31    31    32    1
    32     8    33   ar
    33    33    34   ar
    34    34     5   ar
    35    28    10   ar
    36    32    30    1
    37    17    12   ar
    38    27    20   ar
    39     1    35    1
    40     1    36    1
    41     6    37    1
    42     7    38    1
    43     9    39    1
    44     9    40    1
    45    13    41    1
    46    14    42    1
    47    15    43    1
    48    16    44    1
    49    17    45    1
    50    25    46    1
    51    26    47    1
    52    29    48    1
    53    29    49    1
    54    30    50    1
    55    31    51    1
    56    31    52    1
    57    32    53    1
    58    32    54    1
    59    33    55    1
    60    34    56    1
