@<TRIPOS>MOLECULE
*****
 67 72 0 0 0
SMALL
GASTEIGER

@<TRIPOS>ATOM
      1 O          -2.9364   -1.6070    3.4730 O.2     1  UNL1       -0.2434
      2 C          -1.7633   -1.8321    3.0833 C.2     1  UNL1        0.3561
      3 OXT        -0.7920   -2.2736    3.9621 O.3     1  UNL1       -0.4761
      4 CA         -1.4712   -1.6058    1.6565 C.ar    1  UNL1        0.1583
      5 N          -0.2917   -1.8043    1.1207 N.ar    1  UNL1       -0.2322
      6 C           0.0847   -1.6737    0.0364 C.ar    1  UNL1        0.1094
      7 C           1.2353   -1.7771   -0.8964 C.ar    1  UNL1        0.0078
      8 C           1.1808   -1.4395   -2.2165 C.ar    1  UNL1       -0.0518
      9 C           2.2877   -1.5644   -3.0503 C.ar    1  UNL1       -0.0573
     10 C           3.4520   -2.0416   -2.5072 C.ar    1  UNL1       -0.0384
     11 C           3.4997   -2.3850   -1.1545 C.ar    1  UNL1        0.0015
     12 C           2.3855   -2.2509   -0.3497 C.ar    1  UNL1       -0.0429
     13 C           4.7653   -2.8882   -0.6497 C.2     1  UNL1        0.0667
     14 N           5.1220   -2.6273    0.5253 N.2     1  UNL1       -0.1849
     15 N           4.5276   -1.9103    1.5169 N.pl3   1  UNL1       -0.2150
     16 C           4.3682   -0.5285    1.5499 C.ar    1  UNL1        0.1788
     17 N           3.8712    0.3763    2.3475 N.ar    1  UNL1       -0.2235
     18 C           3.8450    1.6331    2.1422 C.ar    1  UNL1        0.0803
     19 C           3.3066    2.6364    3.0070 C.ar    1  UNL1       -0.0351
     20 C           3.3776    3.9310    2.6053 C.ar    1  UNL1       -0.0597
     21 C           3.9169    4.4036    1.4412 C.ar    1  UNL1       -0.0606
     22 C           4.4538    3.4465    0.5707 C.ar    1  UNL1       -0.0458
     23 C           4.4013    2.1102    0.9442 C.ar    1  UNL1        0.0408
     24 S           4.9363    0.5551    0.2044 S.2     1  UNL1       -0.0508
     25 C           5.6065   -3.7067   -1.5796 C.3     1  UNL1       -0.0080
     26 C           5.1962   -3.6047   -3.0106 C.3     1  UNL1       -0.0436
     27 C           4.6791   -2.2138   -3.3117 C.3     1  UNL1       -0.0267
     28 S          -1.5452   -1.0797   -0.7291 S.2     1  UNL1       -0.0713
     29 C          -2.4549   -1.1691    0.8261 C.ar    1  UNL1        0.0241
     30 C          -3.8308   -0.7974    0.8493 C.3     1  UNL1       -0.0191
     31 C          -4.1434    0.5671    1.3822 C.3     1  UNL1       -0.0482
     32 C          -3.5010    1.6580    0.5672 C.3     1  UNL1       -0.0487
     33 C          -4.0632    1.6558   -0.8169 C.3     1  UNL1       -0.0277
     34 C          -5.4979    1.9653   -0.8884 C.ar    1  UNL1       -0.0474
     35 C          -5.8320    3.2989   -1.0056 C.ar    1  UNL1       -0.0586
     36 C          -7.1416    3.7003   -1.0834 C.ar    1  UNL1       -0.0615
     37 C          -8.1525    2.7636   -1.0445 C.ar    1  UNL1       -0.0617
     38 C          -7.8255    1.4389   -0.9282 C.ar    1  UNL1       -0.0615
     39 C          -6.4969    1.0394   -0.8504 C.ar    1  UNL1       -0.0586
     40 HXT        -1.0965   -2.4982    4.9192 H       1  UNL1        0.2955
     41 H           0.2575   -1.0664   -2.6230 H       1  UNL1        0.0624
     42 H           2.2164   -1.2920   -4.0811 H       1  UNL1        0.0621
     43 H           2.4568   -2.5290    0.6871 H       1  UNL1        0.0631
     44 H           4.1476   -2.4377    2.3540 H       1  UNL1        0.1765
     45 H           2.8572    2.3924    3.9460 H       1  UNL1        0.0639
     46 H           2.9654    4.7154    3.2658 H       1  UNL1        0.0618
     47 H           3.9681    5.4235    1.1333 H       1  UNL1        0.0618
     48 H           4.9043    3.7272   -0.3789 H       1  UNL1        0.0629
     49 H           6.6822   -3.3711   -1.5165 H       1  UNL1        0.0329
     50 H           5.6248   -4.7733   -1.2752 H       1  UNL1        0.0329
     51 H           6.0576   -3.7952   -3.6817 H       1  UNL1        0.0272
     52 H           4.3853   -4.3184   -3.2121 H       1  UNL1        0.0272
     53 H           4.5035   -2.1229   -4.3939 H       1  UNL1        0.0313
     54 H           5.4149   -1.4441   -3.0158 H       1  UNL1        0.0313
     55 H          -4.2712   -0.8809   -0.1605 H       1  UNL1        0.0319
     56 H          -4.4878   -1.5023    1.4629 H       1  UNL1        0.0319
     57 H          -3.9362    0.7271    2.4345 H       1  UNL1        0.0269
     58 H          -5.2592    0.7136    1.2678 H       1  UNL1        0.0269
     59 H          -3.8370    2.6259    1.0475 H       1  UNL1        0.0268
     60 H          -2.3957    1.5880    0.5843 H       1  UNL1        0.0268
     61 H          -3.5008    2.4064   -1.4283 H       1  UNL1        0.0313
     62 H          -3.9165    0.6956   -1.3646 H       1  UNL1        0.0313
     63 H          -5.0418    4.0668   -1.0385 H       1  UNL1        0.0620
     64 H          -7.3576    4.7552   -1.1745 H       1  UNL1        0.0618
     65 H          -9.1735    3.1389   -1.1098 H       1  UNL1        0.0618
     66 H          -8.6223    0.6906   -0.8968 H       1  UNL1        0.0618
     67 H          -6.3051   -0.0342   -0.7639 H       1  UNL1        0.0620
@<TRIPOS>BOND
     1     1     2    2
     2     2     3    1
     3     2     4    1
     4     4     5   ar
     5     5     6   ar
     6     6     7    1
     7     7     8   ar
     8     8     9   ar
     9     9    10   ar
    10    10    11   ar
    11    11    12   ar
    12    11    13    1
    13    13    14    2
    14    14    15    1
    15    15    16    1
    16    16    17   ar
    17    17    18   ar
    18    18    19   ar
    19    19    20   ar
    20    20    21   ar
    21    21    22   ar
    22    22    23   ar
    23    23    24   ar
    24    13    25    1
    25    25    26    1
    26    26    27    1
    27     6    28   ar
    28    28    29   ar
    29    29    30    1
    30    30    31    1
    31    31    32    1
    32    32    33    1
    33    33    34    1
    34    34    35   ar
    35    35    36   ar
    36    36    37   ar
    37    37    38   ar
    38    38    39   ar
    39    29     4   ar
    40    39    34   ar
    41    12     7   ar
    42    24    16   ar
    43    27    10    1
    44    23    18   ar
    45     3    40    1
    46     8    41    1
    47     9    42    1
    48    12    43    1
    49    15    44    1
    50    19    45    1
    51    20    46    1
    52    21    47    1
    53    22    48    1
    54    25    49    1
    55    25    50    1
    56    26    51    1
    57    26    52    1
    58    27    53    1
    59    27    54    1
    60    30    55    1
    61    30    56    1
    62    31    57    1
    63    31    58    1
    64    32    59    1
    65    32    60    1
    66    33    61    1
    67    33    62    1
    68    35    63    1
    69    36    64    1
    70    37    65    1
    71    38    66    1
    72    39    67    1
