
     RDKit          3D

 67 72  0  0  0  0  0  0  0  0999 V2000
   -2.9364   -1.6070    3.4730 O   0  0  0  0  0  0  0  0  0  0  0  0
   -1.7633   -1.8321    3.0833 C   0  0  0  0  0  0  0  0  0  0  0  0
   -0.7920   -2.2736    3.9621 O   0  0  0  0  0  0  0  0  0  0  0  0
   -1.4712   -1.6058    1.6565 C   0  0  0  0  0  0  0  0  0  0  0  0
   -0.2917   -1.8043    1.1207 N   0  0  0  0  0  0  0  0  0  0  0  0
    0.0847   -1.6737    0.0364 C   0  0  0  0  0  0  0  0  0  0  0  0
    1.2353   -1.7771   -0.8964 C   0  0  0  0  0  0  0  0  0  0  0  0
    1.1808   -1.4395   -2.2165 C   0  0  0  0  0  0  0  0  0  0  0  0
    2.2877   -1.5644   -3.0503 C   0  0  0  0  0  0  0  0  0  0  0  0
    3.4520   -2.0416   -2.5072 C   0  0  0  0  0  0  0  0  0  0  0  0
    3.4997   -2.3850   -1.1545 C   0  0  0  0  0  0  0  0  0  0  0  0
    2.3855   -2.2509   -0.3497 C   0  0  0  0  0  0  0  0  0  0  0  0
    4.7653   -2.8882   -0.6497 C   0  0  0  0  0  0  0  0  0  0  0  0
    5.1220   -2.6273    0.5253 N   0  0  0  0  0  0  0  0  0  0  0  0
    4.5276   -1.9103    1.5169 N   0  0  0  0  0  0  0  0  0  0  0  0
    4.3682   -0.5285    1.5499 C   0  0  0  0  0  0  0  0  0  0  0  0
    3.8712    0.3763    2.3475 N   0  0  0  0  0  0  0  0  0  0  0  0
    3.8450    1.6331    2.1422 C   0  0  0  0  0  0  0  0  0  0  0  0
    3.3066    2.6364    3.0070 C   0  0  0  0  0  0  0  0  0  0  0  0
    3.3776    3.9310    2.6053 C   0  0  0  0  0  0  0  0  0  0  0  0
    3.9169    4.4036    1.4412 C   0  0  0  0  0  0  0  0  0  0  0  0
    4.4538    3.4465    0.5707 C   0  0  0  0  0  0  0  0  0  0  0  0
    4.4013    2.1102    0.9442 C   0  0  0  0  0  0  0  0  0  0  0  0
    4.9363    0.5551    0.2044 S   0  0  0  0  0  0  0  0  0  0  0  0
    5.6065   -3.7067   -1.5796 C   0  0  0  0  0  0  0  0  0  0  0  0
    5.1962   -3.6047   -3.0106 C   0  0  0  0  0  0  0  0  0  0  0  0
    4.6791   -2.2138   -3.3117 C   0  0  0  0  0  0  0  0  0  0  0  0
   -1.5452   -1.0797   -0.7291 S   0  0  0  0  0  0  0  0  0  0  0  0
   -2.4549   -1.1691    0.8261 C   0  0  0  0  0  0  0  0  0  0  0  0
   -3.8308   -0.7974    0.8493 C   0  0  0  0  0  0  0  0  0  0  0  0
   -4.1434    0.5671    1.3822 C   0  0  0  0  0  0  0  0  0  0  0  0
   -3.5010    1.6580    0.5672 C   0  0  0  0  0  0  0  0  0  0  0  0
   -4.0632    1.6558   -0.8169 C   0  0  0  0  0  0  0  0  0  0  0  0
   -5.4979    1.9653   -0.8884 C   0  0  0  0  0  0  0  0  0  0  0  0
   -5.8320    3.2989   -1.0056 C   0  0  0  0  0  0  0  0  0  0  0  0
   -7.1416    3.7003   -1.0834 C   0  0  0  0  0  0  0  0  0  0  0  0
   -8.1525    2.7636   -1.0445 C   0  0  0  0  0  0  0  0  0  0  0  0
   -7.8255    1.4389   -0.9282 C   0  0  0  0  0  0  0  0  0  0  0  0
   -6.4969    1.0394   -0.8504 C   0  0  0  0  0  0  0  0  0  0  0  0
   -1.0965   -2.4982    4.9192 H   0  0  0  0  0  0  0  0  0  0  0  0
    0.2575   -1.0664   -2.6230 H   0  0  0  0  0  0  0  0  0  0  0  0
    2.2164   -1.2920   -4.0811 H   0  0  0  0  0  0  0  0  0  0  0  0
    2.4568   -2.5290    0.6871 H   0  0  0  0  0  0  0  0  0  0  0  0
    4.1476   -2.4377    2.3540 H   0  0  0  0  0  0  0  0  0  0  0  0
    2.8572    2.3924    3.9460 H   0  0  0  0  0  0  0  0  0  0  0  0
    2.9654    4.7154    3.2658 H   0  0  0  0  0  0  0  0  0  0  0  0
    3.9681    5.4235    1.1333 H   0  0  0  0  0  0  0  0  0  0  0  0
    4.9043    3.7272   -0.3789 H   0  0  0  0  0  0  0  0  0  0  0  0
    6.6822   -3.3711   -1.5165 H   0  0  0  0  0  0  0  0  0  0  0  0
    5.6248   -4.7733   -1.2752 H   0  0  0  0  0  0  0  0  0  0  0  0
    6.0576   -3.7952   -3.6817 H   0  0  0  0  0  0  0  0  0  0  0  0
    4.3853   -4.3184   -3.2121 H   0  0  0  0  0  0  0  0  0  0  0  0
    4.5035   -2.1229   -4.3939 H   0  0  0  0  0  0  0  0  0  0  0  0
    5.4149   -1.4441   -3.0158 H   0  0  0  0  0  0  0  0  0  0  0  0
   -4.2712   -0.8809   -0.1605 H   0  0  0  0  0  0  0  0  0  0  0  0
   -4.4878   -1.5023    1.4629 H   0  0  0  0  0  0  0  0  0  0  0  0
   -3.9362    0.7271    2.4345 H   0  0  0  0  0  0  0  0  0  0  0  0
   -5.2592    0.7136    1.2678 H   0  0  0  0  0  0  0  0  0  0  0  0
   -3.8370    2.6259    1.0475 H   0  0  0  0  0  0  0  0  0  0  0  0
   -2.3957    1.5880    0.5843 H   0  0  0  0  0  0  0  0  0  0  0  0
   -3.5008    2.4064   -1.4283 H   0  0  0  0  0  0  0  0  0  0  0  0
   -3.9165    0.6956   -1.3646 H   0  0  0  0  0  0  0  0  0  0  0  0
   -5.0418    4.0668   -1.0385 H   0  0  0  0  0  0  0  0  0  0  0  0
   -7.3576    4.7552   -1.1745 H   0  0  0  0  0  0  0  0  0  0  0  0
   -9.1735    3.1389   -1.1098 H   0  0  0  0  0  0  0  0  0  0  0  0
   -8.6223    0.6906   -0.8968 H   0  0  0  0  0  0  0  0  0  0  0  0
   -6.3051   -0.0342   -0.7639 H   0  0  0  0  0  0  0  0  0  0  0  0
  1  2  2  0
  2  3  1  0
  2  4  1  0
  4  5  1  0
  5  6  2  0
  6  7  1  0
  7  8  2  0
  8  9  1  0
  9 10  2  0
 10 11  1  0
 11 12  2  0
 11 13  1  0
 13 14  2  3
 14 15  1  0
 15 16  1  0
 16 17  2  0
 17 18  1  0
 18 19  2  0
 19 20  1  0
 20 21  2  0
 21 22  1  0
 22 23  2  0
 23 24  1  0
 13 25  1  0
 25 26  1  0
 26 27  1  0
  6 28  1  0
 28 29  1  0
 29 30  1  0
 30 31  1  0
 31 32  1  0
 32 33  1  0
 33 34  1  0
 34 35  2  0
 35 36  1  0
 36 37  2  0
 37 38  1  0
 38 39  2  0
 29  4  2  0
 39 34  1  0
 12  7  1  0
 24 16  1  0
 27 10  1  0
 23 18  1  0
  3 40  1  0
  8 41  1  0
  9 42  1  0
 12 43  1  0
 15 44  1  0
 19 45  1  0
 20 46  1  0
 21 47  1  0
 22 48  1  0
 25 49  1  0
 25 50  1  0
 26 51  1  0
 26 52  1  0
 27 53  1  0
 27 54  1  0
 30 55  1  0
 30 56  1  0
 31 57  1  0
 31 58  1  0
 32 59  1  0
 32 60  1  0
 33 61  1  0
 33 62  1  0
 35 63  1  0
 36 64  1  0
 37 65  1  0
 38 66  1  0
 39 67  1  0
M  END
$$$$
