
     RDKit          3D

 34 35  0  0  0  0  0  0  0  0999 V2000
   -6.4622   -0.0912   -0.6510 N   0  0  0  0  0  0  0  0  0  0  0  0
   -5.3428   -0.6804    0.0378 C   0  0  0  0  0  0  0  0  0  0  0  0
   -5.1244   -1.9485    0.1166 N   0  0  0  0  0  0  0  0  0  0  0  0
   -4.4138    0.1708    0.6764 N   0  0  0  0  0  0  0  0  0  0  0  0
   -3.0129   -0.0413    0.6441 C   0  0  0  0  0  0  0  0  0  0  0  0
   -2.3587   -1.0244   -0.0367 C   0  0  0  0  0  0  0  0  0  0  0  0
   -0.9943   -1.2069   -0.0449 C   0  0  0  0  0  0  0  0  0  0  0  0
   -0.1943   -0.3492    0.6794 C   0  0  0  0  0  0  0  0  0  0  0  0
    1.2832   -0.4463    0.7466 C   0  0  0  0  0  0  0  0  0  0  0  0
    1.8565    0.3726   -0.3566 C   0  0  0  0  0  0  0  0  0  0  0  0
    0.9825    0.9421   -1.0714 O   0  0  0  0  0  0  0  0  0  0  0  0
    3.3031    0.4633   -0.5358 C   0  0  0  0  0  0  0  0  0  0  0  0
    4.1955   -0.1932    0.2928 C   0  0  0  0  0  0  0  0  0  0  0  0
    5.5529   -0.0700    0.0745 C   0  0  0  0  0  0  0  0  0  0  0  0
    6.0436    0.7075   -0.9706 C   0  0  0  0  0  0  0  0  0  0  0  0
    5.1198    1.3468   -1.7753 C   0  0  0  0  0  0  0  0  0  0  0  0
    3.7759    1.2449   -1.5856 C   0  0  0  0  0  0  0  0  0  0  0  0
   -0.7906    0.6683    1.3915 C   0  0  0  0  0  0  0  0  0  0  0  0
   -2.1617    0.8007    1.3612 C   0  0  0  0  0  0  0  0  0  0  0  0
   -6.5344   -0.3319   -1.6782 H   0  0  0  0  0  0  0  0  0  0  0  0
   -7.0763    0.5084   -0.0538 H   0  0  0  0  0  0  0  0  0  0  0  0
   -5.7706   -2.6164   -0.3297 H   0  0  0  0  0  0  0  0  0  0  0  0
   -4.7705    1.0148    1.2064 H   0  0  0  0  0  0  0  0  0  0  0  0
   -2.9134   -1.7180   -0.6177 H   0  0  0  0  0  0  0  0  0  0  0  0
   -0.5240   -2.0094   -0.6066 H   0  0  0  0  0  0  0  0  0  0  0  0
    1.6194   -0.0959    1.7415 H   0  0  0  0  0  0  0  0  0  0  0  0
    1.6188   -1.5014    0.6746 H   0  0  0  0  0  0  0  0  0  0  0  0
    3.7618   -0.7848    1.0904 H   0  0  0  0  0  0  0  0  0  0  0  0
    6.2151   -0.6026    0.7493 H   0  0  0  0  0  0  0  0  0  0  0  0
    7.1263    0.7810   -1.1120 H   0  0  0  0  0  0  0  0  0  0  0  0
    5.6039    1.9333   -2.5683 H   0  0  0  0  0  0  0  0  0  0  0  0
    3.1525    1.7784   -2.2631 H   0  0  0  0  0  0  0  0  0  0  0  0
   -0.1869    1.3561    1.9686 H   0  0  0  0  0  0  0  0  0  0  0  0
   -2.5790    1.6230    1.9429 H   0  0  0  0  0  0  0  0  0  0  0  0
  1  2  1  0
  2  3  2  3
  2  4  1  0
  4  5  1  0
  5  6  2  0
  6  7  1  0
  7  8  2  0
  8  9  1  0
  9 10  1  0
 10 11  2  0
 10 12  1  0
 12 13  2  0
 13 14  1  0
 14 15  2  0
 15 16  1  0
 16 17  2  0
  8 18  1  0
 18 19  2  0
 19  5  1  0
 17 12  1  0
  1 20  1  0
  1 21  1  0
  3 22  1  0
  4 23  1  0
  6 24  1  0
  7 25  1  0
  9 26  1  0
  9 27  1  0
 13 28  1  0
 14 29  1  0
 15 30  1  0
 16 31  1  0
 17 32  1  0
 18 33  1  0
 19 34  1  0
M  END
$$$$
