@<TRIPOS>MOLECULE
*****
 34 35 0 0 0
SMALL
GASTEIGER

@<TRIPOS>ATOM
      1 N          -6.4622   -0.0912   -0.6510 N.pl3   1  UNL1       -0.2889
      2 C          -5.3428   -0.6804    0.0378 C.cat   1  UNL1        0.3810
      3 N          -5.1244   -1.9485    0.1166 N.pl3   1  UNL1       -0.1295
      4 N          -4.4138    0.1708    0.6764 N.pl3   1  UNL1       -0.2438
      5 C          -3.0129   -0.0413    0.6441 C.ar    1  UNL1        0.1000
      6 C          -2.3587   -1.0244   -0.0367 C.ar    1  UNL1       -0.0229
      7 C          -0.9943   -1.2069   -0.0449 C.ar    1  UNL1       -0.0549
      8 C          -0.1943   -0.3492    0.6794 C.ar    1  UNL1       -0.0397
      9 C           1.2832   -0.4463    0.7466 C.3     1  UNL1        0.0356
     10 C           1.8565    0.3726   -0.3566 C.2     1  UNL1        0.1674
     11 O           0.9825    0.9421   -1.0714 O.2     1  UNL1       -0.2917
     12 C           3.3031    0.4633   -0.5358 C.ar    1  UNL1        0.0177
     13 C           4.1955   -0.1932    0.2928 C.ar    1  UNL1       -0.0513
     14 C           5.5529   -0.0700    0.0745 C.ar    1  UNL1       -0.0611
     15 C           6.0436    0.7075   -0.9706 C.ar    1  UNL1       -0.0617
     16 C           5.1198    1.3468   -1.7753 C.ar    1  UNL1       -0.0611
     17 C           3.7759    1.2449   -1.5856 C.ar    1  UNL1       -0.0513
     18 C          -0.7906    0.6683    1.3915 C.ar    1  UNL1       -0.0549
     19 C          -2.1617    0.8007    1.3612 C.ar    1  UNL1       -0.0229
     20 H          -6.5344   -0.3319   -1.6782 H       1  UNL1        0.2547
     21 H          -7.0763    0.5084   -0.0538 H       1  UNL1        0.2547
     22 H          -5.7706   -2.6164   -0.3297 H       1  UNL1        0.3062
     23 H          -4.7705    1.0148    1.2064 H       1  UNL1        0.2648
     24 H          -2.9134   -1.7180   -0.6177 H       1  UNL1        0.0652
     25 H          -0.5240   -2.0094   -0.6066 H       1  UNL1        0.0621
     26 H           1.6194   -0.0959    1.7415 H       1  UNL1        0.0394
     27 H           1.6188   -1.5014    0.6746 H       1  UNL1        0.0394
     28 H           3.7618   -0.7848    1.0904 H       1  UNL1        0.0624
     29 H           6.2151   -0.6026    0.7493 H       1  UNL1        0.0618
     30 H           7.1263    0.7810   -1.1120 H       1  UNL1        0.0618
     31 H           5.6039    1.9333   -2.5683 H       1  UNL1        0.0618
     32 H           3.1525    1.7784   -2.2631 H       1  UNL1        0.0624
     33 H          -0.1869    1.3561    1.9686 H       1  UNL1        0.0621
     34 H          -2.5790    1.6230    1.9429 H       1  UNL1        0.0652
@<TRIPOS>BOND
     1     1     2    1
     2     2     3    2
     3     2     4    1
     4     4     5    1
     5     5     6   ar
     6     6     7   ar
     7     7     8   ar
     8     8     9    1
     9     9    10    1
    10    10    11    2
    11    10    12    1
    12    12    13   ar
    13    13    14   ar
    14    14    15   ar
    15    15    16   ar
    16    16    17   ar
    17     8    18   ar
    18    18    19   ar
    19    19     5   ar
    20    17    12   ar
    21     1    20    1
    22     1    21    1
    23     3    22    1
    24     4    23    1
    25     6    24    1
    26     7    25    1
    27     9    26    1
    28     9    27    1
    29    13    28    1
    30    14    29    1
    31    15    30    1
    32    16    31    1
    33    17    32    1
    34    18    33    1
    35    19    34    1
