@<TRIPOS>MOLECULE
*****
 78 83 0 0 0
SMALL
GASTEIGER

@<TRIPOS>ATOM
      1 C          -6.8336    0.5814   -0.6692 C.3     1  UNL1        0.0032
      2 N          -6.7182    0.7919    0.7653 N.am    1  UNL1       -0.3024
      3 C          -7.8203    0.2794    1.5884 C.3     1  UNL1        0.0032
      4 C          -5.6051    1.4532    1.3466 C.2     1  UNL1        0.2627
      5 O          -5.6072    1.5884    2.6041 O.2     1  UNL1       -0.2684
      6 C          -4.5353    1.9366    0.4950 C.ar    1  UNL1        0.1070
      7 C          -4.6438    3.1190   -0.2069 C.ar    1  UNL1       -0.0209
      8 C          -3.4446    3.2356   -0.8780 C.ar    1  UNL1        0.0378
      9 C          -2.9577    4.2151   -1.7440 C.ar    1  UNL1        0.0419
     10 N          -1.7115    4.0620   -2.2626 N.ar    1  UNL1       -0.2219
     11 C          -0.9535    2.9973   -1.9578 C.ar    1  UNL1        0.2224
     12 N           0.3438    2.9170   -2.5485 N.pl3   1  UNL1       -0.2685
     13 C           1.2202    1.8571   -2.2479 C.ar    1  UNL1        0.1250
     14 C           2.4560    1.8112   -2.8380 C.ar    1  UNL1       -0.0208
     15 C           3.3088    0.7719   -2.5248 C.ar    1  UNL1       -0.0449
     16 C           2.8660   -0.1655   -1.6309 C.ar    1  UNL1        0.0551
     17 C           3.7186   -1.2860   -1.2479 C.2     1  UNL1        0.2481
     18 O           3.6286   -2.3856   -1.8126 O.2     1  UNL1       -0.2699
     19 N           4.6603   -1.0906   -0.2076 N.am    1  UNL1       -0.2967
     20 C           5.5117   -2.2101    0.1808 C.3     1  UNL1        0.0213
     21 C           6.9713   -1.7855    0.1742 C.3     1  UNL1        0.0137
     22 C           7.6273   -2.0026    1.5038 C.3     1  UNL1        0.0025
     23 N           7.7562   -0.7532    2.2266 N.3     1  UNL1       -0.3152
     24 C           6.5428    0.0339    2.1833 C.3     1  UNL1        0.0025
     25 C           6.2252    0.4729    0.7641 C.3     1  UNL1        0.0137
     26 C           4.7816    0.1900    0.4638 C.3     1  UNL1        0.0213
     27 C           7.0914   -0.3150   -0.1824 C.3     1  UNL1        0.0660
     28 O           6.6038   -0.0972   -1.4714 O.3     1  UNL1       -0.3910
     29 C           1.6131   -0.1051   -1.0426 C.ar    1  UNL1        0.0418
     30 N           0.8066    0.9209   -1.3703 N.ar    1  UNL1       -0.2394
     31 N          -1.4285    2.0653   -1.1287 N.ar    1  UNL1       -0.1962
     32 C          -2.6768    2.1557   -0.5693 C.ar    1  UNL1        0.1466
     33 N          -3.3503    1.3518    0.2787 N.ar    1  UNL1       -0.3180
     34 C          -2.7903    0.1256    0.7761 C.3     1  UNL1        0.0366
     35 C          -3.5473   -0.5304    1.8882 C.3     1  UNL1       -0.0320
     36 C          -2.8751   -1.8945    2.1146 C.3     1  UNL1       -0.0512
     37 C          -3.5884   -2.9454    1.3467 C.3     1  UNL1       -0.0530
     38 C          -4.2297   -2.5165    0.0769 C.3     1  UNL1       -0.0530
     39 C          -3.4327   -1.7119   -0.8560 C.3     1  UNL1       -0.0512
     40 C          -2.4013   -0.7992   -0.3216 C.3     1  UNL1       -0.0320
     41 H          -5.8567    0.4358   -1.1583 H       1  UNL1        0.0428
     42 H          -7.4617   -0.2890   -0.9171 H       1  UNL1        0.0428
     43 H          -7.3544    1.4864   -1.0872 H       1  UNL1        0.0428
     44 H          -7.4970    0.0787    2.6294 H       1  UNL1        0.0428
     45 H          -8.1213   -0.6870    1.1350 H       1  UNL1        0.0428
     46 H          -8.6401    1.0050    1.5404 H       1  UNL1        0.0428
     47 H          -5.4671    3.8273   -0.2491 H       1  UNL1        0.0647
     48 H          -3.5798    5.0694   -1.9802 H       1  UNL1        0.0838
     49 H           0.6738    3.6560   -3.2297 H       1  UNL1        0.1564
     50 H           2.7941    2.5593   -3.5450 H       1  UNL1        0.0652
     51 H           4.2918    0.6738   -2.9543 H       1  UNL1        0.0627
     52 H           5.2228   -2.5030    1.2195 H       1  UNL1        0.0468
     53 H           5.3542   -3.0618   -0.4772 H       1  UNL1        0.0468
     54 H           7.4777   -2.3492   -0.6219 H       1  UNL1        0.0353
     55 H           7.1004   -2.7778    2.0972 H       1  UNL1        0.0428
     56 H           8.6774   -2.3714    1.3048 H       1  UNL1        0.0428
     57 H           7.8891   -1.0243    3.2426 H       1  UNL1        0.1220
     58 H           5.6903   -0.5194    2.6329 H       1  UNL1        0.0428
     59 H           6.7051    0.9228    2.8274 H       1  UNL1        0.0428
     60 H           6.3840    1.5668    0.6380 H       1  UNL1        0.0353
     61 H           4.1492    0.1716    1.3773 H       1  UNL1        0.0468
     62 H           4.4187    0.9516   -0.2566 H       1  UNL1        0.0468
     63 H           8.1658   -0.0564   -0.0870 H       1  UNL1        0.0600
     64 H           7.3391   -0.0980   -2.1502 H       1  UNL1        0.2098
     65 H           1.2858   -0.8598   -0.3388 H       1  UNL1        0.0838
     66 H          -1.8084    0.4435    1.2546 H       1  UNL1        0.0528
     67 H          -4.5866   -0.7657    1.6951 H       1  UNL1        0.0285
     68 H          -3.3770    0.0385    2.8238 H       1  UNL1        0.0285
     69 H          -3.0060   -2.1385    3.2103 H       1  UNL1        0.0266
     70 H          -1.7860   -1.8494    1.9542 H       1  UNL1        0.0266
     71 H          -4.4130   -3.3875    1.9825 H       1  UNL1        0.0265
     72 H          -2.9089   -3.7959    1.1481 H       1  UNL1        0.0265
     73 H          -5.2339   -2.0192    0.2353 H       1  UNL1        0.0265
     74 H          -4.5294   -3.4717   -0.4562 H       1  UNL1        0.0265
     75 H          -4.1453   -1.1742   -1.5518 H       1  UNL1        0.0266
     76 H          -2.8897   -2.4101   -1.5658 H       1  UNL1        0.0266
     77 H          -2.0384   -0.1888   -1.1809 H       1  UNL1        0.0285
     78 H          -1.5008   -1.4273   -0.0577 H       1  UNL1        0.0285
@<TRIPOS>BOND
     1     1     2    1
     2     2     3    1
     3     2     4   am
     4     4     5    2
     5     4     6    1
     6     6     7   ar
     7     7     8   ar
     8     8     9   ar
     9     9    10   ar
    10    10    11   ar
    11    11    12    1
    12    12    13    1
    13    13    14   ar
    14    14    15   ar
    15    15    16   ar
    16    16    17    1
    17    17    18    2
    18    17    19   am
    19    19    20    1
    20    20    21    1
    21    21    22    1
    22    22    23    1
    23    23    24    1
    24    24    25    1
    25    25    26    1
    26    25    27    1
    27    27    28    1
    28    16    29   ar
    29    29    30   ar
    30    11    31   ar
    31    31    32   ar
    32    32    33   ar
    33    33    34    1
    34    34    35    1
    35    35    36    1
    36    36    37    1
    37    37    38    1
    38    38    39    1
    39    39    40    1
    40    33     6   ar
    41    40    34    1
    42    32     8   ar
    43    30    13   ar
    44    26    19    1
    45    27    21    1
    46     1    41    1
    47     1    42    1
    48     1    43    1
    49     3    44    1
    50     3    45    1
    51     3    46    1
    52     7    47    1
    53     9    48    1
    54    12    49    1
    55    14    50    1
    56    15    51    1
    57    20    52    1
    58    20    53    1
    59    21    54    1
    60    22    55    1
    61    22    56    1
    62    23    57    1
    63    24    58    1
    64    24    59    1
    65    25    60    1
    66    26    61    1
    67    26    62    1
    68    27    63    1
    69    28    64    1
    70    29    65    1
    71    34    66    1
    72    35    67    1
    73    35    68    1
    74    36    69    1
    75    36    70    1
    76    37    71    1
    77    37    72    1
    78    38    73    1
    79    38    74    1
    80    39    75    1
    81    39    76    1
    82    40    77    1
    83    40    78    1
