
     RDKit          3D

 78 83  0  0  0  0  0  0  0  0999 V2000
   -6.8336    0.5814   -0.6692 C   0  0  0  0  0  0  0  0  0  0  0  0
   -6.7182    0.7919    0.7653 N   0  0  0  0  0  0  0  0  0  0  0  0
   -7.8203    0.2794    1.5884 C   0  0  0  0  0  0  0  0  0  0  0  0
   -5.6051    1.4532    1.3466 C   0  0  0  0  0  0  0  0  0  0  0  0
   -5.6072    1.5884    2.6041 O   0  0  0  0  0  0  0  0  0  0  0  0
   -4.5353    1.9366    0.4950 C   0  0  0  0  0  0  0  0  0  0  0  0
   -4.6438    3.1190   -0.2069 C   0  0  0  0  0  0  0  0  0  0  0  0
   -3.4446    3.2356   -0.8780 C   0  0  0  0  0  0  0  0  0  0  0  0
   -2.9577    4.2151   -1.7440 C   0  0  0  0  0  0  0  0  0  0  0  0
   -1.7115    4.0620   -2.2626 N   0  0  0  0  0  0  0  0  0  0  0  0
   -0.9535    2.9973   -1.9578 C   0  0  0  0  0  0  0  0  0  0  0  0
    0.3438    2.9170   -2.5485 N   0  0  0  0  0  0  0  0  0  0  0  0
    1.2202    1.8571   -2.2479 C   0  0  0  0  0  0  0  0  0  0  0  0
    2.4560    1.8112   -2.8380 C   0  0  0  0  0  0  0  0  0  0  0  0
    3.3088    0.7719   -2.5248 C   0  0  0  0  0  0  0  0  0  0  0  0
    2.8660   -0.1655   -1.6309 C   0  0  0  0  0  0  0  0  0  0  0  0
    3.7186   -1.2860   -1.2479 C   0  0  0  0  0  0  0  0  0  0  0  0
    3.6286   -2.3856   -1.8126 O   0  0  0  0  0  0  0  0  0  0  0  0
    4.6603   -1.0906   -0.2076 N   0  0  0  0  0  0  0  0  0  0  0  0
    5.5117   -2.2101    0.1808 C   0  0  0  0  0  0  0  0  0  0  0  0
    6.9713   -1.7855    0.1742 C   0  0  2  0  0  0  0  0  0  0  0  0
    7.6273   -2.0026    1.5038 C   0  0  0  0  0  0  0  0  0  0  0  0
    7.7562   -0.7532    2.2266 N   0  0  0  0  0  0  0  0  0  0  0  0
    6.5428    0.0339    2.1833 C   0  0  0  0  0  0  0  0  0  0  0  0
    6.2252    0.4729    0.7641 C   0  0  2  0  0  0  0  0  0  0  0  0
    4.7816    0.1900    0.4638 C   0  0  0  0  0  0  0  0  0  0  0  0
    7.0914   -0.3150   -0.1824 C   0  0  0  0  0  0  0  0  0  0  0  0
    6.6038   -0.0972   -1.4714 O   0  0  0  0  0  0  0  0  0  0  0  0
    1.6131   -0.1051   -1.0426 C   0  0  0  0  0  0  0  0  0  0  0  0
    0.8066    0.9209   -1.3703 N   0  0  0  0  0  0  0  0  0  0  0  0
   -1.4285    2.0653   -1.1287 N   0  0  0  0  0  0  0  0  0  0  0  0
   -2.6768    2.1557   -0.5693 C   0  0  0  0  0  0  0  0  0  0  0  0
   -3.3503    1.3518    0.2787 N   0  0  0  0  0  0  0  0  0  0  0  0
   -2.7903    0.1256    0.7761 C   0  0  0  0  0  0  0  0  0  0  0  0
   -3.5473   -0.5304    1.8882 C   0  0  0  0  0  0  0  0  0  0  0  0
   -2.8751   -1.8945    2.1146 C   0  0  0  0  0  0  0  0  0  0  0  0
   -3.5884   -2.9454    1.3467 C   0  0  0  0  0  0  0  0  0  0  0  0
   -4.2297   -2.5165    0.0769 C   0  0  0  0  0  0  0  0  0  0  0  0
   -3.4327   -1.7119   -0.8560 C   0  0  0  0  0  0  0  0  0  0  0  0
   -2.4013   -0.7992   -0.3216 C   0  0  0  0  0  0  0  0  0  0  0  0
   -5.8567    0.4358   -1.1583 H   0  0  0  0  0  0  0  0  0  0  0  0
   -7.4617   -0.2890   -0.9171 H   0  0  0  0  0  0  0  0  0  0  0  0
   -7.3544    1.4864   -1.0872 H   0  0  0  0  0  0  0  0  0  0  0  0
   -7.4970    0.0787    2.6294 H   0  0  0  0  0  0  0  0  0  0  0  0
   -8.1213   -0.6870    1.1350 H   0  0  0  0  0  0  0  0  0  0  0  0
   -8.6401    1.0050    1.5404 H   0  0  0  0  0  0  0  0  0  0  0  0
   -5.4671    3.8273   -0.2491 H   0  0  0  0  0  0  0  0  0  0  0  0
   -3.5798    5.0694   -1.9802 H   0  0  0  0  0  0  0  0  0  0  0  0
    0.6738    3.6560   -3.2297 H   0  0  0  0  0  0  0  0  0  0  0  0
    2.7941    2.5593   -3.5450 H   0  0  0  0  0  0  0  0  0  0  0  0
    4.2918    0.6738   -2.9543 H   0  0  0  0  0  0  0  0  0  0  0  0
    5.2228   -2.5030    1.2195 H   0  0  0  0  0  0  0  0  0  0  0  0
    5.3542   -3.0618   -0.4772 H   0  0  0  0  0  0  0  0  0  0  0  0
    7.4777   -2.3492   -0.6219 H   0  0  0  0  0  0  0  0  0  0  0  0
    7.1004   -2.7778    2.0972 H   0  0  0  0  0  0  0  0  0  0  0  0
    8.6774   -2.3714    1.3048 H   0  0  0  0  0  0  0  0  0  0  0  0
    7.8891   -1.0243    3.2426 H   0  0  0  0  0  0  0  0  0  0  0  0
    5.6903   -0.5194    2.6329 H   0  0  0  0  0  0  0  0  0  0  0  0
    6.7051    0.9228    2.8274 H   0  0  0  0  0  0  0  0  0  0  0  0
    6.3840    1.5668    0.6380 H   0  0  0  0  0  0  0  0  0  0  0  0
    4.1492    0.1716    1.3773 H   0  0  0  0  0  0  0  0  0  0  0  0
    4.4187    0.9516   -0.2566 H   0  0  0  0  0  0  0  0  0  0  0  0
    8.1658   -0.0564   -0.0870 H   0  0  0  0  0  0  0  0  0  0  0  0
    7.3391   -0.0980   -2.1502 H   0  0  0  0  0  0  0  0  0  0  0  0
    1.2858   -0.8598   -0.3388 H   0  0  0  0  0  0  0  0  0  0  0  0
   -1.8084    0.4435    1.2546 H   0  0  0  0  0  0  0  0  0  0  0  0
   -4.5866   -0.7657    1.6951 H   0  0  0  0  0  0  0  0  0  0  0  0
   -3.3770    0.0385    2.8238 H   0  0  0  0  0  0  0  0  0  0  0  0
   -3.0060   -2.1385    3.2103 H   0  0  0  0  0  0  0  0  0  0  0  0
   -1.7860   -1.8494    1.9542 H   0  0  0  0  0  0  0  0  0  0  0  0
   -4.4130   -3.3875    1.9825 H   0  0  0  0  0  0  0  0  0  0  0  0
   -2.9089   -3.7959    1.1481 H   0  0  0  0  0  0  0  0  0  0  0  0
   -5.2339   -2.0192    0.2353 H   0  0  0  0  0  0  0  0  0  0  0  0
   -4.5294   -3.4717   -0.4562 H   0  0  0  0  0  0  0  0  0  0  0  0
   -4.1453   -1.1742   -1.5518 H   0  0  0  0  0  0  0  0  0  0  0  0
   -2.8897   -2.4101   -1.5658 H   0  0  0  0  0  0  0  0  0  0  0  0
   -2.0384   -0.1888   -1.1809 H   0  0  0  0  0  0  0  0  0  0  0  0
   -1.5008   -1.4273   -0.0577 H   0  0  0  0  0  0  0  0  0  0  0  0
  1  2  1  0
  2  3  1  0
  2  4  1  0
  4  5  2  0
  4  6  1  0
  6  7  2  0
  7  8  1  0
  8  9  2  0
  9 10  1  0
 10 11  2  0
 11 12  1  0
 12 13  1  0
 13 14  2  0
 14 15  1  0
 15 16  2  0
 16 17  1  0
 17 18  2  0
 17 19  1  0
 19 20  1  0
 20 21  1  0
 21 22  1  0
 22 23  1  0
 23 24  1  0
 24 25  1  0
 25 26  1  0
 25 27  1  0
 27 28  1  0
 16 29  1  0
 29 30  2  0
 11 31  1  0
 31 32  2  0
 32 33  1  0
 33 34  1  0
 34 35  1  0
 35 36  1  0
 36 37  1  0
 37 38  1  0
 38 39  1  0
 39 40  1  0
 33  6  1  0
 40 34  1  0
 32  8  1  0
 30 13  1  0
 26 19  1  0
 27 21  1  0
  1 41  1  0
  1 42  1  0
  1 43  1  0
  3 44  1  0
  3 45  1  0
  3 46  1  0
  7 47  1  0
  9 48  1  0
 12 49  1  0
 14 50  1  0
 15 51  1  0
 20 52  1  0
 20 53  1  0
 21 54  1  6
 22 55  1  0
 22 56  1  0
 23 57  1  0
 24 58  1  0
 24 59  1  0
 25 60  1  1
 26 61  1  0
 26 62  1  0
 27 63  1  0
 28 64  1  0
 29 65  1  0
 34 66  1  0
 35 67  1  0
 35 68  1  0
 36 69  1  0
 36 70  1  0
 37 71  1  0
 37 72  1  0
 38 73  1  0
 38 74  1  0
 39 75  1  0
 39 76  1  0
 40 77  1  0
 40 78  1  0
M  END
$$$$
