
     RDKit          3D

 40 42  0  0  0  0  0  0  0  0999 V2000
   -4.1255    0.3508   -0.9055 C   0  0  1  0  0  0  0  0  0  0  0  0
   -5.2177    1.2839   -0.4020 C   0  0  0  0  0  0  0  0  0  0  0  0
   -6.3032    0.5517    0.0451 F   0  0  0  0  0  0  0  0  0  0  0  0
   -2.9241    1.1660   -1.4002 C   0  0  0  0  0  0  0  0  0  0  0  0
   -1.6639    0.4117   -1.2280 C   0  0  0  0  0  0  0  0  0  0  0  0
   -0.6880    0.3485   -2.2023 C   0  0  0  0  0  0  0  0  0  0  0  0
    0.4793   -0.3644   -2.0126 C   0  0  0  0  0  0  0  0  0  0  0  0
    0.6580   -1.0323   -0.7955 C   0  0  0  0  0  0  0  0  0  0  0  0
   -0.3237   -0.9639    0.1745 C   0  0  0  0  0  0  0  0  0  0  0  0
   -1.4726   -0.2543   -0.0291 C   0  0  0  0  0  0  0  0  0  0  0  0
   -2.6124   -0.0900    0.9165 C   0  0  0  0  0  0  0  0  0  0  0  0
   -3.7846   -0.5481    0.1569 N   0  0  0  0  0  0  0  0  0  0  0  0
    2.0647   -1.9758   -0.3875 S   0  0  0  0  0  0  0  0  0  0  0  0
    2.5858   -2.5781   -1.6651 O   0  0  0  0  0  0  0  0  0  0  0  0
    1.6773   -3.1215    0.5217 O   0  0  0  0  0  0  0  0  0  0  0  0
    3.3079   -1.1079    0.3676 N   0  0  0  0  0  0  0  0  0  0  0  0
    3.7905   -0.0784   -0.4940 C   0  0  0  0  0  0  0  0  0  0  0  0
    3.6943    1.3201    0.0777 C   0  0  0  0  0  0  0  0  0  0  0  0
    4.7658    1.2888    1.5482 S   0  0  0  0  0  0  0  0  0  0  0  0
    4.3425   -0.2799    2.3709 C   0  0  0  0  0  0  0  0  0  0  0  0
    3.0439   -0.7047    1.7111 C   0  0  0  0  0  0  0  0  0  0  0  0
   -4.5494   -0.2296   -1.7375 H   0  0  0  0  0  0  0  0  0  0  0  0
   -4.7940    1.8783    0.4553 H   0  0  0  0  0  0  0  0  0  0  0  0
   -5.5779    1.9877   -1.1585 H   0  0  0  0  0  0  0  0  0  0  0  0
   -2.9186    2.0641   -0.7312 H   0  0  0  0  0  0  0  0  0  0  0  0
   -3.1155    1.4890   -2.4241 H   0  0  0  0  0  0  0  0  0  0  0  0
   -0.8237    0.8631   -3.1425 H   0  0  0  0  0  0  0  0  0  0  0  0
    1.2759   -0.4483   -2.7393 H   0  0  0  0  0  0  0  0  0  0  0  0
   -0.2479   -1.4643    1.1523 H   0  0  0  0  0  0  0  0  0  0  0  0
   -2.5286   -0.8161    1.7565 H   0  0  0  0  0  0  0  0  0  0  0  0
   -2.7915    0.9430    1.2235 H   0  0  0  0  0  0  0  0  0  0  0  0
   -4.6002   -0.6370    0.7981 H   0  0  0  0  0  0  0  0  0  0  0  0
    4.8918   -0.2432   -0.6666 H   0  0  0  0  0  0  0  0  0  0  0  0
    3.2890   -0.1022   -1.4786 H   0  0  0  0  0  0  0  0  0  0  0  0
    4.1430    1.9865   -0.7051 H   0  0  0  0  0  0  0  0  0  0  0  0
    2.6527    1.5750    0.2985 H   0  0  0  0  0  0  0  0  0  0  0  0
    4.2101   -0.1272    3.4590 H   0  0  0  0  0  0  0  0  0  0  0  0
    5.1685   -0.9830    2.1603 H   0  0  0  0  0  0  0  0  0  0  0  0
    2.6475   -1.5556    2.2711 H   0  0  0  0  0  0  0  0  0  0  0  0
    2.3743    0.1972    1.7770 H   0  0  0  0  0  0  0  0  0  0  0  0
  1  2  1  0
  2  3  1  0
  1  4  1  0
  4  5  1  0
  5  6  2  0
  6  7  1  0
  7  8  2  0
  8  9  1  0
  9 10  2  0
 10 11  1  0
 11 12  1  0
  8 13  1  0
 13 14  2  0
 13 15  2  0
 13 16  1  0
 16 17  1  0
 17 18  1  0
 18 19  1  0
 19 20  1  0
 20 21  1  0
 12  1  1  0
 21 16  1  0
 10  5  1  0
  1 22  1  6
  2 23  1  0
  2 24  1  0
  4 25  1  0
  4 26  1  0
  6 27  1  0
  7 28  1  0
  9 29  1  0
 11 30  1  0
 11 31  1  0
 12 32  1  0
 17 33  1  0
 17 34  1  0
 18 35  1  0
 18 36  1  0
 20 37  1  0
 20 38  1  0
 21 39  1  0
 21 40  1  0
M  END
$$$$
