@<TRIPOS>MOLECULE
*****
 40 42 0 0 0
SMALL
GASTEIGER

@<TRIPOS>ATOM
      1 C          -4.1255    0.3508   -0.9055 C.3     1  UNL1        0.0401
      2 C          -5.2177    1.2839   -0.4020 C.3     1  UNL1        0.1057
      3 F          -6.3032    0.5517    0.0451 F       1  UNL1       -0.2474
      4 C          -2.9241    1.1660   -1.4002 C.3     1  UNL1       -0.0095
      5 C          -1.6639    0.4117   -1.2280 C.ar    1  UNL1       -0.0413
      6 C          -0.6880    0.3485   -2.2023 C.ar    1  UNL1       -0.0564
      7 C           0.4793   -0.3644   -2.0126 C.ar    1  UNL1       -0.0351
      8 C           0.6580   -1.0323   -0.7955 C.ar    1  UNL1        0.1058
      9 C          -0.3237   -0.9639    0.1745 C.ar    1  UNL1       -0.0307
     10 C          -1.4726   -0.2543   -0.0291 C.ar    1  UNL1       -0.0285
     11 C          -2.6124   -0.0900    0.9165 C.3     1  UNL1        0.0219
     12 N          -3.7846   -0.5481    0.1569 N.3     1  UNL1       -0.3065
     13 S           2.0647   -1.9758   -0.3875 S.O2    1  UNL1        0.0609
     14 O           2.5858   -2.5781   -1.6651 O.2     1  UNL1       -0.1528
     15 O           1.6773   -3.1215    0.5217 O.2     1  UNL1       -0.1528
     16 N           3.3079   -1.1079    0.3676 N.3     1  UNL1       -0.1750
     17 C           3.7905   -0.0784   -0.4940 C.3     1  UNL1        0.0295
     18 C           3.6943    1.3201    0.0777 C.3     1  UNL1        0.0082
     19 S           4.7658    1.2888    1.5482 S.3     1  UNL1       -0.1581
     20 C           4.3425   -0.2799    2.3709 C.3     1  UNL1        0.0082
     21 C           3.0439   -0.7047    1.7111 C.3     1  UNL1        0.0295
     22 H          -4.5494   -0.2296   -1.7375 H       1  UNL1        0.0489
     23 H          -4.7940    1.8783    0.4553 H       1  UNL1        0.0630
     24 H          -5.5779    1.9877   -1.1585 H       1  UNL1        0.0630
     25 H          -2.9186    2.0641   -0.7312 H       1  UNL1        0.0329
     26 H          -3.1155    1.4890   -2.4241 H       1  UNL1        0.0329
     27 H          -0.8237    0.8631   -3.1425 H       1  UNL1        0.0621
     28 H           1.2759   -0.4483   -2.7393 H       1  UNL1        0.0637
     29 H          -0.2479   -1.4643    1.1523 H       1  UNL1        0.0640
     30 H          -2.5286   -0.8161    1.7565 H       1  UNL1        0.0474
     31 H          -2.7915    0.9430    1.2235 H       1  UNL1        0.0474
     32 H          -4.6002   -0.6370    0.7981 H       1  UNL1        0.1226
     33 H           4.8918   -0.2432   -0.6666 H       1  UNL1        0.0452
     34 H           3.2890   -0.1022   -1.4786 H       1  UNL1        0.0452
     35 H           4.1430    1.9865   -0.7051 H       1  UNL1        0.0389
     36 H           2.6527    1.5750    0.2985 H       1  UNL1        0.0389
     37 H           4.2101   -0.1272    3.4590 H       1  UNL1        0.0389
     38 H           5.1685   -0.9830    2.1603 H       1  UNL1        0.0389
     39 H           2.6475   -1.5556    2.2711 H       1  UNL1        0.0452
     40 H           2.3743    0.1972    1.7770 H       1  UNL1        0.0452
@<TRIPOS>BOND
     1     1     2    1
     2     2     3    1
     3     1     4    1
     4     4     5    1
     5     5     6   ar
     6     6     7   ar
     7     7     8   ar
     8     8     9   ar
     9     9    10   ar
    10    10    11    1
    11    11    12    1
    12     8    13    1
    13    13    14    2
    14    13    15    2
    15    13    16    1
    16    16    17    1
    17    17    18    1
    18    18    19    1
    19    19    20    1
    20    20    21    1
    21    12     1    1
    22    21    16    1
    23    10     5   ar
    24     1    22    1
    25     2    23    1
    26     2    24    1
    27     4    25    1
    28     4    26    1
    29     6    27    1
    30     7    28    1
    31     9    29    1
    32    11    30    1
    33    11    31    1
    34    12    32    1
    35    17    33    1
    36    17    34    1
    37    18    35    1
    38    18    36    1
    39    20    37    1
    40    20    38    1
    41    21    39    1
    42    21    40    1
