@<TRIPOS>MOLECULE
*****
 55 57 0 0 0
SMALL
GASTEIGER

@<TRIPOS>ATOM
      1 C           7.8239    2.0289    0.1535 C.3     1  UNL1       -0.0622
      2 C           6.6354    2.8438    0.5980 C.3     1  UNL1       -0.0215
      3 C           5.3422    2.2888    0.0107 C.3     1  UNL1        0.0893
      4 O           5.1334    0.9528    0.4228 O.3     1  UNL1       -0.4920
      5 C           4.0011    0.2842   -0.0150 C.ar    1  UNL1        0.1206
      6 C           3.0895    0.9088   -0.8393 C.ar    1  UNL1       -0.0181
      7 C           1.9408    0.2600   -1.2952 C.ar    1  UNL1       -0.0319
      8 C           1.6886   -1.0377   -0.9266 C.ar    1  UNL1        0.1057
      9 S           0.2414   -1.8116   -1.5174 S.O2    1  UNL1        0.0616
     10 O           0.4972   -3.2724   -1.6726 O.2     1  UNL1       -0.1528
     11 O          -0.0812   -1.2495   -2.8711 O.2     1  UNL1       -0.1528
     12 N          -1.0123   -1.5236   -0.3825 N.3     1  UNL1       -0.1631
     13 C          -1.3140   -0.1358   -0.2151 C.3     1  UNL1        0.0370
     14 C          -2.6882   -0.1969    0.4190 C.3     1  UNL1        0.0269
     15 N          -3.3429    1.0522    0.4926 N.3     1  UNL1       -0.2937
     16 C          -3.6146    1.7351   -0.7180 C.3     1  UNL1        0.0228
     17 C          -5.1088    1.7103   -0.9666 C.3     1  UNL1        0.0604
     18 O          -5.7235    0.6145   -0.3738 O.3     1  UNL1       -0.3772
     19 C          -5.6382    0.6396    1.0066 C.3     1  UNL1        0.0604
     20 C          -4.3305    1.2202    1.5018 C.3     1  UNL1        0.0228
     21 C          -3.3702   -1.2096   -0.5019 C.3     1  UNL1       -0.0102
     22 C          -2.2268   -2.2212   -0.6645 C.3     1  UNL1        0.1112
     23 C          -2.4425   -3.2565    0.3802 C.2     1  UNL1        0.2544
     24 O          -3.4684   -3.9767    0.2985 O.2     1  UNL1       -0.2719
     25 N          -1.5228   -3.4464    1.4572 N.am    1  UNL1       -0.1961
     26 O          -1.7063   -4.3854    2.4158 O.3     1  UNL1       -0.2951
     27 C           2.5899   -1.6740   -0.1041 C.ar    1  UNL1       -0.0319
     28 C           3.7278   -1.0176    0.3422 C.ar    1  UNL1       -0.0181
     29 H           7.6141    0.9574    0.2966 H       1  UNL1        0.0231
     30 H           8.0782    2.1753   -0.9121 H       1  UNL1        0.0231
     31 H           8.6764    2.3171    0.8026 H       1  UNL1        0.0231
     32 H           6.5929    2.8523    1.6938 H       1  UNL1        0.0295
     33 H           6.7840    3.8685    0.2249 H       1  UNL1        0.0295
     34 H           4.4882    2.9535    0.2443 H       1  UNL1        0.0696
     35 H           5.4749    2.3479   -1.0994 H       1  UNL1        0.0696
     36 H           3.2832    1.9416   -1.1372 H       1  UNL1        0.0655
     37 H           1.2825    0.8315   -1.9393 H       1  UNL1        0.0638
     38 H          -1.2803    0.4475   -1.1433 H       1  UNL1        0.0460
     39 H          -0.5710    0.2825    0.5171 H       1  UNL1        0.0460
     40 H          -2.5584   -0.6633    1.4061 H       1  UNL1        0.0476
     41 H          -3.3043    2.8103   -0.6324 H       1  UNL1        0.0449
     42 H          -3.0979    1.2553   -1.5811 H       1  UNL1        0.0449
     43 H          -5.5735    2.6745   -0.6668 H       1  UNL1        0.0572
     44 H          -5.3078    1.6107   -2.0696 H       1  UNL1        0.0572
     45 H          -5.6884   -0.4095    1.3952 H       1  UNL1        0.0572
     46 H          -6.5031    1.1568    1.4719 H       1  UNL1        0.0572
     47 H          -4.0228    0.7914    2.4699 H       1  UNL1        0.0449
     48 H          -4.5136    2.3253    1.6057 H       1  UNL1        0.0449
     49 H          -4.2447   -1.6783   -0.0361 H       1  UNL1        0.0301
     50 H          -3.5867   -0.7195   -1.4722 H       1  UNL1        0.0301
     51 H          -2.2557   -2.6429   -1.6942 H       1  UNL1        0.0577
     52 H          -0.6846   -2.7979    1.4520 H       1  UNL1        0.1822
     53 H          -1.0758   -4.1365    3.1607 H       1  UNL1        0.2414
     54 H           2.4275   -2.7158    0.2171 H       1  UNL1        0.0638
     55 H           4.4464   -1.5064    0.9905 H       1  UNL1        0.0655
@<TRIPOS>BOND
     1     1     2    1
     2     2     3    1
     3     3     4    1
     4     4     5    1
     5     5     6   ar
     6     6     7   ar
     7     7     8   ar
     8     8     9    1
     9     9    10    2
    10     9    11    2
    11     9    12    1
    12    12    13    1
    13    13    14    1
    14    14    15    1
    15    15    16    1
    16    16    17    1
    17    17    18    1
    18    18    19    1
    19    19    20    1
    20    14    21    1
    21    21    22    1
    22    22    23    1
    23    23    24    2
    24    23    25   am
    25    25    26    1
    26     8    27   ar
    27    27    28   ar
    28    28     5   ar
    29    22    12    1
    30    20    15    1
    31     1    29    1
    32     1    30    1
    33     1    31    1
    34     2    32    1
    35     2    33    1
    36     3    34    1
    37     3    35    1
    38     6    36    1
    39     7    37    1
    40    13    38    1
    41    13    39    1
    42    14    40    1
    43    16    41    1
    44    16    42    1
    45    17    43    1
    46    17    44    1
    47    19    45    1
    48    19    46    1
    49    20    47    1
    50    20    48    1
    51    21    49    1
    52    21    50    1
    53    22    51    1
    54    25    52    1
    55    26    53    1
    56    27    54    1
    57    28    55    1
