
     RDKit          3D

 55 57  0  0  0  0  0  0  0  0999 V2000
    7.8239    2.0289    0.1535 C   0  0  0  0  0  0  0  0  0  0  0  0
    6.6354    2.8438    0.5980 C   0  0  0  0  0  0  0  0  0  0  0  0
    5.3422    2.2888    0.0107 C   0  0  0  0  0  0  0  0  0  0  0  0
    5.1334    0.9528    0.4228 O   0  0  0  0  0  0  0  0  0  0  0  0
    4.0011    0.2842   -0.0150 C   0  0  0  0  0  0  0  0  0  0  0  0
    3.0895    0.9088   -0.8393 C   0  0  0  0  0  0  0  0  0  0  0  0
    1.9408    0.2600   -1.2952 C   0  0  0  0  0  0  0  0  0  0  0  0
    1.6886   -1.0377   -0.9266 C   0  0  0  0  0  0  0  0  0  0  0  0
    0.2414   -1.8116   -1.5174 S   0  0  0  0  0  6  0  0  0  0  0  0
    0.4972   -3.2724   -1.6726 O   0  0  0  0  0  0  0  0  0  0  0  0
   -0.0812   -1.2495   -2.8711 O   0  0  0  0  0  0  0  0  0  0  0  0
   -1.0123   -1.5236   -0.3825 N   0  0  0  0  0  0  0  0  0  0  0  0
   -1.3140   -0.1358   -0.2151 C   0  0  0  0  0  0  0  0  0  0  0  0
   -2.6882   -0.1969    0.4190 C   0  0  1  0  0  0  0  0  0  0  0  0
   -3.3429    1.0522    0.4926 N   0  0  0  0  0  0  0  0  0  0  0  0
   -3.6146    1.7351   -0.7180 C   0  0  0  0  0  0  0  0  0  0  0  0
   -5.1088    1.7103   -0.9666 C   0  0  0  0  0  0  0  0  0  0  0  0
   -5.7235    0.6145   -0.3738 O   0  0  0  0  0  0  0  0  0  0  0  0
   -5.6382    0.6396    1.0066 C   0  0  0  0  0  0  0  0  0  0  0  0
   -4.3305    1.2202    1.5018 C   0  0  0  0  0  0  0  0  0  0  0  0
   -3.3702   -1.2096   -0.5019 C   0  0  0  0  0  0  0  0  0  0  0  0
   -2.2268   -2.2212   -0.6645 C   0  0  2  0  0  0  0  0  0  0  0  0
   -2.4425   -3.2565    0.3802 C   0  0  0  0  0  0  0  0  0  0  0  0
   -3.4684   -3.9767    0.2985 O   0  0  0  0  0  0  0  0  0  0  0  0
   -1.5228   -3.4464    1.4572 N   0  0  0  0  0  0  0  0  0  0  0  0
   -1.7063   -4.3854    2.4158 O   0  0  0  0  0  0  0  0  0  0  0  0
    2.5899   -1.6740   -0.1041 C   0  0  0  0  0  0  0  0  0  0  0  0
    3.7278   -1.0176    0.3422 C   0  0  0  0  0  0  0  0  0  0  0  0
    7.6141    0.9574    0.2966 H   0  0  0  0  0  0  0  0  0  0  0  0
    8.0782    2.1753   -0.9121 H   0  0  0  0  0  0  0  0  0  0  0  0
    8.6764    2.3171    0.8026 H   0  0  0  0  0  0  0  0  0  0  0  0
    6.5929    2.8523    1.6938 H   0  0  0  0  0  0  0  0  0  0  0  0
    6.7840    3.8685    0.2249 H   0  0  0  0  0  0  0  0  0  0  0  0
    4.4882    2.9535    0.2443 H   0  0  0  0  0  0  0  0  0  0  0  0
    5.4749    2.3479   -1.0994 H   0  0  0  0  0  0  0  0  0  0  0  0
    3.2832    1.9416   -1.1372 H   0  0  0  0  0  0  0  0  0  0  0  0
    1.2825    0.8315   -1.9393 H   0  0  0  0  0  0  0  0  0  0  0  0
   -1.2803    0.4475   -1.1433 H   0  0  0  0  0  0  0  0  0  0  0  0
   -0.5710    0.2825    0.5171 H   0  0  0  0  0  0  0  0  0  0  0  0
   -2.5584   -0.6633    1.4061 H   0  0  0  0  0  0  0  0  0  0  0  0
   -3.3043    2.8103   -0.6324 H   0  0  0  0  0  0  0  0  0  0  0  0
   -3.0979    1.2553   -1.5811 H   0  0  0  0  0  0  0  0  0  0  0  0
   -5.5735    2.6745   -0.6668 H   0  0  0  0  0  0  0  0  0  0  0  0
   -5.3078    1.6107   -2.0696 H   0  0  0  0  0  0  0  0  0  0  0  0
   -5.6884   -0.4095    1.3952 H   0  0  0  0  0  0  0  0  0  0  0  0
   -6.5031    1.1568    1.4719 H   0  0  0  0  0  0  0  0  0  0  0  0
   -4.0228    0.7914    2.4699 H   0  0  0  0  0  0  0  0  0  0  0  0
   -4.5136    2.3253    1.6057 H   0  0  0  0  0  0  0  0  0  0  0  0
   -4.2447   -1.6783   -0.0361 H   0  0  0  0  0  0  0  0  0  0  0  0
   -3.5867   -0.7195   -1.4722 H   0  0  0  0  0  0  0  0  0  0  0  0
   -2.2557   -2.6429   -1.6942 H   0  0  0  0  0  0  0  0  0  0  0  0
   -0.6846   -2.7979    1.4520 H   0  0  0  0  0  0  0  0  0  0  0  0
   -1.0758   -4.1365    3.1607 H   0  0  0  0  0  0  0  0  0  0  0  0
    2.4275   -2.7158    0.2171 H   0  0  0  0  0  0  0  0  0  0  0  0
    4.4464   -1.5064    0.9905 H   0  0  0  0  0  0  0  0  0  0  0  0
  1  2  1  0
  2  3  1  0
  3  4  1  0
  4  5  1  0
  5  6  2  0
  6  7  1  0
  7  8  2  0
  8  9  1  0
  9 10  2  0
  9 11  2  0
  9 12  1  0
 12 13  1  0
 13 14  1  0
 14 15  1  0
 15 16  1  0
 16 17  1  0
 17 18  1  0
 18 19  1  0
 19 20  1  0
 14 21  1  0
 21 22  1  0
 22 23  1  0
 23 24  2  0
 23 25  1  0
 25 26  1  0
  8 27  1  0
 27 28  2  0
 28  5  1  0
 22 12  1  0
 20 15  1  0
  1 29  1  0
  1 30  1  0
  1 31  1  0
  2 32  1  0
  2 33  1  0
  3 34  1  0
  3 35  1  0
  6 36  1  0
  7 37  1  0
 13 38  1  0
 13 39  1  0
 14 40  1  1
 16 41  1  0
 16 42  1  0
 17 43  1  0
 17 44  1  0
 19 45  1  0
 19 46  1  0
 20 47  1  0
 20 48  1  0
 21 49  1  0
 21 50  1  0
 22 51  1  6
 25 52  1  0
 26 53  1  0
 27 54  1  0
 28 55  1  0
M  END
$$$$
