@<TRIPOS>MOLECULE
*****
 41 44 0 0 0
SMALL
GASTEIGER

@<TRIPOS>ATOM
      1 C           8.8277    0.3679    0.5411 C.ar    1  UNL1        0.1159
      2 N           8.1444    0.7479    1.6257 N.ar    1  UNL1       -0.2431
      3 C           6.7985    0.5608    1.7595 C.ar    1  UNL1        0.0390
      4 C           6.1193   -0.0441    0.7260 C.ar    1  UNL1        0.0265
      5 C           4.7028   -0.2175    0.8832 C.ar    1  UNL1        0.0435
      6 C           3.8739    0.1553    1.9502 C.ar    1  UNL1        0.0447
      7 N           2.6284   -0.1401    1.8110 N.ar    1  UNL1       -0.2324
      8 C           2.0606   -0.6994    0.8831 C.ar    1  UNL1        0.1639
      9 N           0.7779   -1.1207    0.4990 N.pl3   1  UNL1       -0.2786
     10 C          -0.0925   -0.4988   -0.4069 C.ar    1  UNL1        0.1260
     11 C          -1.4653   -0.4537   -0.1478 C.ar    1  UNL1       -0.0005
     12 C          -2.3898    0.0937   -0.9739 C.ar    1  UNL1        0.0345
     13 N          -3.7523    0.1128   -0.5620 N.pl3   1  UNL1       -0.3273
     14 C          -4.1253    0.5573    0.7802 C.3     1  UNL1        0.0248
     15 C          -5.4293    1.3411    0.5712 C.3     1  UNL1        0.0117
     16 N          -6.4785    0.4446    0.1732 N.3     1  UNL1       -0.3130
     17 C          -6.0969   -0.5683   -0.7579 C.3     1  UNL1        0.0117
     18 C          -4.7795   -0.3175   -1.4496 C.3     1  UNL1        0.0248
     19 C          -1.9620    0.6471   -2.1605 C.ar    1  UNL1       -0.0224
     20 C          -0.6013    0.6059   -2.4248 C.ar    1  UNL1        0.0314
     21 N           0.2850    0.0478   -1.5644 N.ar    1  UNL1       -0.2400
     22 S           3.5732   -0.9595   -0.2094 S.2     1  UNL1       -0.0520
     23 C           6.8155   -0.4373   -0.3909 C.ar    1  UNL1        0.0390
     24 N           8.1687   -0.2221   -0.4648 N.ar    1  UNL1       -0.2431
     25 H           9.9111    0.5247    0.4421 H       1  UNL1        0.1047
     26 H           6.2798    0.8686    2.6370 H       1  UNL1        0.0837
     27 H           4.2814    0.6750    2.8533 H       1  UNL1        0.0842
     28 H           0.4261   -2.0193    0.9354 H       1  UNL1        0.1555
     29 H          -1.7986   -0.8878    0.7798 H       1  UNL1        0.0670
     30 H          -3.3625    1.2355    1.2030 H       1  UNL1        0.0476
     31 H          -4.3610   -0.3219    1.3792 H       1  UNL1        0.0476
     32 H          -5.2773    2.1722   -0.1243 H       1  UNL1        0.0439
     33 H          -5.7144    1.7395    1.5633 H       1  UNL1        0.0439
     34 H          -6.9838    0.0558    1.0195 H       1  UNL1        0.1220
     35 H          -6.8703   -0.6346   -1.5468 H       1  UNL1        0.0439
     36 H          -6.1096   -1.5716   -0.2341 H       1  UNL1        0.0439
     37 H          -4.8824    0.3249   -2.3458 H       1  UNL1        0.0476
     38 H          -4.4696   -1.3318   -1.8403 H       1  UNL1        0.0476
     39 H          -2.6619    1.0893   -2.8472 H       1  UNL1        0.0651
     40 H          -0.2967    1.0487   -3.3653 H       1  UNL1        0.0831
     41 H           6.2868   -0.9075   -1.1988 H       1  UNL1        0.0837
@<TRIPOS>BOND
     1     1     2   ar
     2     2     3   ar
     3     3     4   ar
     4     4     5    1
     5     5     6   ar
     6     6     7   ar
     7     7     8   ar
     8     8     9    1
     9     9    10    1
    10    10    11   ar
    11    11    12   ar
    12    12    13    1
    13    13    14    1
    14    14    15    1
    15    15    16    1
    16    16    17    1
    17    17    18    1
    18    12    19   ar
    19    19    20   ar
    20    20    21   ar
    21     8    22   ar
    22     4    23   ar
    23    23    24   ar
    24    24     1   ar
    25    22     5   ar
    26    21    10   ar
    27    18    13    1
    28     1    25    1
    29     3    26    1
    30     6    27    1
    31     9    28    1
    32    11    29    1
    33    14    30    1
    34    14    31    1
    35    15    32    1
    36    15    33    1
    37    16    34    1
    38    17    35    1
    39    17    36    1
    40    18    37    1
    41    18    38    1
    42    19    39    1
    43    20    40    1
    44    23    41    1
