
     RDKit          3D

 57 58  0  0  0  0  0  0  0  0999 V2000
    5.0446    0.0811    1.9164 C   0  0  0  0  0  0  0  0  0  0  0  0
    4.5739   -1.0649    1.0703 C   0  0  0  0  0  0  0  0  0  0  0  0
    4.0725   -0.7018   -0.1992 N   0  0  0  0  0  0  0  0  0  0  0  0
    4.9954   -0.1841   -1.1221 C   0  0  0  0  0  0  0  0  0  0  0  0
    4.4481    0.1012   -2.4866 C   0  0  0  0  0  0  0  0  0  0  0  0
    2.7378   -0.2654   -0.3055 C   0  0  0  0  0  0  0  0  0  0  0  0
    1.6989   -1.3197   -0.0874 C   0  0  0  0  0  0  0  0  0  0  0  0
    0.4301   -0.7255   -0.2121 O   0  0  0  0  0  0  0  0  0  0  0  0
   -0.1271    0.2402    0.5674 C   0  0  0  0  0  0  0  0  0  0  0  0
    0.5374    0.7037    1.5579 O   0  0  0  0  0  0  0  0  0  0  0  0
   -1.5209    0.6574    0.1479 C   0  0  0  0  0  0  0  0  0  0  0  0
   -2.0386    1.4932    1.2971 C   0  0  0  0  0  0  0  0  0  0  0  0
   -1.6400    2.9330    1.2199 C   0  0  0  0  0  0  0  0  0  0  0  0
   -2.3634    3.6077    0.1064 C   0  0  0  0  0  0  0  0  0  0  0  0
   -2.4262    2.6793   -1.0665 C   0  0  0  0  0  0  0  0  0  0  0  0
   -1.3900    1.5856   -1.0211 C   0  0  0  0  0  0  0  0  0  0  0  0
   -2.2567   -0.5901   -0.1184 C   0  0  0  0  0  0  0  0  0  0  0  0
   -2.3387   -1.4214    1.1538 C   0  0  0  0  0  0  0  0  0  0  0  0
   -2.6727   -2.8560    0.7467 C   0  0  0  0  0  0  0  0  0  0  0  0
   -4.0718   -2.7818    0.1270 C   0  0  0  0  0  0  0  0  0  0  0  0
   -3.9504   -1.9544   -1.1435 C   0  0  0  0  0  0  0  0  0  0  0  0
   -3.6062   -0.5136   -0.7228 C   0  0  0  0  0  0  0  0  0  0  0  0
    4.8755   -0.1731    2.9953 H   0  0  0  0  0  0  0  0  0  0  0  0
    6.1623    0.2516    1.8528 H   0  0  0  0  0  0  0  0  0  0  0  0
    4.4682    1.0225    1.7674 H   0  0  0  0  0  0  0  0  0  0  0  0
    3.8677   -1.6598    1.6859 H   0  0  0  0  0  0  0  0  0  0  0  0
    5.4632   -1.7406    0.9341 H   0  0  0  0  0  0  0  0  0  0  0  0
    5.4353    0.7959   -0.7726 H   0  0  0  0  0  0  0  0  0  0  0  0
    5.8842   -0.8527   -1.2253 H   0  0  0  0  0  0  0  0  0  0  0  0
    3.8101   -0.7150   -2.8790 H   0  0  0  0  0  0  0  0  0  0  0  0
    5.3119    0.1438   -3.2147 H   0  0  0  0  0  0  0  0  0  0  0  0
    3.9121    1.0504   -2.5599 H   0  0  0  0  0  0  0  0  0  0  0  0
    2.5023    0.6079    0.3174 H   0  0  0  0  0  0  0  0  0  0  0  0
    2.5723    0.0833   -1.3750 H   0  0  0  0  0  0  0  0  0  0  0  0
    1.7283   -1.7874    0.9148 H   0  0  0  0  0  0  0  0  0  0  0  0
    1.7184   -2.1036   -0.8964 H   0  0  0  0  0  0  0  0  0  0  0  0
   -3.1551    1.4839    1.3765 H   0  0  0  0  0  0  0  0  0  0  0  0
   -1.5830    1.0996    2.2572 H   0  0  0  0  0  0  0  0  0  0  0  0
   -0.5572    3.0991    1.1008 H   0  0  0  0  0  0  0  0  0  0  0  0
   -1.8968    3.3839    2.2197 H   0  0  0  0  0  0  0  0  0  0  0  0
   -3.3925    3.8751    0.4831 H   0  0  0  0  0  0  0  0  0  0  0  0
   -1.9113    4.5731   -0.2059 H   0  0  0  0  0  0  0  0  0  0  0  0
   -2.2024    3.2560   -2.0119 H   0  0  0  0  0  0  0  0  0  0  0  0
   -3.4576    2.3444   -1.1735 H   0  0  0  0  0  0  0  0  0  0  0  0
   -1.2918    1.1038   -1.9913 H   0  0  0  0  0  0  0  0  0  0  0  0
   -0.4101    2.1372   -0.8773 H   0  0  0  0  0  0  0  0  0  0  0  0
   -1.6377   -1.2452   -0.8166 H   0  0  0  0  0  0  0  0  0  0  0  0
   -3.1688   -1.0986    1.8202 H   0  0  0  0  0  0  0  0  0  0  0  0
   -1.3577   -1.4180    1.6519 H   0  0  0  0  0  0  0  0  0  0  0  0
   -1.9607   -3.2496   -0.0007 H   0  0  0  0  0  0  0  0  0  0  0  0
   -2.6533   -3.4309    1.6854 H   0  0  0  0  0  0  0  0  0  0  0  0
   -4.7143   -2.1994    0.8113 H   0  0  0  0  0  0  0  0  0  0  0  0
   -4.4552   -3.7958   -0.1041 H   0  0  0  0  0  0  0  0  0  0  0  0
   -3.1008   -2.3777   -1.7503 H   0  0  0  0  0  0  0  0  0  0  0  0
   -4.8839   -1.9986   -1.7054 H   0  0  0  0  0  0  0  0  0  0  0  0
   -4.4241   -0.2056   -0.0457 H   0  0  0  0  0  0  0  0  0  0  0  0
   -3.6338    0.0365   -1.6935 H   0  0  0  0  0  0  0  0  0  0  0  0
  1  2  1  0
  2  3  1  0
  3  4  1  0
  4  5  1  0
  3  6  1  0
  6  7  1  0
  7  8  1  0
  8  9  1  0
  9 10  2  0
  9 11  1  0
 11 12  1  0
 12 13  1  0
 13 14  1  0
 14 15  1  0
 15 16  1  0
 11 17  1  0
 17 18  1  0
 18 19  1  0
 19 20  1  0
 20 21  1  0
 21 22  1  0
 16 11  1  0
 22 17  1  0
  1 23  1  0
  1 24  1  0
  1 25  1  0
  2 26  1  0
  2 27  1  0
  4 28  1  0
  4 29  1  0
  5 30  1  0
  5 31  1  0
  5 32  1  0
  6 33  1  0
  6 34  1  0
  7 35  1  0
  7 36  1  0
 12 37  1  0
 12 38  1  0
 13 39  1  0
 13 40  1  0
 14 41  1  0
 14 42  1  0
 15 43  1  0
 15 44  1  0
 16 45  1  0
 16 46  1  0
 17 47  1  0
 18 48  1  0
 18 49  1  0
 19 50  1  0
 19 51  1  0
 20 52  1  0
 20 53  1  0
 21 54  1  0
 21 55  1  0
 22 56  1  0
 22 57  1  0
M  END
$$$$
