@<TRIPOS>MOLECULE
*****
 62 66 0 0 0
SMALL
GASTEIGER

@<TRIPOS>ATOM
      1 O          -2.6725    2.9705   -0.9058 O.2     1  UNL1       -0.2690
      2 C          -3.1183    2.0256   -0.1418 C.2     1  UNL1        0.2583
      3 C          -2.6390    0.6590   -0.2338 C.2     1  UNL1        0.0773
      4 C          -1.5369    0.2349   -0.7798 C.2     1  UNL1       -0.0322
      5 C          -1.2337   -1.2127   -0.7665 C.ar    1  UNL1        0.0220
      6 C          -2.1180   -2.2619   -0.8971 C.ar    1  UNL1        0.0390
      7 N          -1.3931   -3.4007   -0.8272 N.ar    1  UNL1       -0.2387
      8 C          -1.9524   -4.7070   -0.9220 C.ar    1  UNL1        0.0654
      9 C          -2.7627   -5.1071   -1.9639 C.ar    1  UNL1       -0.0363
     10 C          -3.2894   -6.4024   -2.0133 C.ar    1  UNL1       -0.0598
     11 C          -2.9938   -7.2950   -1.0032 C.ar    1  UNL1       -0.0616
     12 C          -2.1883   -6.9155    0.0435 C.ar    1  UNL1       -0.0598
     13 C          -1.6901   -5.6404    0.0601 C.ar    1  UNL1       -0.0363
     14 N          -0.1413   -3.0748   -0.6639 N.ar    1  UNL1       -0.1658
     15 C           0.0168   -1.7180   -0.6187 C.ar    1  UNL1        0.1003
     16 C           1.3039   -1.0555   -0.4459 C.ar    1  UNL1        0.0029
     17 C           2.3980   -1.4855   -1.1845 C.ar    1  UNL1       -0.0490
     18 C           3.6405   -0.9120   -1.0738 C.ar    1  UNL1       -0.0193
     19 C           3.7770    0.1462   -0.1718 C.ar    1  UNL1        0.1210
     20 O           4.9917    0.7756   -0.0023 O.3     1  UNL1       -0.4874
     21 C           5.1171    1.8385    0.9081 C.3     1  UNL1        0.1146
     22 C           6.5406    2.2846    0.8427 C.ar    1  UNL1       -0.0104
     23 C           6.8806    3.2703   -0.0726 C.ar    1  UNL1       -0.0554
     24 C           8.1897    3.6974   -0.1512 C.ar    1  UNL1       -0.0614
     25 C           9.1522    3.1534    0.6691 C.ar    1  UNL1       -0.0617
     26 C           8.8321    2.1817    1.5758 C.ar    1  UNL1       -0.0614
     27 C           7.5082    1.7579    1.6469 C.ar    1  UNL1       -0.0554
     28 C           2.6986    0.5838    0.5685 C.ar    1  UNL1       -0.0193
     29 C           1.4666   -0.0129    0.4336 C.ar    1  UNL1       -0.0490
     30 S          -3.9540   -0.2742    0.5948 S.3     1  UNL1       -0.0610
     31 C          -4.4936    1.1461    1.5934 C.2     1  UNL1        0.1206
     32 S          -5.2292    0.9952    3.0292 S.2     1  UNL1       -0.0272
     33 N          -4.0972    2.2641    0.8275 N.am    1  UNL1       -0.2537
     34 C          -4.6556    3.6044    1.0718 C.3     1  UNL1        0.0428
     35 C          -5.8092    3.9460    0.1909 C.3     1  UNL1        0.1087
     36 S          -7.1564    2.8508    0.4353 S.O2    1  UNL1        0.0812
     37 O          -7.6299    2.9086    1.8784 O.2     1  UNL1       -0.1473
     38 O          -6.7489    1.4569    0.0885 O.2     1  UNL1       -0.1473
     39 O          -8.4556    3.2437   -0.5832 O.3     1  UNL1       -0.2539
     40 H          -0.8695    0.9577   -1.2306 H       1  UNL1        0.0637
     41 H          -3.1912   -2.1359   -1.0295 H       1  UNL1        0.0837
     42 H          -2.9901   -4.4137   -2.7460 H       1  UNL1        0.0639
     43 H          -3.9255   -6.7293   -2.8233 H       1  UNL1        0.0618
     44 H          -3.3728   -8.3173   -0.9842 H       1  UNL1        0.0618
     45 H          -1.9272   -7.5789    0.8573 H       1  UNL1        0.0618
     46 H          -1.0538   -5.3381    0.8862 H       1  UNL1        0.0639
     47 H           2.3153   -2.3101   -1.8947 H       1  UNL1        0.0625
     48 H           4.5096   -1.2159   -1.6269 H       1  UNL1        0.0654
     49 H           4.9038    1.4748    1.9497 H       1  UNL1        0.0748
     50 H           4.4576    2.6977    0.6884 H       1  UNL1        0.0748
     51 H           6.1277    3.6997   -0.7183 H       1  UNL1        0.0621
     52 H           8.4869    4.4596   -0.8495 H       1  UNL1        0.0618
     53 H          10.1623    3.4912    0.5994 H       1  UNL1        0.0618
     54 H           9.6145    1.7810    2.1999 H       1  UNL1        0.0618
     55 H           7.2844    0.9875    2.3747 H       1  UNL1        0.0621
     56 H           2.7872    1.4088    1.2785 H       1  UNL1        0.0654
     57 H           0.6501    0.3608    1.0322 H       1  UNL1        0.0625
     58 H          -4.9722    3.7045    2.1224 H       1  UNL1        0.0486
     59 H          -3.8475    4.3495    0.9155 H       1  UNL1        0.0486
     60 H          -5.5156    3.8406   -0.9036 H       1  UNL1        0.0541
     61 H          -6.0842    5.0120    0.3743 H       1  UNL1        0.0541
     62 H          -8.1044    3.2943   -1.5080 H       1  UNL1        0.2445
@<TRIPOS>BOND
     1     1     2    2
     2     2     3    1
     3     3     4    2
     4     4     5    1
     5     5     6   ar
     6     6     7   ar
     7     7     8    1
     8     8     9   ar
     9     9    10   ar
    10    10    11   ar
    11    11    12   ar
    12    12    13   ar
    13     7    14   ar
    14    14    15   ar
    15    15    16    1
    16    16    17   ar
    17    17    18   ar
    18    18    19   ar
    19    19    20    1
    20    20    21    1
    21    21    22    1
    22    22    23   ar
    23    23    24   ar
    24    24    25   ar
    25    25    26   ar
    26    26    27   ar
    27    19    28   ar
    28    28    29   ar
    29     3    30    1
    30    30    31    1
    31    31    32    2
    32    31    33    1
    33    33    34    1
    34    34    35    1
    35    35    36    1
    36    36    37    2
    37    36    38    2
    38    36    39    1
    39    33     2   am
    40    15     5   ar
    41    29    16   ar
    42    13     8   ar
    43    27    22   ar
    44     4    40    1
    45     6    41    1
    46     9    42    1
    47    10    43    1
    48    11    44    1
    49    12    45    1
    50    13    46    1
    51    17    47    1
    52    18    48    1
    53    21    49    1
    54    21    50    1
    55    23    51    1
    56    24    52    1
    57    25    53    1
    58    26    54    1
    59    27    55    1
    60    28    56    1
    61    29    57    1
    62    34    58    1
    63    34    59    1
    64    35    60    1
    65    35    61    1
    66    39    62    1
