
     RDKit          3D

 62 66  0  0  0  0  0  0  0  0999 V2000
   -2.6725    2.9705   -0.9058 O   0  0  0  0  0  0  0  0  0  0  0  0
   -3.1183    2.0256   -0.1418 C   0  0  0  0  0  0  0  0  0  0  0  0
   -2.6390    0.6590   -0.2338 C   0  0  0  0  0  0  0  0  0  0  0  0
   -1.5369    0.2349   -0.7798 C   0  0  0  0  0  0  0  0  0  0  0  0
   -1.2337   -1.2127   -0.7665 C   0  0  0  0  0  0  0  0  0  0  0  0
   -2.1180   -2.2619   -0.8971 C   0  0  0  0  0  0  0  0  0  0  0  0
   -1.3931   -3.4007   -0.8272 N   0  0  0  0  0  0  0  0  0  0  0  0
   -1.9524   -4.7070   -0.9220 C   0  0  0  0  0  0  0  0  0  0  0  0
   -2.7627   -5.1071   -1.9639 C   0  0  0  0  0  0  0  0  0  0  0  0
   -3.2894   -6.4024   -2.0133 C   0  0  0  0  0  0  0  0  0  0  0  0
   -2.9938   -7.2950   -1.0032 C   0  0  0  0  0  0  0  0  0  0  0  0
   -2.1883   -6.9155    0.0435 C   0  0  0  0  0  0  0  0  0  0  0  0
   -1.6901   -5.6404    0.0601 C   0  0  0  0  0  0  0  0  0  0  0  0
   -0.1413   -3.0748   -0.6639 N   0  0  0  0  0  0  0  0  0  0  0  0
    0.0168   -1.7180   -0.6187 C   0  0  0  0  0  0  0  0  0  0  0  0
    1.3039   -1.0555   -0.4459 C   0  0  0  0  0  0  0  0  0  0  0  0
    2.3980   -1.4855   -1.1845 C   0  0  0  0  0  0  0  0  0  0  0  0
    3.6405   -0.9120   -1.0738 C   0  0  0  0  0  0  0  0  0  0  0  0
    3.7770    0.1462   -0.1718 C   0  0  0  0  0  0  0  0  0  0  0  0
    4.9917    0.7756   -0.0023 O   0  0  0  0  0  0  0  0  0  0  0  0
    5.1171    1.8385    0.9081 C   0  0  0  0  0  0  0  0  0  0  0  0
    6.5406    2.2846    0.8427 C   0  0  0  0  0  0  0  0  0  0  0  0
    6.8806    3.2703   -0.0726 C   0  0  0  0  0  0  0  0  0  0  0  0
    8.1897    3.6974   -0.1512 C   0  0  0  0  0  0  0  0  0  0  0  0
    9.1522    3.1534    0.6691 C   0  0  0  0  0  0  0  0  0  0  0  0
    8.8321    2.1817    1.5758 C   0  0  0  0  0  0  0  0  0  0  0  0
    7.5082    1.7579    1.6469 C   0  0  0  0  0  0  0  0  0  0  0  0
    2.6986    0.5838    0.5685 C   0  0  0  0  0  0  0  0  0  0  0  0
    1.4666   -0.0129    0.4336 C   0  0  0  0  0  0  0  0  0  0  0  0
   -3.9540   -0.2742    0.5948 S   0  0  0  0  0  0  0  0  0  0  0  0
   -4.4936    1.1461    1.5934 C   0  0  0  0  0  0  0  0  0  0  0  0
   -5.2292    0.9952    3.0292 S   0  0  0  0  0  0  0  0  0  0  0  0
   -4.0972    2.2641    0.8275 N   0  0  0  0  0  0  0  0  0  0  0  0
   -4.6556    3.6044    1.0718 C   0  0  0  0  0  0  0  0  0  0  0  0
   -5.8092    3.9460    0.1909 C   0  0  0  0  0  0  0  0  0  0  0  0
   -7.1564    2.8508    0.4353 S   0  0  0  0  0  6  0  0  0  0  0  0
   -7.6299    2.9086    1.8784 O   0  0  0  0  0  0  0  0  0  0  0  0
   -6.7489    1.4569    0.0885 O   0  0  0  0  0  0  0  0  0  0  0  0
   -8.4556    3.2437   -0.5832 O   0  0  0  0  0  0  0  0  0  0  0  0
   -0.8695    0.9577   -1.2306 H   0  0  0  0  0  0  0  0  0  0  0  0
   -3.1912   -2.1359   -1.0295 H   0  0  0  0  0  0  0  0  0  0  0  0
   -2.9901   -4.4137   -2.7460 H   0  0  0  0  0  0  0  0  0  0  0  0
   -3.9255   -6.7293   -2.8233 H   0  0  0  0  0  0  0  0  0  0  0  0
   -3.3728   -8.3173   -0.9842 H   0  0  0  0  0  0  0  0  0  0  0  0
   -1.9272   -7.5789    0.8573 H   0  0  0  0  0  0  0  0  0  0  0  0
   -1.0538   -5.3381    0.8862 H   0  0  0  0  0  0  0  0  0  0  0  0
    2.3153   -2.3101   -1.8947 H   0  0  0  0  0  0  0  0  0  0  0  0
    4.5096   -1.2159   -1.6269 H   0  0  0  0  0  0  0  0  0  0  0  0
    4.9038    1.4748    1.9497 H   0  0  0  0  0  0  0  0  0  0  0  0
    4.4576    2.6977    0.6884 H   0  0  0  0  0  0  0  0  0  0  0  0
    6.1277    3.6997   -0.7183 H   0  0  0  0  0  0  0  0  0  0  0  0
    8.4869    4.4596   -0.8495 H   0  0  0  0  0  0  0  0  0  0  0  0
   10.1623    3.4912    0.5994 H   0  0  0  0  0  0  0  0  0  0  0  0
    9.6145    1.7810    2.1999 H   0  0  0  0  0  0  0  0  0  0  0  0
    7.2844    0.9875    2.3747 H   0  0  0  0  0  0  0  0  0  0  0  0
    2.7872    1.4088    1.2785 H   0  0  0  0  0  0  0  0  0  0  0  0
    0.6501    0.3608    1.0322 H   0  0  0  0  0  0  0  0  0  0  0  0
   -4.9722    3.7045    2.1224 H   0  0  0  0  0  0  0  0  0  0  0  0
   -3.8475    4.3495    0.9155 H   0  0  0  0  0  0  0  0  0  0  0  0
   -5.5156    3.8406   -0.9036 H   0  0  0  0  0  0  0  0  0  0  0  0
   -6.0842    5.0120    0.3743 H   0  0  0  0  0  0  0  0  0  0  0  0
   -8.1044    3.2943   -1.5080 H   0  0  0  0  0  0  0  0  0  0  0  0
  1  2  2  0
  2  3  1  0
  3  4  2  0
  4  5  1  0
  5  6  2  0
  6  7  1  0
  7  8  1  0
  8  9  2  0
  9 10  1  0
 10 11  2  0
 11 12  1  0
 12 13  2  0
  7 14  1  0
 14 15  2  0
 15 16  1  0
 16 17  2  0
 17 18  1  0
 18 19  2  0
 19 20  1  0
 20 21  1  0
 21 22  1  0
 22 23  2  0
 23 24  1  0
 24 25  2  0
 25 26  1  0
 26 27  2  0
 19 28  1  0
 28 29  2  0
  3 30  1  0
 30 31  1  0
 31 32  2  0
 31 33  1  0
 33 34  1  0
 34 35  1  0
 35 36  1  0
 36 37  2  0
 36 38  2  0
 36 39  1  0
 33  2  1  0
 15  5  1  0
 29 16  1  0
 13  8  1  0
 27 22  1  0
  4 40  1  0
  6 41  1  0
  9 42  1  0
 10 43  1  0
 11 44  1  0
 12 45  1  0
 13 46  1  0
 17 47  1  0
 18 48  1  0
 21 49  1  0
 21 50  1  0
 23 51  1  0
 24 52  1  0
 25 53  1  0
 26 54  1  0
 27 55  1  0
 28 56  1  0
 29 57  1  0
 34 58  1  0
 34 59  1  0
 35 60  1  0
 35 61  1  0
 39 62  1  0
M  END
$$$$
