@<TRIPOS>MOLECULE
*****
 62 63 0 0 0
SMALL
GASTEIGER

@<TRIPOS>ATOM
      1 C           2.5976    0.1473   -0.4563 C.3     1  UNL1        0.0550
      2 C           3.6270    1.1806   -0.6967 C.3     1  UNL1       -0.0204
      3 C           3.2352    2.3424   -1.5642 C.3     1  UNL1        0.0467
      4 C           2.0858    3.0505   -0.9834 C.2     1  UNL1        0.3048
      5 O           2.1165    3.8144    0.1667 O.3     1  UNL1       -0.4806
      6 O           0.9979    2.9101   -1.6403 O.2     1  UNL1       -0.2510
      7 C           3.0822   -0.9592    0.3971 C.3     1  UNL1       -0.0264
      8 C           4.1680   -1.8531    0.0047 C.3     1  UNL1       -0.0258
      9 C           5.5105   -1.4354   -0.2734 C.ar    1  UNL1       -0.0473
     10 C           6.2241   -1.2727    0.9061 C.ar    1  UNL1       -0.0586
     11 C           7.5796   -0.9196    0.9505 C.ar    1  UNL1       -0.0615
     12 C           8.2739   -0.7144   -0.2294 C.ar    1  UNL1       -0.0617
     13 C           7.6125   -0.8626   -1.4482 C.ar    1  UNL1       -0.0615
     14 C           6.2869   -1.2096   -1.4188 C.ar    1  UNL1       -0.0586
     15 N           1.2984    0.6078   -0.1727 N.2     1  UNL1       -0.2514
     16 C           0.5918    0.9144    0.7824 C.2     1  UNL1        0.1827
     17 O           0.7864    0.9449    2.1578 O.2     1  UNL1       -0.4956
     18 C          -0.8262    1.3790    0.5424 C.3     1  UNL1        0.0230
     19 C          -1.8072    0.4835    1.2396 C.3     1  UNL1       -0.0447
     20 C          -3.2073    1.0143    0.9421 C.3     1  UNL1       -0.0526
     21 C          -4.2340    0.1566    1.6288 C.3     1  UNL1       -0.0527
     22 C          -4.1566   -1.2532    1.1547 C.3     1  UNL1       -0.0491
     23 C          -4.4266   -1.3985   -0.3160 C.3     1  UNL1       -0.0277
     24 C          -5.7885   -0.9356   -0.6282 C.ar    1  UNL1       -0.0474
     25 C          -6.7673   -1.9328   -0.5349 C.ar    1  UNL1       -0.0586
     26 C          -8.1025   -1.7231   -0.7837 C.ar    1  UNL1       -0.0615
     27 C          -8.5177   -0.4593   -1.1481 C.ar    1  UNL1       -0.0617
     28 C          -7.5874    0.5545   -1.2527 C.ar    1  UNL1       -0.0615
     29 C          -6.2744    0.2874   -0.9938 C.ar    1  UNL1       -0.0586
     30 H           2.4799   -0.3643   -1.5033 H       1  UNL1        0.0545
     31 H           4.0374    1.5242    0.2880 H       1  UNL1        0.0291
     32 H           4.4711    0.7020   -1.2249 H       1  UNL1        0.0291
     33 H           4.0656    3.1094   -1.6102 H       1  UNL1        0.0378
     34 H           3.0853    2.0548   -2.6194 H       1  UNL1        0.0378
     35 H           1.2609    4.1570    0.6211 H       1  UNL1        0.2951
     36 H           3.2536   -0.5227    1.4359 H       1  UNL1        0.0289
     37 H           2.1736   -1.6250    0.5798 H       1  UNL1        0.0289
     38 H           3.7759   -2.4133   -0.9311 H       1  UNL1        0.0314
     39 H           4.1715   -2.7470    0.7400 H       1  UNL1        0.0314
     40 H           5.8683   -1.3863    1.9256 H       1  UNL1        0.0620
     41 H           8.1756   -0.7810    1.8387 H       1  UNL1        0.0618
     42 H           9.3106   -0.4407   -0.3533 H       1  UNL1        0.0618
     43 H           8.0408   -0.7324   -2.4274 H       1  UNL1        0.0618
     44 H           5.6359   -1.3619   -2.2934 H       1  UNL1        0.0620
     45 H           1.5330    0.4285    2.6114 H       1  UNL1        0.2934
     46 H          -1.0075    1.2804   -0.5416 H       1  UNL1        0.0359
     47 H          -0.9565    2.4302    0.8590 H       1  UNL1        0.0359
     48 H          -1.6637   -0.5488    0.9119 H       1  UNL1        0.0270
     49 H          -1.6145    0.5765    2.3463 H       1  UNL1        0.0270
     50 H          -3.3830    1.0191   -0.1382 H       1  UNL1        0.0265
     51 H          -3.2432    2.0677    1.3263 H       1  UNL1        0.0265
     52 H          -4.0979    0.1917    2.7337 H       1  UNL1        0.0265
     53 H          -5.2412    0.5596    1.3968 H       1  UNL1        0.0265
     54 H          -3.2044   -1.7679    1.4133 H       1  UNL1        0.0268
     55 H          -4.9474   -1.8771    1.6627 H       1  UNL1        0.0268
     56 H          -4.2815   -2.4603   -0.6029 H       1  UNL1        0.0313
     57 H          -3.7158   -0.8091   -0.9588 H       1  UNL1        0.0313
     58 H          -6.5324   -2.9614   -0.2528 H       1  UNL1        0.0620
     59 H          -8.8521   -2.4875   -0.7128 H       1  UNL1        0.0618
     60 H          -9.5660   -0.2842   -1.3457 H       1  UNL1        0.0618
     61 H          -7.8672    1.5554   -1.5343 H       1  UNL1        0.0618
     62 H          -5.5435    1.0558   -1.0715 H       1  UNL1        0.0620
@<TRIPOS>BOND
     1     1     2    1
     2     2     3    1
     3     3     4    1
     4     4     5    1
     5     4     6    2
     6     1     7    1
     7     7     8    1
     8     8     9    1
     9     9    10   ar
    10    10    11   ar
    11    11    12   ar
    12    12    13   ar
    13    13    14   ar
    14     1    15    1
    15    15    16    2
    16    16    17    1
    17    16    18    1
    18    18    19    1
    19    19    20    1
    20    20    21    1
    21    21    22    1
    22    22    23    1
    23    23    24    1
    24    24    25   ar
    25    25    26   ar
    26    26    27   ar
    27    27    28   ar
    28    28    29   ar
    29    14     9   ar
    30    29    24   ar
    31     1    30    1
    32     2    31    1
    33     2    32    1
    34     3    33    1
    35     3    34    1
    36     5    35    1
    37     7    36    1
    38     7    37    1
    39     8    38    1
    40     8    39    1
    41    10    40    1
    42    11    41    1
    43    12    42    1
    44    13    43    1
    45    14    44    1
    46    17    45    1
    47    18    46    1
    48    18    47    1
    49    19    48    1
    50    19    49    1
    51    20    50    1
    52    20    51    1
    53    21    52    1
    54    21    53    1
    55    22    54    1
    56    22    55    1
    57    23    56    1
    58    23    57    1
    59    25    58    1
    60    26    59    1
    61    27    60    1
    62    28    61    1
    63    29    62    1
