
     RDKit          3D

 47 50  0  0  0  0  0  0  0  0999 V2000
   -2.3200    2.4265   -1.7592 C   0  0  0  0  0  0  0  0  0  0  0  0
   -2.2694    1.0039   -1.2961 C   0  0  2  0  0  0  0  0  0  0  0  0
   -1.1977    0.9197   -0.2790 C   0  0  0  0  0  0  0  0  0  0  0  0
   -0.1398    0.0602   -0.3876 C   0  0  0  0  0  0  0  0  0  0  0  0
    0.7670    0.0921    0.6331 C   0  0  0  0  0  0  0  0  0  0  0  0
    1.8343   -0.8197    0.7933 C   0  0  0  0  0  0  0  0  0  0  0  0
    2.8368   -1.5492    0.9070 C   0  0  0  0  0  0  0  0  0  0  0  0
    2.3386   -2.8109    1.3264 F   0  0  0  0  0  0  0  0  0  0  0  0
    4.2511   -1.3119    0.7875 C   0  0  0  0  0  0  0  0  0  0  0  0
    5.1999   -2.0469    1.4722 C   0  0  0  0  0  0  0  0  0  0  0  0
    6.5508   -1.6224    1.4789 C   0  0  0  0  0  0  0  0  0  0  0  0
    6.9112   -0.4860    0.8187 C   0  0  0  0  0  0  0  0  0  0  0  0
    8.1379    0.3319    1.0445 C   0  0  0  0  0  0  0  0  0  0  0  0
    9.1129    0.9772    1.2431 N   0  0  0  0  0  0  0  0  0  0  0  0
    5.9157    0.2326    0.1037 C   0  0  0  0  0  0  0  0  0  0  0  0
    4.6949   -0.2180    0.1400 N   0  0  0  0  0  0  0  0  0  0  0  0
    0.6134    0.9949    1.7431 C   0  0  0  0  0  0  0  0  0  0  0  0
   -0.4556    1.8383    1.8116 C   0  0  0  0  0  0  0  0  0  0  0  0
   -1.3420    1.7842    0.7970 C   0  0  0  0  0  0  0  0  0  0  0  0
   -2.4277    2.6396    0.8859 F   0  0  0  0  0  0  0  0  0  0  0  0
   -2.0440    0.1738   -2.3286 N   0  0  0  0  0  0  0  0  0  0  0  0
   -2.0838   -1.1475   -2.5169 C   0  0  0  0  0  0  0  0  0  0  0  0
   -1.7513   -1.6400   -3.7981 N   0  0  0  0  0  0  0  0  0  0  0  0
   -2.6907   -1.9293   -1.0715 S   0  0  0  0  0  0  0  0  0  0  0  0
   -3.8378   -0.6876   -0.3207 C   0  0  1  0  0  0  0  0  0  0  0  0
   -5.2261   -1.1255   -0.2321 C   0  0  0  0  0  0  0  0  0  0  0  0
   -6.3110   -0.2413   -0.4736 N   0  0  0  0  0  0  0  0  0  0  0  0
   -5.5432   -2.3538    0.0790 O   0  0  0  0  0  0  0  0  0  0  0  0
   -3.3705    0.1108    0.8524 C   0  0  0  0  0  0  0  0  0  0  0  0
   -3.5380    0.7023   -0.5267 C   0  0  1  0  0  0  0  0  0  0  0  0
   -2.6095    2.4541   -2.8505 H   0  0  0  0  0  0  0  0  0  0  0  0
   -3.0018    3.1003   -1.2112 H   0  0  0  0  0  0  0  0  0  0  0  0
   -1.2890    2.8868   -1.8004 H   0  0  0  0  0  0  0  0  0  0  0  0
   -0.0256   -0.6321   -1.2070 H   0  0  0  0  0  0  0  0  0  0  0  0
    2.7382    0.2769    0.6627 H   0  0  0  0  0  0  0  0  0  0  0  0
    4.8497   -2.9382    1.9651 H   0  0  0  0  0  0  0  0  0  0  0  0
    7.3009   -2.1261    2.0134 H   0  0  0  0  0  0  0  0  0  0  0  0
    6.2638    1.0987   -0.4488 H   0  0  0  0  0  0  0  0  0  0  0  0
    1.3851    0.9874    2.5333 H   0  0  0  0  0  0  0  0  0  0  0  0
   -0.5728    2.5104    2.6595 H   0  0  0  0  0  0  0  0  0  0  0  0
   -1.8784   -0.9892   -4.6102 H   0  0  0  0  0  0  0  0  0  0  0  0
   -1.4000   -2.5894   -4.0510 H   0  0  0  0  0  0  0  0  0  0  0  0
   -6.7179   -0.0783   -1.4524 H   0  0  0  0  0  0  0  0  0  0  0  0
   -6.7612    0.2889    0.3579 H   0  0  0  0  0  0  0  0  0  0  0  0
   -4.1357    0.2790    1.6406 H   0  0  0  0  0  0  0  0  0  0  0  0
   -2.4149   -0.2621    1.2479 H   0  0  0  0  0  0  0  0  0  0  0  0
   -4.3470    1.4352   -0.6806 H   0  0  0  0  0  0  0  0  0  0  0  0
  2  1  1  6
  2  3  1  0
  3  4  2  0
  4  5  1  0
  5  6  1  0
  6  7  2  0
  7  8  1  0
  7  9  1  0
  9 10  2  0
 10 11  1  0
 11 12  2  0
 12 13  1  0
 13 14  3  0
 12 15  1  0
 15 16  2  0
  5 17  2  0
 17 18  1  0
 18 19  2  0
 19 20  1  0
  2 21  1  0
 21 22  2  0
 22 23  1  0
 22 24  1  0
 24 25  1  0
 25 26  1  1
 26 27  1  0
 26 28  2  0
 25 29  1  0
 29 30  1  0
 30  2  1  0
 19  3  1  0
 30 25  1  0
 16  9  1  0
  1 31  1  0
  1 32  1  0
  1 33  1  0
  4 34  1  0
  6 35  1  0
 10 36  1  0
 11 37  1  0
 15 38  1  0
 17 39  1  0
 18 40  1  0
 23 41  1  0
 23 42  1  0
 27 43  1  0
 27 44  1  0
 29 45  1  0
 29 46  1  0
 30 47  1  1
M  END
$$$$
