@<TRIPOS>MOLECULE
*****
 47 50 0 0 0
SMALL
GASTEIGER

@<TRIPOS>ATOM
      1 C          -2.3200    2.4265   -1.7592 C.3     1  UNL1       -0.0351
      2 C          -2.2694    1.0039   -1.2961 C.3     1  UNL1        0.0935
      3 C          -1.1977    0.9197   -0.2790 C.ar    1  UNL1        0.0158
      4 C          -0.1398    0.0602   -0.3876 C.ar    1  UNL1       -0.0463
      5 C           0.7670    0.0921    0.6331 C.ar    1  UNL1       -0.0217
      6 C           1.8343   -0.8197    0.7933 C.2     1  UNL1       -0.0172
      7 C           2.8368   -1.5492    0.9070 C.2     1  UNL1        0.1492
      8 F           2.3386   -2.8109    1.3264 F       1  UNL1       -0.2032
      9 C           4.2511   -1.3119    0.7875 C.ar    1  UNL1        0.0990
     10 C           5.1999   -2.0469    1.4722 C.ar    1  UNL1       -0.0322
     11 C           6.5508   -1.6224    1.4789 C.ar    1  UNL1       -0.0408
     12 C           6.9112   -0.4860    0.8187 C.ar    1  UNL1        0.0699
     13 C           8.1379    0.3319    1.0445 C.1     1  UNL1        0.1007
     14 N           9.1129    0.9772    1.2431 N.1     1  UNL1       -0.1908
     15 C           5.9157    0.2326    0.1037 C.ar    1  UNL1        0.0457
     16 N           4.6949   -0.2180    0.1400 N.ar    1  UNL1       -0.2514
     17 C           0.6134    0.9949    1.7431 C.ar    1  UNL1       -0.0518
     18 C          -0.4556    1.8383    1.8116 C.ar    1  UNL1       -0.0255
     19 C          -1.3420    1.7842    0.7970 C.ar    1  UNL1        0.1289
     20 F          -2.4277    2.6396    0.8859 F       1  UNL1       -0.2051
     21 N          -2.0440    0.1738   -2.3286 N.2     1  UNL1       -0.2521
     22 C          -2.0838   -1.1475   -2.5169 C.2     1  UNL1        0.1485
     23 N          -1.7513   -1.6400   -3.7981 N.pl3   1  UNL1       -0.3380
     24 S          -2.6907   -1.9293   -1.0715 S.3     1  UNL1       -0.0746
     25 C          -3.8378   -0.6876   -0.3207 C.3     1  UNL1        0.1050
     26 C          -5.2261   -1.1255   -0.2321 C.2     1  UNL1        0.2273
     27 N          -6.3110   -0.2413   -0.4736 N.am    1  UNL1       -0.3282
     28 O          -5.5432   -2.3538    0.0790 O.2     1  UNL1       -0.2745
     29 C          -3.3705    0.1108    0.8524 C.3     1  UNL1       -0.0220
     30 C          -3.5380    0.7023   -0.5267 C.3     1  UNL1        0.0134
     31 H          -2.6095    2.4541   -2.8505 H       1  UNL1        0.0256
     32 H          -3.0018    3.1003   -1.2112 H       1  UNL1        0.0256
     33 H          -1.2890    2.8868   -1.8004 H       1  UNL1        0.0256
     34 H          -0.0256   -0.6321   -1.2070 H       1  UNL1        0.0628
     35 H           2.7382    0.2769    0.6627 H       1  UNL1        0.0653
     36 H           4.8497   -2.9382    1.9651 H       1  UNL1        0.0640
     37 H           7.3009   -2.1261    2.0134 H       1  UNL1        0.0631
     38 H           6.2638    1.0987   -0.4488 H       1  UNL1        0.0843
     39 H           1.3851    0.9874    2.5333 H       1  UNL1        0.0624
     40 H          -0.5728    2.5104    2.6595 H       1  UNL1        0.0646
     41 H          -1.8784   -0.9892   -4.6102 H       1  UNL1        0.1442
     42 H          -1.4000   -2.5894   -4.0510 H       1  UNL1        0.1442
     43 H          -6.7179   -0.0783   -1.4524 H       1  UNL1        0.1450
     44 H          -6.7612    0.2889    0.3579 H       1  UNL1        0.1450
     45 H          -4.1357    0.2790    1.6406 H       1  UNL1        0.0287
     46 H          -2.4149   -0.2621    1.2479 H       1  UNL1        0.0287
     47 H          -4.3470    1.4352   -0.6806 H       1  UNL1        0.0346
@<TRIPOS>BOND
     1     2     1    1
     2     2     3    1
     3     3     4   ar
     4     4     5   ar
     5     5     6    1
     6     6     7    2
     7     7     8    1
     8     7     9    1
     9     9    10   ar
    10    10    11   ar
    11    11    12   ar
    12    12    13    1
    13    13    14    3
    14    12    15   ar
    15    15    16   ar
    16     5    17   ar
    17    17    18   ar
    18    18    19   ar
    19    19    20    1
    20     2    21    1
    21    21    22    2
    22    22    23    1
    23    22    24    1
    24    24    25    1
    25    25    26    1
    26    26    27   am
    27    26    28    2
    28    25    29    1
    29    29    30    1
    30    30     2    1
    31    19     3   ar
    32    30    25    1
    33    16     9   ar
    34     1    31    1
    35     1    32    1
    36     1    33    1
    37     4    34    1
    38     6    35    1
    39    10    36    1
    40    11    37    1
    41    15    38    1
    42    17    39    1
    43    18    40    1
    44    23    41    1
    45    23    42    1
    46    27    43    1
    47    27    44    1
    48    29    45    1
    49    29    46    1
    50    30    47    1
