
     RDKit          3D

 49 54  0  0  0  0  0  0  0  0999 V2000
    7.9638    1.0239    0.0598 C   0  0  0  0  0  0  0  0  0  0  0  0
    6.5892    1.1147   -0.3869 N   0  0  0  0  0  0  0  0  0  0  0  0
    6.2324    1.5198   -1.7006 C   0  0  0  0  0  0  0  0  0  0  0  0
    7.1111    2.0831   -2.4238 O   0  0  0  0  0  0  0  0  0  0  0  0
    4.8685    1.2913   -2.2153 C   0  0  0  0  0  0  0  0  0  0  0  0
    3.9015    1.2611   -1.1703 O   0  0  0  0  0  0  0  0  0  0  0  0
    4.2337    0.8669    0.1058 C   0  0  0  0  0  0  0  0  0  0  0  0
    5.5460    0.7848    0.5217 C   0  0  0  0  0  0  0  0  0  0  0  0
    5.8257    0.3870    1.8030 C   0  0  0  0  0  0  0  0  0  0  0  0
    4.8685    0.0667    2.6914 N   0  0  0  0  0  0  0  0  0  0  0  0
    3.5641    0.1364    2.3151 C   0  0  0  0  0  0  0  0  0  0  0  0
    2.5993   -0.2001    3.2447 C   0  0  0  0  0  0  0  0  0  0  0  0
    1.2685   -0.1176    2.8149 C   0  0  0  0  0  0  0  0  0  0  0  0
    0.9422    0.2740    1.5468 C   0  0  0  0  0  0  0  0  0  0  0  0
   -0.7603    0.3508    1.0588 S   0  0  0  0  0  0  0  0  0  0  0  0
   -1.1916   -1.2415    0.3844 C   0  0  0  0  0  0  0  0  0  0  0  0
   -0.4354   -2.3365    0.2410 N   0  0  0  0  0  0  0  0  0  0  0  0
   -1.1060   -3.3283   -0.3037 N   0  0  0  0  0  0  0  0  0  0  0  0
   -2.3589   -2.8541   -0.5248 C   0  0  0  0  0  0  0  0  0  0  0  0
   -3.4966   -3.4273   -1.0696 C   0  0  0  0  0  0  0  0  0  0  0  0
   -3.4229   -4.7085   -1.4859 F   0  0  0  0  0  0  0  0  0  0  0  0
   -4.6336   -2.6597   -1.1552 C   0  0  0  0  0  0  0  0  0  0  0  0
   -4.6859   -1.3529   -0.7239 C   0  0  0  0  0  0  0  0  0  0  0  0
   -5.8733   -0.5125   -0.7996 C   0  0  0  0  0  0  0  0  0  0  0  0
   -6.8209   -0.6231   -1.7951 C   0  0  0  0  0  0  0  0  0  0  0  0
   -7.7377    0.3176   -1.5077 N   0  0  0  0  0  0  0  0  0  0  0  0
   -7.3977    0.9758   -0.4125 N   0  0  0  0  0  0  0  0  0  0  0  0
   -8.1611    2.0687    0.1949 C   0  0  0  0  0  0  0  0  0  0  0  0
   -6.2322    0.4934    0.0738 C   0  0  0  0  0  0  0  0  0  0  0  0
   -3.5161   -0.8242   -0.1844 C   0  0  0  0  0  0  0  0  0  0  0  0
   -2.3990   -1.5676   -0.0968 N   0  0  0  0  0  0  0  0  0  0  0  0
    1.9242    0.6006    0.6514 C   0  0  0  0  0  0  0  0  0  0  0  0
    3.2549    0.5327    1.0351 C   0  0  0  0  0  0  0  0  0  0  0  0
    8.6178    1.1961   -0.8193 H   0  0  0  0  0  0  0  0  0  0  0  0
    8.1974    0.0485    0.5123 H   0  0  0  0  0  0  0  0  0  0  0  0
    8.2228    1.8391    0.7856 H   0  0  0  0  0  0  0  0  0  0  0  0
    4.5888    2.1176   -2.9313 H   0  0  0  0  0  0  0  0  0  0  0  0
    4.7755    0.3181   -2.7416 H   0  0  0  0  0  0  0  0  0  0  0  0
    6.8725    0.3373    2.0849 H   0  0  0  0  0  0  0  0  0  0  0  0
    2.8495   -0.5123    4.2542 H   0  0  0  0  0  0  0  0  0  0  0  0
    0.4887   -0.3795    3.5349 H   0  0  0  0  0  0  0  0  0  0  0  0
   -5.5580   -3.0668   -1.5777 H   0  0  0  0  0  0  0  0  0  0  0  0
   -6.8769   -1.2914   -2.6429 H   0  0  0  0  0  0  0  0  0  0  0  0
   -7.4873    2.8564    0.5692 H   0  0  0  0  0  0  0  0  0  0  0  0
   -8.7773    1.6468    1.0181 H   0  0  0  0  0  0  0  0  0  0  0  0
   -8.8415    2.5229   -0.5570 H   0  0  0  0  0  0  0  0  0  0  0  0
   -5.7122    0.8391    0.9602 H   0  0  0  0  0  0  0  0  0  0  0  0
   -3.5381    0.2110    0.1632 H   0  0  0  0  0  0  0  0  0  0  0  0
    1.7136    0.9218   -0.3801 H   0  0  0  0  0  0  0  0  0  0  0  0
  1  2  1  0
  2  3  1  0
  3  4  2  0
  3  5  1  0
  5  6  1  0
  6  7  1  0
  7  8  2  0
  8  9  1  0
  9 10  2  0
 10 11  1  0
 11 12  2  0
 12 13  1  0
 13 14  2  0
 14 15  1  0
 15 16  1  0
 16 17  2  0
 17 18  1  0
 18 19  2  0
 19 20  1  0
 20 21  1  0
 20 22  2  0
 22 23  1  0
 23 24  1  0
 24 25  1  0
 25 26  2  0
 26 27  1  0
 27 28  1  0
 27 29  1  0
 23 30  2  0
 30 31  1  0
 14 32  1  0
 32 33  2  0
  8  2  1  0
 33 11  1  0
 33  7  1  0
 31 16  1  0
 31 19  1  0
 29 24  2  0
  1 34  1  0
  1 35  1  0
  1 36  1  0
  5 37  1  0
  5 38  1  0
  9 39  1  0
 12 40  1  0
 13 41  1  0
 22 42  1  0
 25 43  1  0
 28 44  1  0
 28 45  1  0
 28 46  1  0
 29 47  1  0
 30 48  1  0
 32 49  1  0
M  END
$$$$
