@<TRIPOS>MOLECULE
*****
 49 54 0 0 0
SMALL
GASTEIGER

@<TRIPOS>ATOM
      1 C           7.9638    1.0239    0.0598 C.3     1  UNL1        0.0085
      2 N           6.5892    1.1147   -0.3869 N.am    1  UNL1       -0.2674
      3 C           6.2324    1.5198   -1.7006 C.2     1  UNL1        0.2573
      4 O           7.1111    2.0831   -2.4238 O.2     1  UNL1       -0.2715
      5 C           4.8685    1.2913   -2.2153 C.3     1  UNL1        0.1658
      6 O           3.9015    1.2611   -1.1703 O.3     1  UNL1       -0.4802
      7 C           4.2337    0.8669    0.1058 C.ar    1  UNL1        0.1531
      8 C           5.5460    0.7848    0.5217 C.ar    1  UNL1        0.0970
      9 C           5.8257    0.3870    1.8030 C.ar    1  UNL1        0.0532
     10 N           4.8685    0.0667    2.6914 N.ar    1  UNL1       -0.2529
     11 C           3.5641    0.1364    2.3151 C.ar    1  UNL1        0.0747
     12 C           2.5993   -0.2001    3.2447 C.ar    1  UNL1       -0.0346
     13 C           1.2685   -0.1176    2.8149 C.ar    1  UNL1       -0.0458
     14 C           0.9422    0.2740    1.5468 C.ar    1  UNL1        0.0164
     15 S          -0.7603    0.3508    1.0588 S.3     1  UNL1       -0.0496
     16 C          -1.1916   -1.2415    0.3844 C.ar    1  UNL1        0.2007
     17 N          -0.4354   -2.3365    0.2410 N.ar    1  UNL1       -0.1214
     18 N          -1.1060   -3.3283   -0.3037 N.ar    1  UNL1       -0.1256
     19 C          -2.3589   -2.8541   -0.5248 C.ar    1  UNL1        0.1972
     20 C          -3.4966   -3.4273   -1.0696 C.ar    1  UNL1        0.1684
     21 F          -3.4229   -4.7085   -1.4859 F       1  UNL1       -0.2016
     22 C          -4.6336   -2.6597   -1.1552 C.ar    1  UNL1       -0.0135
     23 C          -4.6859   -1.3529   -0.7239 C.ar    1  UNL1        0.0045
     24 C          -5.8733   -0.5125   -0.7996 C.ar    1  UNL1        0.0210
     25 C          -6.8209   -0.6231   -1.7951 C.ar    1  UNL1        0.0571
     26 N          -7.7377    0.3176   -1.5077 N.ar    1  UNL1       -0.1793
     27 N          -7.3977    0.9758   -0.4125 N.ar    1  UNL1       -0.2739
     28 C          -8.1611    2.0687    0.1949 C.3     1  UNL1        0.0302
     29 C          -6.2322    0.4934    0.0738 C.ar    1  UNL1        0.0329
     30 C          -3.5161   -0.8242   -0.1844 C.ar    1  UNL1        0.0216
     31 N          -2.3990   -1.5676   -0.0968 N.ar    1  UNL1       -0.2744
     32 C           1.9242    0.6006    0.6514 C.ar    1  UNL1       -0.0351
     33 C           3.2549    0.5327    1.0351 C.ar    1  UNL1        0.0450
     34 H           8.6178    1.1961   -0.8193 H       1  UNL1        0.0433
     35 H           8.1974    0.0485    0.5123 H       1  UNL1        0.0433
     36 H           8.2228    1.8391    0.7856 H       1  UNL1        0.0433
     37 H           4.5888    2.1176   -2.9313 H       1  UNL1        0.0795
     38 H           4.7755    0.3181   -2.7416 H       1  UNL1        0.0795
     39 H           6.8725    0.3373    2.0849 H       1  UNL1        0.0850
     40 H           2.8495   -0.5123    4.2542 H       1  UNL1        0.0639
     41 H           0.4887   -0.3795    3.5349 H       1  UNL1        0.0629
     42 H          -5.5580   -3.0668   -1.5777 H       1  UNL1        0.0654
     43 H          -6.8769   -1.2914   -2.6429 H       1  UNL1        0.0854
     44 H          -7.4873    2.8564    0.5692 H       1  UNL1        0.0473
     45 H          -8.7773    1.6468    1.0181 H       1  UNL1        0.0473
     46 H          -8.8415    2.5229   -0.5570 H       1  UNL1        0.0473
     47 H          -5.7122    0.8391    0.9602 H       1  UNL1        0.0832
     48 H          -3.5381    0.2110    0.1632 H       1  UNL1        0.0820
     49 H           1.7136    0.9218   -0.3801 H       1  UNL1        0.0636
@<TRIPOS>BOND
     1     1     2    1
     2     2     3   am
     3     3     4    2
     4     3     5    1
     5     5     6    1
     6     6     7    1
     7     7     8   ar
     8     8     9   ar
     9     9    10   ar
    10    10    11   ar
    11    11    12   ar
    12    12    13   ar
    13    13    14   ar
    14    14    15    1
    15    15    16    1
    16    16    17   ar
    17    17    18   ar
    18    18    19   ar
    19    19    20   ar
    20    20    21    1
    21    20    22   ar
    22    22    23   ar
    23    23    24    1
    24    24    25   ar
    25    25    26   ar
    26    26    27   ar
    27    27    28    1
    28    27    29   ar
    29    23    30   ar
    30    30    31   ar
    31    14    32   ar
    32    32    33   ar
    33     8     2    1
    34    33    11   ar
    35    33     7   ar
    36    31    16   ar
    37    31    19   ar
    38    29    24   ar
    39     1    34    1
    40     1    35    1
    41     1    36    1
    42     5    37    1
    43     5    38    1
    44     9    39    1
    45    12    40    1
    46    13    41    1
    47    22    42    1
    48    25    43    1
    49    28    44    1
    50    28    45    1
    51    28    46    1
    52    29    47    1
    53    30    48    1
    54    32    49    1
