
     RDKit          3D

 27 29  0  0  0  0  0  0  0  0999 V2000
   -5.7406    0.4760   -0.0253 O   0  0  0  0  0  0  0  0  0  0  0  0
   -4.3525    0.3664    0.0829 C   0  0  0  0  0  0  0  0  0  0  0  0
   -3.6428    1.2803    0.8528 C   0  0  0  0  0  0  0  0  0  0  0  0
   -2.2797    1.0853    0.8947 C   0  0  0  0  0  0  0  0  0  0  0  0
   -1.5933    0.0784    0.2464 C   0  0  0  0  0  0  0  0  0  0  0  0
   -2.3975   -0.7699   -0.4880 C   0  0  0  0  0  0  0  0  0  0  0  0
   -3.7598   -0.6892   -0.6141 C   0  0  0  0  0  0  0  0  0  0  0  0
   -0.1952   -0.0376    0.3513 N   0  0  0  0  0  0  0  0  0  0  0  0
    0.6475   -0.0803    1.3715 N   0  0  0  0  0  0  0  0  0  0  0  0
    1.9089   -0.1994    0.9544 C   0  0  0  0  0  0  0  0  0  0  0  0
    3.1668   -0.2905    1.5161 C   0  0  0  0  0  0  0  0  0  0  0  0
    4.3381   -0.4106    0.7966 C   0  0  0  0  0  0  0  0  0  0  0  0
    4.2615   -0.4435   -0.5954 C   0  0  0  0  0  0  0  0  0  0  0  0
    5.4561   -0.5647   -1.2863 O   0  0  0  0  0  0  0  0  0  0  0  0
    3.0105   -0.3534   -1.1704 C   0  0  0  0  0  0  0  0  0  0  0  0
    1.8553   -0.2341   -0.4278 C   0  0  0  0  0  0  0  0  0  0  0  0
    0.5106   -0.1304   -0.8050 C   0  0  0  0  0  0  0  0  0  0  0  0
   -0.0162   -0.1333   -2.4854 Cl  0  0  0  0  0  0  0  0  0  0  0  0
   -6.1460    1.2408   -0.5846 H   0  0  0  0  0  0  0  0  0  0  0  0
   -4.1601    2.0615    1.3579 H   0  0  0  0  0  0  0  0  0  0  0  0
   -1.7474    1.8259    1.5127 H   0  0  0  0  0  0  0  0  0  0  0  0
   -1.8883   -1.5880   -1.0214 H   0  0  0  0  0  0  0  0  0  0  0  0
   -4.3438   -1.3724   -1.1969 H   0  0  0  0  0  0  0  0  0  0  0  0
    3.2072   -0.2627    2.6160 H   0  0  0  0  0  0  0  0  0  0  0  0
    5.2753   -0.4755    1.3179 H   0  0  0  0  0  0  0  0  0  0  0  0
    5.6412    0.0032   -2.1180 H   0  0  0  0  0  0  0  0  0  0  0  0
    2.9842   -0.3822   -2.2633 H   0  0  0  0  0  0  0  0  0  0  0  0
  1  2  1  0
  2  3  2  0
  3  4  1  0
  4  5  2  0
  5  6  1  0
  6  7  2  0
  5  8  1  0
  8  9  1  0
  9 10  2  0
 10 11  1  0
 11 12  2  0
 12 13  1  0
 13 14  1  0
 13 15  2  0
 15 16  1  0
 16 17  2  0
 17 18  1  0
  7  2  1  0
 17  8  1  0
 16 10  1  0
  1 19  1  0
  3 20  1  0
  4 21  1  0
  6 22  1  0
  7 23  1  0
 11 24  1  0
 12 25  1  0
 14 26  1  0
 15 27  1  0
M  END
$$$$
