@<TRIPOS>MOLECULE
*****
 27 29 0 0 0
SMALL
GASTEIGER

@<TRIPOS>ATOM
      1 O          -5.7406    0.4760   -0.0253 O.3     1  UNL1       -0.5068
      2 C          -4.3525    0.3664    0.0829 C.ar    1  UNL1        0.1170
      3 C          -3.6428    1.2803    0.8528 C.ar    1  UNL1       -0.0182
      4 C          -2.2797    1.0853    0.8947 C.ar    1  UNL1       -0.0328
      5 C          -1.5933    0.0784    0.2464 C.ar    1  UNL1        0.0672
      6 C          -2.3975   -0.7699   -0.4880 C.ar    1  UNL1       -0.0328
      7 C          -3.7598   -0.6892   -0.6141 C.ar    1  UNL1       -0.0182
      8 N          -0.1952   -0.0376    0.3513 N.ar    1  UNL1       -0.2203
      9 N           0.6475   -0.0803    1.3715 N.ar    1  UNL1       -0.1650
     10 C           1.9089   -0.1994    0.9544 C.ar    1  UNL1        0.0948
     11 C           3.1668   -0.2905    1.5161 C.ar    1  UNL1       -0.0305
     12 C           4.3381   -0.4106    0.7966 C.ar    1  UNL1       -0.0181
     13 C           4.2615   -0.4435   -0.5954 C.ar    1  UNL1        0.1176
     14 O           5.4561   -0.5647   -1.2863 O.3     1  UNL1       -0.5067
     15 C           3.0105   -0.3534   -1.1704 C.ar    1  UNL1       -0.0080
     16 C           1.8553   -0.2341   -0.4278 C.ar    1  UNL1        0.0423
     17 C           0.5106   -0.1304   -0.8050 C.ar    1  UNL1        0.1406
     18 CL         -0.0162   -0.1333   -2.4854 Cl      1  UNL1       -0.0613
     19 H          -6.1460    1.2408   -0.5846 H       1  UNL1        0.2921
     20 H          -4.1601    2.0615    1.3579 H       1  UNL1        0.0655
     21 H          -1.7474    1.8259    1.5127 H       1  UNL1        0.0640
     22 H          -1.8883   -1.5880   -1.0214 H       1  UNL1        0.0640
     23 H          -4.3438   -1.3724   -1.1969 H       1  UNL1        0.0655
     24 H           3.2072   -0.2627    2.6160 H       1  UNL1        0.0641
     25 H           5.2753   -0.4755    1.3179 H       1  UNL1        0.0655
     26 H           5.6412    0.0032   -2.1180 H       1  UNL1        0.2921
     27 H           2.9842   -0.3822   -2.2633 H       1  UNL1        0.0661
@<TRIPOS>BOND
     1     1     2    1
     2     2     3   ar
     3     3     4   ar
     4     4     5   ar
     5     5     6   ar
     6     6     7   ar
     7     5     8    1
     8     8     9   ar
     9     9    10   ar
    10    10    11   ar
    11    11    12   ar
    12    12    13   ar
    13    13    14    1
    14    13    15   ar
    15    15    16   ar
    16    16    17   ar
    17    17    18    1
    18     7     2   ar
    19    17     8   ar
    20    16    10   ar
    21     1    19    1
    22     3    20    1
    23     4    21    1
    24     6    22    1
    25     7    23    1
    26    11    24    1
    27    12    25    1
    28    14    26    1
    29    15    27    1
