
     RDKit          3D

 74 77  0  0  0  0  0  0  0  0999 V2000
   -3.5485   -4.7822    1.3625 C   0  0  0  0  0  0  0  0  0  0  0  0
   -3.1881   -3.9117    0.1658 C   0  0  0  0  0  0  0  0  0  0  0  0
   -2.5838   -4.7609   -0.9417 C   0  0  0  0  0  0  0  0  0  0  0  0
   -2.3429   -2.8513    0.5311 O   0  0  0  0  0  0  0  0  0  0  0  0
   -2.6679   -1.5224    0.4017 C   0  0  0  0  0  0  0  0  0  0  0  0
   -1.6425   -0.6764    0.8412 C   0  0  0  0  0  0  0  0  0  0  0  0
   -0.4034   -1.1354    1.3688 N   0  0  0  0  0  0  0  0  0  0  0  0
    0.6852   -0.3460    1.8313 C   0  0  0  0  0  0  0  0  0  0  0  0
    0.7288    0.0666    3.1191 N   0  0  0  0  0  0  0  0  0  0  0  0
    1.7497    0.8113    3.5740 C   0  0  0  0  0  0  0  0  0  0  0  0
    2.7672    1.1470    2.6729 C   0  0  0  0  0  0  0  0  0  0  0  0
    4.0467    2.1208    3.3782 Cl  0  0  0  0  0  0  0  0  0  0  0  0
    2.7154    0.7163    1.3416 C   0  0  0  0  0  0  0  0  0  0  0  0
    1.6568   -0.0255    0.9713 N   0  0  0  0  0  0  0  0  0  0  0  0
    3.7328    1.1313    0.7061 N   0  0  0  0  0  0  0  0  0  0  0  0
    4.0517    0.9154   -0.6450 C   0  0  0  0  0  0  0  0  0  0  0  0
    3.2753    1.0861   -1.7724 C   0  0  0  0  0  0  0  0  0  0  0  0
    3.7607    0.8205   -3.0332 C   0  0  0  0  0  0  0  0  0  0  0  0
    5.0497    0.3698   -3.2351 C   0  0  0  0  0  0  0  0  0  0  0  0
    5.8223    0.2006   -2.1066 C   0  0  0  0  0  0  0  0  0  0  0  0
    5.3640    0.4598   -0.8102 C   0  0  0  0  0  0  0  0  0  0  0  0
    6.4864    0.1891    0.5198 S   0  0  0  0  0  0  0  0  0  0  0  0
    5.9465   -0.8271    1.4829 O   0  0  0  0  0  0  0  0  0  0  0  0
    6.6321    1.4784    1.2346 O   0  0  0  0  0  0  0  0  0  0  0  0
    8.0445   -0.3781   -0.0756 C   0  0  0  0  0  0  0  0  0  0  0  0
    8.8150    0.6806   -0.8206 C   0  0  0  0  0  0  0  0  0  0  0  0
    8.8795   -0.7152    1.1673 C   0  0  0  0  0  0  0  0  0  0  0  0
   -1.8317    0.6972    0.7693 C   0  0  0  0  0  0  0  0  0  0  0  0
   -3.0220    1.2456    0.2686 C   0  0  0  0  0  0  0  0  0  0  0  0
   -3.1091    2.6969    0.2484 C   0  0  0  0  0  0  0  0  0  0  0  0
   -4.0502    0.4399   -0.1717 C   0  0  0  0  0  0  0  0  0  0  0  0
   -3.8003   -0.9123   -0.0741 C   0  0  0  0  0  0  0  0  0  0  0  0
   -5.3056    0.9643   -0.7050 C   0  0  0  0  0  0  0  0  0  0  0  0
   -6.3328    1.2922    0.3631 C   0  0  0  0  0  0  0  0  0  0  0  0
   -7.6643    1.3648   -0.3566 C   0  0  0  0  0  0  0  0  0  0  0  0
   -7.6096    2.2240   -1.4952 N   0  0  0  0  0  0  0  0  0  0  0  0
   -6.3737    2.9482   -1.6283 C   0  0  0  0  0  0  0  0  0  0  0  0
   -5.2344    1.9369   -1.8225 C   0  0  0  0  0  0  0  0  0  0  0  0
   -2.6843   -5.3871    1.6958 H   0  0  0  0  0  0  0  0  0  0  0  0
   -4.4286   -5.3818    1.0662 H   0  0  0  0  0  0  0  0  0  0  0  0
   -3.9189   -4.0805    2.1444 H   0  0  0  0  0  0  0  0  0  0  0  0
   -4.1517   -3.5502   -0.2341 H   0  0  0  0  0  0  0  0  0  0  0  0
   -1.6300   -5.2255   -0.6492 H   0  0  0  0  0  0  0  0  0  0  0  0
   -2.4251   -4.0716   -1.8037 H   0  0  0  0  0  0  0  0  0  0  0  0
   -3.3554   -5.5043   -1.2125 H   0  0  0  0  0  0  0  0  0  0  0  0
   -0.2417   -2.1623    1.4387 H   0  0  0  0  0  0  0  0  0  0  0  0
    1.7470    1.1204    4.6101 H   0  0  0  0  0  0  0  0  0  0  0  0
    1.7032   -0.3001   -0.0301 H   0  0  0  0  0  0  0  0  0  0  0  0
    2.2901    1.4356   -1.5700 H   0  0  0  0  0  0  0  0  0  0  0  0
    3.1168    0.9687   -3.8851 H   0  0  0  0  0  0  0  0  0  0  0  0
    5.4504    0.1554   -4.2175 H   0  0  0  0  0  0  0  0  0  0  0  0
    6.8327   -0.1543   -2.2801 H   0  0  0  0  0  0  0  0  0  0  0  0
    7.9534   -1.3280   -0.6310 H   0  0  0  0  0  0  0  0  0  0  0  0
    9.6000    1.1562   -0.1816 H   0  0  0  0  0  0  0  0  0  0  0  0
    8.1727    1.5105   -1.1892 H   0  0  0  0  0  0  0  0  0  0  0  0
    9.3637    0.2030   -1.6690 H   0  0  0  0  0  0  0  0  0  0  0  0
    8.5009   -0.1722    2.0665 H   0  0  0  0  0  0  0  0  0  0  0  0
    9.9302   -0.3946    1.0486 H   0  0  0  0  0  0  0  0  0  0  0  0
    8.8742   -1.8035    1.3802 H   0  0  0  0  0  0  0  0  0  0  0  0
   -1.0236    1.3621    1.1154 H   0  0  0  0  0  0  0  0  0  0  0  0
   -4.0814    3.1688    0.2601 H   0  0  0  0  0  0  0  0  0  0  0  0
   -2.5903    3.0791    1.1818 H   0  0  0  0  0  0  0  0  0  0  0  0
   -2.4999    3.1498   -0.5724 H   0  0  0  0  0  0  0  0  0  0  0  0
   -4.5674   -1.5965   -0.4034 H   0  0  0  0  0  0  0  0  0  0  0  0
   -5.8216    0.0606   -1.1757 H   0  0  0  0  0  0  0  0  0  0  0  0
   -6.3250    0.4334    1.0643 H   0  0  0  0  0  0  0  0  0  0  0  0
   -6.1942    2.2239    0.8910 H   0  0  0  0  0  0  0  0  0  0  0  0
   -8.4948    1.5939    0.3380 H   0  0  0  0  0  0  0  0  0  0  0  0
   -7.8701    0.3244   -0.7276 H   0  0  0  0  0  0  0  0  0  0  0  0
   -8.3843    2.9331   -1.4198 H   0  0  0  0  0  0  0  0  0  0  0  0
   -6.1662    3.6299   -0.8047 H   0  0  0  0  0  0  0  0  0  0  0  0
   -6.4263    3.5206   -2.5878 H   0  0  0  0  0  0  0  0  0  0  0  0
   -4.2691    2.4240   -2.0002 H   0  0  0  0  0  0  0  0  0  0  0  0
   -5.4847    1.5003   -2.8406 H   0  0  0  0  0  0  0  0  0  0  0  0
  1  2  1  0
  2  3  1  0
  2  4  1  0
  4  5  1  0
  5  6  2  0
  6  7  1  0
  7  8  1  0
  8  9  2  0
  9 10  1  0
 10 11  2  0
 11 12  1  0
 11 13  1  0
 13 14  1  0
 13 15  2  3
 15 16  1  0
 16 17  2  0
 17 18  1  0
 18 19  2  0
 19 20  1  0
 20 21  2  0
 21 22  1  0
 22 23  2  0
 22 24  2  0
 22 25  1  0
 25 26  1  0
 25 27  1  0
  6 28  1  0
 28 29  2  0
 29 30  1  0
 29 31  1  0
 31 32  2  0
 31 33  1  0
 33 34  1  0
 34 35  1  0
 35 36  1  0
 36 37  1  0
 37 38  1  0
 32  5  1  0
 38 33  1  0
 14  8  1  0
 21 16  1  0
  1 39  1  0
  1 40  1  0
  1 41  1  0
  2 42  1  0
  3 43  1  0
  3 44  1  0
  3 45  1  0
  7 46  1  0
 10 47  1  0
 14 48  1  0
 17 49  1  0
 18 50  1  0
 19 51  1  0
 20 52  1  0
 25 53  1  0
 26 54  1  0
 26 55  1  0
 26 56  1  0
 27 57  1  0
 27 58  1  0
 27 59  1  0
 28 60  1  0
 30 61  1  0
 30 62  1  0
 30 63  1  0
 32 64  1  0
 33 65  1  0
 34 66  1  0
 34 67  1  0
 35 68  1  0
 35 69  1  0
 36 70  1  0
 37 71  1  0
 37 72  1  0
 38 73  1  0
 38 74  1  0
M  END
$$$$
