@<TRIPOS>MOLECULE
*****
 74 77 0 0 0
SMALL
GASTEIGER

@<TRIPOS>ATOM
      1 C          -3.5485   -4.7822    1.3625 C.3     1  UNL1       -0.0281
      2 C          -3.1881   -3.9117    0.1658 C.3     1  UNL1        0.0947
      3 C          -2.5838   -4.7609   -0.9417 C.3     1  UNL1       -0.0281
      4 O          -2.3429   -2.8513    0.5311 O.3     1  UNL1       -0.4875
      5 C          -2.6679   -1.5224    0.4017 C.ar    1  UNL1        0.1423
      6 C          -1.6425   -0.6764    0.8412 C.ar    1  UNL1        0.0760
      7 N          -0.4034   -1.1354    1.3688 N.pl3   1  UNL1       -0.2822
      8 C           0.6852   -0.3460    1.8313 C.ar    1  UNL1        0.1988
      9 N           0.7288    0.0666    3.1191 N.ar    1  UNL1       -0.2226
     10 C           1.7497    0.8113    3.5740 C.ar    1  UNL1        0.0530
     11 C           2.7672    1.1470    2.6729 C.ar    1  UNL1        0.1013
     12 CL          4.0467    2.1208    3.3782 Cl      1  UNL1       -0.0782
     13 C           2.7154    0.7163    1.3416 C.ar    1  UNL1        0.1540
     14 N           1.6568   -0.0255    0.9713 N.ar    1  UNL1       -0.3112
     15 N           3.7328    1.1313    0.7061 N.2     1  UNL1       -0.2269
     16 C           4.0517    0.9154   -0.6450 C.ar    1  UNL1        0.0910
     17 C           3.2753    1.0861   -1.7724 C.ar    1  UNL1       -0.0344
     18 C           3.7607    0.8205   -3.0332 C.ar    1  UNL1       -0.0596
     19 C           5.0497    0.3698   -3.2351 C.ar    1  UNL1       -0.0598
     20 C           5.8223    0.2006   -2.1066 C.ar    1  UNL1       -0.0348
     21 C           5.3640    0.4598   -0.8102 C.ar    1  UNL1        0.1138
     22 S           6.4864    0.1891    0.5198 S.O2    1  UNL1        0.0012
     23 O           5.9465   -0.8271    1.4829 O.2     1  UNL1       -0.1690
     24 O           6.6321    1.4784    1.2346 O.2     1  UNL1       -0.1690
     25 C           8.0445   -0.3781   -0.0756 C.3     1  UNL1        0.0764
     26 C           8.8150    0.6806   -0.8206 C.3     1  UNL1       -0.0427
     27 C           8.8795   -0.7152    1.1673 C.3     1  UNL1       -0.0427
     28 C          -1.8317    0.6972    0.7693 C.ar    1  UNL1       -0.0337
     29 C          -3.0220    1.2456    0.2686 C.ar    1  UNL1       -0.0450
     30 C          -3.1091    2.6969    0.2484 C.3     1  UNL1       -0.0394
     31 C          -4.0502    0.4399   -0.1717 C.ar    1  UNL1       -0.0377
     32 C          -3.8003   -0.9123   -0.0741 C.ar    1  UNL1       -0.0144
     33 C          -5.3056    0.9643   -0.7050 C.3     1  UNL1       -0.0132
     34 C          -6.3328    1.2922    0.3631 C.3     1  UNL1       -0.0336
     35 C          -7.6643    1.3648   -0.3566 C.3     1  UNL1       -0.0036
     36 N          -7.6096    2.2240   -1.4952 N.3     1  UNL1       -0.3159
     37 C          -6.3737    2.9482   -1.6283 C.3     1  UNL1       -0.0036
     38 C          -5.2344    1.9369   -1.8225 C.3     1  UNL1       -0.0336
     39 H          -2.6843   -5.3871    1.6958 H       1  UNL1        0.0265
     40 H          -4.4286   -5.3818    1.0662 H       1  UNL1        0.0265
     41 H          -3.9189   -4.0805    2.1444 H       1  UNL1        0.0265
     42 H          -4.1517   -3.5502   -0.2341 H       1  UNL1        0.0727
     43 H          -1.6300   -5.2255   -0.6492 H       1  UNL1        0.0265
     44 H          -2.4251   -4.0716   -1.8037 H       1  UNL1        0.0265
     45 H          -3.3554   -5.5043   -1.2125 H       1  UNL1        0.0265
     46 H          -0.2417   -2.1623    1.4387 H       1  UNL1        0.1551
     47 H           1.7470    1.1204    4.6101 H       1  UNL1        0.0847
     48 H           1.7032   -0.3001   -0.0301 H       1  UNL1        0.1700
     49 H           2.2901    1.4356   -1.5700 H       1  UNL1        0.0639
     50 H           3.1168    0.9687   -3.8851 H       1  UNL1        0.0618
     51 H           5.4504    0.1554   -4.2175 H       1  UNL1        0.0618
     52 H           6.8327   -0.1543   -2.2801 H       1  UNL1        0.0637
     53 H           7.9534   -1.3280   -0.6310 H       1  UNL1        0.0534
     54 H           9.6000    1.1562   -0.1816 H       1  UNL1        0.0248
     55 H           8.1727    1.5105   -1.1892 H       1  UNL1        0.0248
     56 H           9.3637    0.2030   -1.6690 H       1  UNL1        0.0248
     57 H           8.5009   -0.1722    2.0665 H       1  UNL1        0.0248
     58 H           9.9302   -0.3946    1.0486 H       1  UNL1        0.0248
     59 H           8.8742   -1.8035    1.3802 H       1  UNL1        0.0248
     60 H          -1.0236    1.3621    1.1154 H       1  UNL1        0.0640
     61 H          -4.0814    3.1688    0.2601 H       1  UNL1        0.0278
     62 H          -2.5903    3.0791    1.1818 H       1  UNL1        0.0278
     63 H          -2.4999    3.1498   -0.5724 H       1  UNL1        0.0278
     64 H          -4.5674   -1.5965   -0.4034 H       1  UNL1        0.0658
     65 H          -5.8216    0.0606   -1.1757 H       1  UNL1        0.0350
     66 H          -6.3250    0.4334    1.0643 H       1  UNL1        0.0283
     67 H          -6.1942    2.2239    0.8910 H       1  UNL1        0.0283
     68 H          -8.4948    1.5939    0.3380 H       1  UNL1        0.0424
     69 H          -7.8701    0.3244   -0.7276 H       1  UNL1        0.0424
     70 H          -8.3843    2.9331   -1.4198 H       1  UNL1        0.1219
     71 H          -6.1662    3.6299   -0.8047 H       1  UNL1        0.0424
     72 H          -6.4263    3.5206   -2.5878 H       1  UNL1        0.0424
     73 H          -4.2691    2.4240   -2.0002 H       1  UNL1        0.0283
     74 H          -5.4847    1.5003   -2.8406 H       1  UNL1        0.0283
@<TRIPOS>BOND
     1     1     2    1
     2     2     3    1
     3     2     4    1
     4     4     5    1
     5     5     6   ar
     6     6     7    1
     7     7     8    1
     8     8     9   ar
     9     9    10   ar
    10    10    11   ar
    11    11    12    1
    12    11    13   ar
    13    13    14   ar
    14    13    15    2
    15    15    16    1
    16    16    17   ar
    17    17    18   ar
    18    18    19   ar
    19    19    20   ar
    20    20    21   ar
    21    21    22    1
    22    22    23    2
    23    22    24    2
    24    22    25    1
    25    25    26    1
    26    25    27    1
    27     6    28   ar
    28    28    29   ar
    29    29    30    1
    30    29    31   ar
    31    31    32   ar
    32    31    33    1
    33    33    34    1
    34    34    35    1
    35    35    36    1
    36    36    37    1
    37    37    38    1
    38    32     5   ar
    39    38    33    1
    40    14     8   ar
    41    21    16   ar
    42     1    39    1
    43     1    40    1
    44     1    41    1
    45     2    42    1
    46     3    43    1
    47     3    44    1
    48     3    45    1
    49     7    46    1
    50    10    47    1
    51    14    48    1
    52    17    49    1
    53    18    50    1
    54    19    51    1
    55    20    52    1
    56    25    53    1
    57    26    54    1
    58    26    55    1
    59    26    56    1
    60    27    57    1
    61    27    58    1
    62    27    59    1
    63    28    60    1
    64    30    61    1
    65    30    62    1
    66    30    63    1
    67    32    64    1
    68    33    65    1
    69    34    66    1
    70    34    67    1
    71    35    68    1
    72    35    69    1
    73    36    70    1
    74    37    71    1
    75    37    72    1
    76    38    73    1
    77    38    74    1
