@<TRIPOS>MOLECULE
*****
 79 84 0 0 0
SMALL
GASTEIGER

@<TRIPOS>ATOM
      1 C          -2.0762    0.3709   -0.3675 C.3     1  UNL1       -0.0373
      2 C          -1.9675   -0.8097    0.4970 C.ar    1  UNL1       -0.0186
      3 C          -3.1000   -1.4505    0.9872 C.ar    1  UNL1        0.0373
      4 N          -4.3826   -0.9796    0.6216 N.am    1  UNL1       -0.2813
      5 C          -5.6175   -1.3832    1.1708 C.2     1  UNL1        0.2483
      6 O          -5.6548   -2.2323    2.0748 O.2     1  UNL1       -0.2699
      7 C          -6.9266   -0.8504    0.7368 C.ar    1  UNL1        0.0370
      8 C          -7.0655    0.0492   -0.2942 C.ar    1  UNL1       -0.0494
      9 C          -8.3269    0.5279   -0.6592 C.ar    1  UNL1       -0.0574
     10 C          -9.4754    0.1293   -0.0142 C.ar    1  UNL1       -0.0419
     11 C         -10.8228    0.6280   -0.3993 C.3     1  UNL1       -0.0127
     12 C         -11.1836    1.9170    0.3078 C.3     1  UNL1       -0.0560
     13 C         -11.0132    0.7769   -1.8704 C.3     1  UNL1       -0.0560
     14 C         -11.8575   -0.3968    0.0933 C.3     1  UNL1       -0.0560
     15 C          -9.3286   -0.7744    1.0210 C.ar    1  UNL1       -0.0574
     16 C          -8.0853   -1.2425    1.3754 C.ar    1  UNL1       -0.0494
     17 C          -2.9022   -2.5408    1.8021 C.ar    1  UNL1       -0.0402
     18 C          -1.6312   -3.0010    2.1351 C.ar    1  UNL1       -0.0593
     19 C          -0.5157   -2.3696    1.6519 C.ar    1  UNL1       -0.0507
     20 C          -0.7134   -1.2772    0.8357 C.ar    1  UNL1        0.0239
     21 C           0.5188   -0.6224    0.3530 C.ar    1  UNL1        0.1644
     22 N           1.7176   -1.0805    0.7430 N.ar    1  UNL1       -0.2102
     23 C           2.9199   -0.5932    0.4001 C.ar    1  UNL1        0.1546
     24 N           4.1068   -1.1976    0.8653 N.pl3   1  UNL1       -0.2976
     25 C           5.3619   -0.5980    0.8798 C.ar    1  UNL1        0.0325
     26 C           6.4454   -1.4292    0.5560 C.ar    1  UNL1       -0.0398
     27 C           7.7226   -0.9235    0.6001 C.ar    1  UNL1       -0.0479
     28 C           7.9452    0.3918    0.9587 C.ar    1  UNL1        0.0370
     29 C           9.3167    0.8915    1.0134 C.2     1  UNL1        0.2467
     30 O           9.7636    1.2373    2.1458 O.2     1  UNL1       -0.2700
     31 N          10.1721    1.0119   -0.1049 N.am    1  UNL1       -0.2932
     32 C           9.7505    0.6517   -1.4277 C.3     1  UNL1        0.0385
     33 C          10.8529   -0.0403   -2.2052 C.3     1  UNL1        0.0635
     34 O          12.0990    0.4925   -1.9290 O.3     1  UNL1       -0.3767
     35 C          12.4198    0.4550   -0.5791 C.3     1  UNL1        0.0635
     36 C          11.5448    1.5135    0.1080 C.3     1  UNL1        0.0385
     37 C           6.9034    1.2323    1.2812 C.ar    1  UNL1       -0.0479
     38 C           5.6211    0.7113    1.2342 C.ar    1  UNL1       -0.0398
     39 C           2.9320    0.4949   -0.4450 C.ar    1  UNL1        0.1476
     40 N           3.9263    1.2353   -1.0078 N.ar    1  UNL1       -0.2308
     41 C           3.3202    2.1620   -1.7533 C.ar    1  UNL1        0.0957
     42 N           1.9874    2.0317   -1.6808 N.ar    1  UNL1       -0.3291
     43 C           1.6934    0.9801   -0.8574 C.ar    1  UNL1        0.1634
     44 N           0.5340    0.4332   -0.4661 N.ar    1  UNL1       -0.2080
     45 H          -3.0605    0.7100   -0.6537 H       1  UNL1        0.0278
     46 H          -1.5725    0.0835   -1.3424 H       1  UNL1        0.0278
     47 H          -1.5431    1.2625    0.0764 H       1  UNL1        0.0278
     48 H          -4.4689   -0.2634   -0.1452 H       1  UNL1        0.1551
     49 H          -6.2044    0.3956   -0.8340 H       1  UNL1        0.0625
     50 H          -8.4198    1.2427   -1.4790 H       1  UNL1        0.0621
     51 H         -12.0124    2.4162   -0.2464 H       1  UNL1        0.0238
     52 H         -11.5226    1.7580    1.3398 H       1  UNL1        0.0238
     53 H         -10.3036    2.5885    0.2397 H       1  UNL1        0.0238
     54 H         -11.9759    0.3602   -2.1907 H       1  UNL1        0.0238
     55 H         -10.9705    1.8107   -2.2487 H       1  UNL1        0.0238
     56 H         -10.2233    0.2170   -2.4447 H       1  UNL1        0.0238
     57 H         -12.8199   -0.2685   -0.4396 H       1  UNL1        0.0238
     58 H         -12.0615   -0.2641    1.1598 H       1  UNL1        0.0238
     59 H         -11.4799   -1.4088   -0.1602 H       1  UNL1        0.0238
     60 H         -10.2335   -1.1036    1.5455 H       1  UNL1        0.0621
     61 H          -8.0078   -1.9461    2.1853 H       1  UNL1        0.0625
     62 H          -3.7224   -3.0868    2.2080 H       1  UNL1        0.0636
     63 H          -1.4772   -3.8676    2.7801 H       1  UNL1        0.0618
     64 H           0.4675   -2.7249    1.9086 H       1  UNL1        0.0625
     65 H           4.0084   -2.1957    1.2300 H       1  UNL1        0.1536
     66 H           6.2788   -2.4635    0.2734 H       1  UNL1        0.0636
     67 H           8.5534   -1.5993    0.3496 H       1  UNL1        0.0626
     68 H           8.8888   -0.0355   -1.3904 H       1  UNL1        0.0487
     69 H           9.4221    1.5795   -1.9319 H       1  UNL1        0.0487
     70 H          10.6531    0.1417   -3.2828 H       1  UNL1        0.0575
     71 H          10.8357   -1.1491   -2.0784 H       1  UNL1        0.0575
     72 H          13.4788    0.6298   -0.3999 H       1  UNL1        0.0575
     73 H          12.1328   -0.5135   -0.1014 H       1  UNL1        0.0575
     74 H          11.7660    1.6078    1.1712 H       1  UNL1        0.0487
     75 H          11.6666    2.4426   -0.4741 H       1  UNL1        0.0487
     76 H           7.1039    2.2567    1.5581 H       1  UNL1        0.0626
     77 H           4.8069    1.3644    1.5112 H       1  UNL1        0.0636
     78 H           3.8557    2.9012   -2.3266 H       1  UNL1        0.1027
     79 H           1.2325    2.5895   -2.1376 H       1  UNL1        0.1682
@<TRIPOS>BOND
     1     1     2    1
     2     2     3   ar
     3     3     4    1
     4     4     5   am
     5     5     6    2
     6     5     7    1
     7     7     8   ar
     8     8     9   ar
     9     9    10   ar
    10    10    11    1
    11    11    12    1
    12    11    13    1
    13    11    14    1
    14    10    15   ar
    15    15    16   ar
    16     3    17   ar
    17    17    18   ar
    18    18    19   ar
    19    19    20   ar
    20    20    21    1
    21    21    22   ar
    22    22    23   ar
    23    23    24    1
    24    24    25    1
    25    25    26   ar
    26    26    27   ar
    27    27    28   ar
    28    28    29    1
    29    29    30    2
    30    29    31   am
    31    31    32    1
    32    32    33    1
    33    33    34    1
    34    34    35    1
    35    35    36    1
    36    28    37   ar
    37    37    38   ar
    38    23    39   ar
    39    39    40   ar
    40    40    41   ar
    41    41    42   ar
    42    42    43   ar
    43    43    44   ar
    44    20     2   ar
    45    44    21   ar
    46    16     7   ar
    47    38    25   ar
    48    43    39   ar
    49    36    31    1
    50     1    45    1
    51     1    46    1
    52     1    47    1
    53     4    48    1
    54     8    49    1
    55     9    50    1
    56    12    51    1
    57    12    52    1
    58    12    53    1
    59    13    54    1
    60    13    55    1
    61    13    56    1
    62    14    57    1
    63    14    58    1
    64    14    59    1
    65    15    60    1
    66    16    61    1
    67    17    62    1
    68    18    63    1
    69    19    64    1
    70    24    65    1
    71    26    66    1
    72    27    67    1
    73    32    68    1
    74    32    69    1
    75    33    70    1
    76    33    71    1
    77    35    72    1
    78    35    73    1
    79    36    74    1
    80    36    75    1
    81    37    76    1
    82    38    77    1
    83    41    78    1
    84    42    79    1
