@<TRIPOS>MOLECULE
*****
 19 18 0 0 0
SMALL
GASTEIGER

@<TRIPOS>ATOM
      1 S           4.5594    1.2765    0.3665 S.3     1  UNL1       -0.1507
      2 C           3.1834    0.1383    0.2713 C.2     1  UNL1       -0.0349
      3 C           2.1228    0.4382   -0.4738 C.2     1  UNL1       -0.0659
      4 C           0.9967   -0.5016   -0.5470 C.3     1  UNL1        0.0425
      5 S          -0.5602    0.2016    0.0347 S.O     1  UNL1        0.0297
      6 O          -0.4951    0.4499    1.5535 O.2     1  UNL1       -0.2566
      7 C          -1.7724   -1.1404   -0.1568 C.3     1  UNL1        0.0415
      8 C          -3.0723   -0.6181    0.3068 C.2     1  UNL1       -0.0790
      9 C          -3.0245    0.6563    0.7308 C.2     1  UNL1       -0.1018
     10 H           4.4603    2.3100   -0.5520 H       1  UNL1        0.1065
     11 H           3.2706   -0.7888    0.8477 H       1  UNL1        0.0685
     12 H           2.0365    1.3568   -1.0448 H       1  UNL1        0.0586
     13 H           0.8083   -0.8195   -1.6098 H       1  UNL1        0.0444
     14 H           1.1454   -1.4357    0.0112 H       1  UNL1        0.0444
     15 H          -1.4322   -2.0372    0.3879 H       1  UNL1        0.0444
     16 H          -1.8896   -1.3745   -1.2391 H       1  UNL1        0.0444
     17 H          -4.0720   -0.9805    0.4028 H       1  UNL1        0.0575
     18 H          -2.4514    1.5604    0.9132 H       1  UNL1        0.0532
     19 H          -3.8136    1.3082    1.1264 H       1  UNL1        0.0532
@<TRIPOS>BOND
     1     1     2    1
     2     2     3    2
     3     3     4    1
     4     5     4    1
     5     5     6    2
     6     5     7    1
     7     7     8    1
     8     8     9    2
     9     1    10    1
    10     2    11    1
    11     3    12    1
    12     4    13    1
    13     4    14    1
    14     7    15    1
    15     7    16    1
    16     8    17    1
    17     9    18    1
    18     9    19    1
