@<TRIPOS>MOLECULE
*****
 44 46 0 0 0
SMALL
GASTEIGER

@<TRIPOS>ATOM
      1 N          -1.6007    0.8359   -3.2577 N.pl3   1  UNL1       -0.3133
      2 C          -2.2750    0.5558   -2.0099 C.2     1  UNL1        0.2767
      3 N          -1.8795   -0.3731   -1.2385 N.2     1  UNL1       -0.2196
      4 C          -2.4350   -0.7782    0.0295 C.3     1  UNL1        0.1577
      5 C          -1.3686   -0.6196    1.0519 C.ar    1  UNL1        0.0225
      6 C          -0.1048   -0.2008    0.6101 C.ar    1  UNL1       -0.0321
      7 C           0.9344   -0.0598    1.5038 C.ar    1  UNL1        0.0342
      8 N           2.2191    0.3653    1.0587 N.am    1  UNL1       -0.2802
      9 C           3.2235   -0.5388    0.6351 C.2     1  UNL1        0.2666
     10 O           3.0044   -1.7699    0.6404 O.2     1  UNL1       -0.2682
     11 C           4.5055    0.0165    0.1989 C.ar    1  UNL1        0.1257
     12 C           5.5208   -0.8489   -0.2263 C.ar    1  UNL1       -0.0298
     13 C           6.7160   -0.3016   -0.6312 C.ar    1  UNL1       -0.0397
     14 C           6.8781    1.0691   -0.6070 C.ar    1  UNL1        0.0591
     15 CL          8.4072    1.7302   -1.1274 Cl      1  UNL1       -0.0820
     16 C           5.8607    1.8968   -0.1833 C.ar    1  UNL1        0.0467
     17 N           4.7200    1.3418    0.2011 N.ar    1  UNL1       -0.2489
     18 C           0.6974   -0.3383    2.8226 C.ar    1  UNL1       -0.0377
     19 C          -0.5395   -0.7508    3.2740 C.ar    1  UNL1       -0.0243
     20 C          -1.5840   -0.8930    2.3815 C.ar    1  UNL1        0.1292
     21 F          -2.7734   -1.2683    2.8476 F       1  UNL1       -0.2051
     22 C          -2.6914   -2.2883   -0.1048 C.3     1  UNL1        0.2683
     23 F          -3.2295   -2.8049    1.0271 F       1  UNL1       -0.2062
     24 F          -3.5175   -2.4819   -1.2172 F       1  UNL1       -0.2062
     25 C          -3.6724   -0.0352    0.3436 C.3     1  UNL1        0.0280
     26 C          -4.3466    0.6280   -0.8342 C.3     1  UNL1        0.1999
     27 C          -5.3510    1.6107   -0.2691 C.3     1  UNL1        0.4266
     28 F          -6.0289    2.2769   -1.2571 F       1  UNL1       -0.1669
     29 F          -4.6810    2.5315    0.4918 F       1  UNL1       -0.1669
     30 F          -6.2091    0.9204    0.5396 F       1  UNL1       -0.1669
     31 O          -3.3791    1.3097   -1.6346 O.2     1  UNL1       -0.4534
     32 H          -0.5861    1.0363   -3.2506 H       1  UNL1        0.1466
     33 H          -2.1217    0.8353   -4.1332 H       1  UNL1        0.1466
     34 H           0.0956    0.0224   -0.4287 H       1  UNL1        0.0640
     35 H           2.4324    1.3853    1.0426 H       1  UNL1        0.1552
     36 H           5.3829   -1.9167   -0.2409 H       1  UNL1        0.0641
     37 H           7.5513   -0.9274   -0.9758 H       1  UNL1        0.0633
     38 H           6.0398    2.9643   -0.1839 H       1  UNL1        0.0844
     39 H           1.4935   -0.2393    3.5607 H       1  UNL1        0.0637
     40 H          -0.7373   -0.9731    4.3114 H       1  UNL1        0.0647
     41 H          -1.7391   -2.8197   -0.3063 H       1  UNL1        0.1047
     42 H          -3.5520    0.7538    1.1160 H       1  UNL1        0.0332
     43 H          -4.4443   -0.7402    0.7695 H       1  UNL1        0.0332
     44 H          -4.8352   -0.1181   -1.4682 H       1  UNL1        0.0826
@<TRIPOS>BOND
     1     1     2    1
     2     2     3    2
     3     3     4    1
     4     4     5    1
     5     5     6   ar
     6     6     7   ar
     7     7     8    1
     8     8     9   am
     9     9    10    2
    10     9    11    1
    11    11    12   ar
    12    12    13   ar
    13    13    14   ar
    14    14    15    1
    15    14    16   ar
    16    16    17   ar
    17     7    18   ar
    18    18    19   ar
    19    19    20   ar
    20    20    21    1
    21     4    22    1
    22    22    23    1
    23    22    24    1
    24     4    25    1
    25    25    26    1
    26    26    27    1
    27    27    28    1
    28    27    29    1
    29    27    30    1
    30    26    31    1
    31    31     2    1
    32    20     5   ar
    33    17    11   ar
    34     1    32    1
    35     1    33    1
    36     6    34    1
    37     8    35    1
    38    12    36    1
    39    13    37    1
    40    16    38    1
    41    18    39    1
    42    19    40    1
    43    22    41    1
    44    25    42    1
    45    25    43    1
    46    26    44    1
