
     RDKit          3D

 44 46  0  0  0  0  0  0  0  0999 V2000
   -1.6007    0.8359   -3.2577 N   0  0  0  0  0  0  0  0  0  0  0  0
   -2.2750    0.5558   -2.0099 C   0  0  0  0  0  0  0  0  0  0  0  0
   -1.8795   -0.3731   -1.2385 N   0  0  0  0  0  0  0  0  0  0  0  0
   -2.4350   -0.7782    0.0295 C   0  0  0  0  0  0  0  0  0  0  0  0
   -1.3686   -0.6196    1.0519 C   0  0  0  0  0  0  0  0  0  0  0  0
   -0.1048   -0.2008    0.6101 C   0  0  0  0  0  0  0  0  0  0  0  0
    0.9344   -0.0598    1.5038 C   0  0  0  0  0  0  0  0  0  0  0  0
    2.2191    0.3653    1.0587 N   0  0  0  0  0  0  0  0  0  0  0  0
    3.2235   -0.5388    0.6351 C   0  0  0  0  0  0  0  0  0  0  0  0
    3.0044   -1.7699    0.6404 O   0  0  0  0  0  0  0  0  0  0  0  0
    4.5055    0.0165    0.1989 C   0  0  0  0  0  0  0  0  0  0  0  0
    5.5208   -0.8489   -0.2263 C   0  0  0  0  0  0  0  0  0  0  0  0
    6.7160   -0.3016   -0.6312 C   0  0  0  0  0  0  0  0  0  0  0  0
    6.8781    1.0691   -0.6070 C   0  0  0  0  0  0  0  0  0  0  0  0
    8.4072    1.7302   -1.1274 Cl  0  0  0  0  0  0  0  0  0  0  0  0
    5.8607    1.8968   -0.1833 C   0  0  0  0  0  0  0  0  0  0  0  0
    4.7200    1.3418    0.2011 N   0  0  0  0  0  0  0  0  0  0  0  0
    0.6974   -0.3383    2.8226 C   0  0  0  0  0  0  0  0  0  0  0  0
   -0.5395   -0.7508    3.2740 C   0  0  0  0  0  0  0  0  0  0  0  0
   -1.5840   -0.8930    2.3815 C   0  0  0  0  0  0  0  0  0  0  0  0
   -2.7734   -1.2683    2.8476 F   0  0  0  0  0  0  0  0  0  0  0  0
   -2.6914   -2.2883   -0.1048 C   0  0  0  0  0  0  0  0  0  0  0  0
   -3.2295   -2.8049    1.0271 F   0  0  0  0  0  0  0  0  0  0  0  0
   -3.5175   -2.4819   -1.2172 F   0  0  0  0  0  0  0  0  0  0  0  0
   -3.6724   -0.0352    0.3436 C   0  0  0  0  0  0  0  0  0  0  0  0
   -4.3466    0.6280   -0.8342 C   0  0  1  0  0  0  0  0  0  0  0  0
   -5.3510    1.6107   -0.2691 C   0  0  0  0  0  0  0  0  0  0  0  0
   -6.0289    2.2769   -1.2571 F   0  0  0  0  0  0  0  0  0  0  0  0
   -4.6810    2.5315    0.4918 F   0  0  0  0  0  0  0  0  0  0  0  0
   -6.2091    0.9204    0.5396 F   0  0  0  0  0  0  0  0  0  0  0  0
   -3.3791    1.3097   -1.6346 O   0  0  0  0  0  0  0  0  0  0  0  0
   -0.5861    1.0363   -3.2506 H   0  0  0  0  0  0  0  0  0  0  0  0
   -2.1217    0.8353   -4.1332 H   0  0  0  0  0  0  0  0  0  0  0  0
    0.0956    0.0224   -0.4287 H   0  0  0  0  0  0  0  0  0  0  0  0
    2.4324    1.3853    1.0426 H   0  0  0  0  0  0  0  0  0  0  0  0
    5.3829   -1.9167   -0.2409 H   0  0  0  0  0  0  0  0  0  0  0  0
    7.5513   -0.9274   -0.9758 H   0  0  0  0  0  0  0  0  0  0  0  0
    6.0398    2.9643   -0.1839 H   0  0  0  0  0  0  0  0  0  0  0  0
    1.4935   -0.2393    3.5607 H   0  0  0  0  0  0  0  0  0  0  0  0
   -0.7373   -0.9731    4.3114 H   0  0  0  0  0  0  0  0  0  0  0  0
   -1.7391   -2.8197   -0.3063 H   0  0  0  0  0  0  0  0  0  0  0  0
   -3.5520    0.7538    1.1160 H   0  0  0  0  0  0  0  0  0  0  0  0
   -4.4443   -0.7402    0.7695 H   0  0  0  0  0  0  0  0  0  0  0  0
   -4.8352   -0.1181   -1.4682 H   0  0  0  0  0  0  0  0  0  0  0  0
  1  2  1  0
  2  3  2  0
  3  4  1  0
  4  5  1  0
  5  6  2  0
  6  7  1  0
  7  8  1  0
  8  9  1  0
  9 10  2  0
  9 11  1  0
 11 12  2  0
 12 13  1  0
 13 14  2  0
 14 15  1  0
 14 16  1  0
 16 17  2  0
  7 18  2  0
 18 19  1  0
 19 20  2  0
 20 21  1  0
  4 22  1  0
 22 23  1  0
 22 24  1  0
  4 25  1  0
 25 26  1  0
 26 27  1  0
 27 28  1  0
 27 29  1  0
 27 30  1  0
 26 31  1  0
 31  2  1  0
 20  5  1  0
 17 11  1  0
  1 32  1  0
  1 33  1  0
  6 34  1  0
  8 35  1  0
 12 36  1  0
 13 37  1  0
 16 38  1  0
 18 39  1  0
 19 40  1  0
 22 41  1  0
 25 42  1  0
 25 43  1  0
 26 44  1  6
M  END
$$$$
