@<TRIPOS>MOLECULE
*****
 59 59 0 0 0
SMALL
GASTEIGER

@<TRIPOS>ATOM
      1 C          -3.9230    0.2997    0.4716 C.2     1  UNL1       -0.0568
      2 C          -4.8530   -0.6464    0.3612 C.2     1  UNL1       -0.0800
      3 C          -6.1938   -0.3451   -0.2219 C.3     1  UNL1       -0.0196
      4 C          -6.7486    0.9744    0.2334 C.3     1  UNL1       -0.0566
      5 C          -6.1635   -0.3786   -1.7298 C.3     1  UNL1       -0.0566
      6 C          -7.1364   -1.4400    0.2731 C.3     1  UNL1       -0.0566
      7 C          -2.6022   -0.0358    1.0559 C.3     1  UNL1        0.1017
      8 O          -2.4581   -1.4356    1.0866 O.3     1  UNL1       -0.3851
      9 C          -1.4639    0.5645    0.2211 C.3     1  UNL1        0.1133
     10 O          -1.4812    0.0914   -1.0684 O.3     1  UNL1       -0.3862
     11 C          -0.1932    0.1779    0.9242 C.3     1  UNL1        0.1184
     12 O          -0.1200   -1.2022    0.9393 O.3     1  UNL1       -0.3860
     13 C           1.0457    0.7215    0.2554 C.3     1  UNL1        0.1611
     14 O           0.9587    2.1153    0.2470 O.3     1  UNL1       -0.3678
     15 C           0.9583    2.6347   -1.0345 C.3     1  UNL1        0.0376
     16 C           2.1836    0.3942    1.1434 C.2     1  UNL1        0.2157
     17 O           2.0471    0.9683    2.4197 O.2     1  UNL1       -0.4938
     18 N           3.2268   -0.2871    0.9719 N.2     1  UNL1       -0.2396
     19 C           3.6833   -1.0002   -0.1759 C.3     1  UNL1        0.1291
     20 C           4.3101   -0.1171   -1.2238 C.3     1  UNL1       -0.0194
     21 C           5.2704    0.7996   -0.5042 C.3     1  UNL1       -0.0227
     22 C           6.6822    0.3343   -0.5704 C.3     1  UNL1        0.0748
     23 O           7.3405    0.8024    0.5891 O.3     1  UNL1       -0.3900
     24 C           6.8590   -1.1511   -0.7380 C.3     1  UNL1        0.0690
     25 N           6.0667   -1.9671    0.1203 N.2     1  UNL1       -0.2504
     26 C           4.7942   -1.8817    0.3245 C.2     1  UNL1        0.2080
     27 O           4.3468   -2.8520    1.2377 O.2     1  UNL1       -0.4942
     28 H          -4.1088    1.3295    0.1395 H       1  UNL1        0.0595
     29 H          -4.5831   -1.6533    0.7193 H       1  UNL1        0.0575
     30 H          -6.4578    1.8036   -0.4469 H       1  UNL1        0.0238
     31 H          -6.2554    1.2160    1.2170 H       1  UNL1        0.0238
     32 H          -7.8454    0.9569    0.3935 H       1  UNL1        0.0238
     33 H          -5.1746   -0.7624   -2.1005 H       1  UNL1        0.0238
     34 H          -6.2670    0.6436   -2.1353 H       1  UNL1        0.0238
     35 H          -6.9925   -0.9978   -2.1024 H       1  UNL1        0.0238
     36 H          -6.5868   -2.2933    0.6920 H       1  UNL1        0.0238
     37 H          -7.7677   -1.8029   -0.5794 H       1  UNL1        0.0238
     38 H          -7.7943   -1.0624    1.0843 H       1  UNL1        0.0238
     39 H          -2.5262    0.3149    2.0861 H       1  UNL1        0.0664
     40 H          -2.3538   -1.7780    2.0120 H       1  UNL1        0.2103
     41 H          -1.5830    1.6674    0.2580 H       1  UNL1        0.0649
     42 H          -1.7194    0.8088   -1.7279 H       1  UNL1        0.2100
     43 H          -0.2954    0.5525    1.9753 H       1  UNL1        0.0651
     44 H          -0.2334   -1.5247   -0.0011 H       1  UNL1        0.2100
     45 H           1.0977    0.2891   -0.7426 H       1  UNL1        0.0721
     46 H           1.8806    2.3839   -1.6212 H       1  UNL1        0.0524
     47 H           1.0226    3.7534   -0.9011 H       1  UNL1        0.0524
     48 H           0.0736    2.4012   -1.6262 H       1  UNL1        0.0524
     49 H           2.7479    0.8426    3.1394 H       1  UNL1        0.2935
     50 H           2.8610   -1.6198   -0.5848 H       1  UNL1        0.0643
     51 H           3.5770    0.3999   -1.8522 H       1  UNL1        0.0291
     52 H           4.9145   -0.7683   -1.8892 H       1  UNL1        0.0291
     53 H           4.9811    0.9677    0.5519 H       1  UNL1        0.0291
     54 H           5.2002    1.7949   -0.9899 H       1  UNL1        0.0291
     55 H           7.1706    0.8012   -1.4521 H       1  UNL1        0.0611
     56 H           6.9701    1.7193    0.7346 H       1  UNL1        0.2099
     57 H           6.8400   -1.4380   -1.8141 H       1  UNL1        0.0535
     58 H           7.9294   -1.3443   -0.4341 H       1  UNL1        0.0535
     59 H           4.8417   -3.7396    1.2766 H       1  UNL1        0.2935
@<TRIPOS>BOND
     1     1     2    2
     2     2     3    1
     3     3     4    1
     4     3     5    1
     5     3     6    1
     6     1     7    1
     7     7     8    1
     8     7     9    1
     9     9    10    1
    10     9    11    1
    11    11    12    1
    12    11    13    1
    13    13    14    1
    14    14    15    1
    15    13    16    1
    16    16    17    1
    17    16    18    2
    18    18    19    1
    19    19    20    1
    20    20    21    1
    21    21    22    1
    22    22    23    1
    23    22    24    1
    24    24    25    1
    25    25    26    2
    26    26    27    1
    27    26    19    1
    28     1    28    1
    29     2    29    1
    30     4    30    1
    31     4    31    1
    32     4    32    1
    33     5    33    1
    34     5    34    1
    35     5    35    1
    36     6    36    1
    37     6    37    1
    38     6    38    1
    39     7    39    1
    40     8    40    1
    41     9    41    1
    42    10    42    1
    43    11    43    1
    44    12    44    1
    45    13    45    1
    46    15    46    1
    47    15    47    1
    48    15    48    1
    49    17    49    1
    50    19    50    1
    51    20    51    1
    52    20    52    1
    53    21    53    1
    54    21    54    1
    55    22    55    1
    56    23    56    1
    57    24    57    1
    58    24    58    1
    59    27    59    1
