@<TRIPOS>MOLECULE
*****
 65 65 0 0 0
SMALL
GASTEIGER

@<TRIPOS>ATOM
      1 C          -4.0509    4.3278   -0.7065 C.3     1  UNL1       -0.0638
      2 C          -2.5551    4.5034   -0.9885 C.3     1  UNL1       -0.0350
      3 C          -1.8348    3.4873   -0.1347 C.3     1  UNL1        0.0815
      4 S          -2.1744    3.7475    1.6070 S.O2    1  UNL1        0.0301
      5 O          -1.5540    5.0962    1.9001 O.2     1  UNL1       -0.1582
      6 O          -3.6191    3.8663    1.9041 O.2     1  UNL1       -0.1582
      7 N          -1.3563    2.5963    2.5529 N.3     1  UNL1       -0.1801
      8 C          -1.7273    1.2274    2.3020 C.3     1  UNL1        0.1298
      9 C          -2.3870    0.5856    3.5040 C.3     1  UNL1        0.0777
     10 C          -1.4626    0.5547    4.6995 C.3     1  UNL1       -0.0369
     11 O          -2.7219   -0.7240    3.1973 O.3     1  UNL1       -0.3900
     12 C          -0.6048    0.4044    1.8440 C.2     1  UNL1        0.2348
     13 O           0.5209    0.9679    1.8314 O.2     1  UNL1       -0.2739
     14 N          -0.5947   -0.9473    1.4042 N.am    1  UNL1       -0.3026
     15 C           0.5716   -1.6479    0.9786 C.3     1  UNL1        0.1001
     16 C           0.8466   -2.9013    1.7554 C.3     1  UNL1       -0.0169
     17 C           1.0578   -2.7111    3.2198 C.3     1  UNL1       -0.0044
     18 S           1.3778   -4.3542    3.9749 S.3     1  UNL1       -0.1641
     19 C          -0.1049   -5.4058    3.8569 C.3     1  UNL1       -0.0181
     20 C           0.5176   -1.9956   -0.4679 C.2     1  UNL1        0.2336
     21 O          -0.5309   -1.6321   -1.0591 O.2     1  UNL1       -0.2738
     22 N           1.5498   -2.6817   -1.1561 N.am    1  UNL1       -0.3097
     23 C           1.5483   -3.0410   -2.5593 C.3     1  UNL1        0.0369
     24 C           1.8376   -1.8490   -3.3652 C.ar    1  UNL1       -0.0303
     25 C           3.1744   -1.5896   -3.6221 C.ar    1  UNL1       -0.0563
     26 C           3.6545   -0.5236   -4.3594 C.ar    1  UNL1       -0.0466
     27 C           2.7313    0.3497   -4.8799 C.ar    1  UNL1        0.0647
     28 C           1.3892    0.1249   -4.6457 C.ar    1  UNL1       -0.0466
     29 C           0.9370   -0.9540   -3.9018 C.ar    1  UNL1       -0.0563
     30 C           3.1066    1.5271   -5.6863 C.2     1  UNL1        0.3081
     31 N           4.2792    1.3482   -6.4566 N.pl3   1  UNL1       -0.2466
     32 N           2.5310    2.6711   -5.7883 N.2     1  UNL1       -0.0994
     33 H          -4.3435    5.1621   -0.0455 H       1  UNL1        0.0230
     34 H          -4.2851    3.3331   -0.2880 H       1  UNL1        0.0230
     35 H          -4.6304    4.4597   -1.6465 H       1  UNL1        0.0230
     36 H          -2.4296    4.1347   -2.0460 H       1  UNL1        0.0279
     37 H          -2.2020    5.5242   -0.8468 H       1  UNL1        0.0279
     38 H          -0.7401    3.6133   -0.2666 H       1  UNL1        0.0515
     39 H          -2.1900    2.4931   -0.4679 H       1  UNL1        0.0515
     40 H          -0.3386    2.6722    2.3338 H       1  UNL1        0.1486
     41 H          -2.4859    1.2535    1.5015 H       1  UNL1        0.0599
     42 H          -3.3372    1.0995    3.7145 H       1  UNL1        0.0611
     43 H          -1.9635    0.5225    5.6643 H       1  UNL1        0.0255
     44 H          -0.7737   -0.3126    4.6399 H       1  UNL1        0.0255
     45 H          -0.7901    1.4491    4.5672 H       1  UNL1        0.0255
     46 H          -3.2087   -1.1884    3.8964 H       1  UNL1        0.2098
     47 H          -1.5133   -1.4388    1.3951 H       1  UNL1        0.1495
     48 H           1.4483   -0.9767    1.0851 H       1  UNL1        0.0595
     49 H           0.0464   -3.6663    1.6209 H       1  UNL1        0.0296
     50 H           1.7676   -3.3974    1.3631 H       1  UNL1        0.0296
     51 H           0.1291   -2.2938    3.6509 H       1  UNL1        0.0377
     52 H           1.9453   -2.1089    3.4815 H       1  UNL1        0.0377
     53 H           0.2357   -6.4519    3.9599 H       1  UNL1        0.0340
     54 H          -0.4917   -5.2484    2.8211 H       1  UNL1        0.0340
     55 H          -0.8431   -5.2025    4.6318 H       1  UNL1        0.0340
     56 H           2.3675   -2.9255   -0.5349 H       1  UNL1        0.1491
     57 H           0.5528   -3.4438   -2.8687 H       1  UNL1        0.0512
     58 H           2.3360   -3.8093   -2.7076 H       1  UNL1        0.0512
     59 H           3.9564   -2.2436   -3.2380 H       1  UNL1        0.0621
     60 H           4.7094   -0.3640   -4.5305 H       1  UNL1        0.0626
     61 H           0.6796    0.8291   -5.0672 H       1  UNL1        0.0626
     62 H          -0.0967   -1.1461   -3.7111 H       1  UNL1        0.0621
     63 H           5.2577    1.2005   -6.8203 H       1  UNL1        0.2884
     64 H           5.2147    1.2150   -5.9699 H       1  UNL1        0.2884
     65 H           1.6647    2.8293   -5.2316 H       1  UNL1        0.3633
@<TRIPOS>BOND
     1     1     2    1
     2     2     3    1
     3     3     4    1
     4     4     5    2
     5     4     6    2
     6     4     7    1
     7     7     8    1
     8     8     9    1
     9     9    10    1
    10     9    11    1
    11     8    12    1
    12    12    13    2
    13    12    14   am
    14    14    15    1
    15    15    16    1
    16    16    17    1
    17    17    18    1
    18    18    19    1
    19    15    20    1
    20    20    21    2
    21    20    22   am
    22    22    23    1
    23    23    24    1
    24    24    25   ar
    25    25    26   ar
    26    26    27   ar
    27    27    28   ar
    28    28    29   ar
    29    27    30    1
    30    30    31    1
    31    30    32    2
    32    29    24   ar
    33     1    33    1
    34     1    34    1
    35     1    35    1
    36     2    36    1
    37     2    37    1
    38     3    38    1
    39     3    39    1
    40     7    40    1
    41     8    41    1
    42     9    42    1
    43    10    43    1
    44    10    44    1
    45    10    45    1
    46    11    46    1
    47    14    47    1
    48    15    48    1
    49    16    49    1
    50    16    50    1
    51    17    51    1
    52    17    52    1
    53    19    53    1
    54    19    54    1
    55    19    55    1
    56    22    56    1
    57    23    57    1
    58    23    58    1
    59    25    59    1
    60    26    60    1
    61    28    61    1
    62    29    62    1
    63    31    63    1
    64    31    64    1
    65    32    65    1
