
     RDKit          3D

 39 41  0  0  0  0  0  0  0  0999 V2000
    4.0698    1.7216    0.0233 C   0  0  0  0  0  0  0  0  0  0  0  0
    3.1298    0.4982    0.0305 C   0  0  0  0  0  0  0  0  0  0  0  0
    1.8395    0.9602    0.6252 C   0  0  0  0  0  0  0  0  0  0  0  0
    0.7522   -0.0104    0.7697 C   0  0  0  0  0  0  0  0  0  0  0  0
    0.1807   -0.6842   -0.4180 C   0  0  2  0  0  0  0  0  0  0  0  0
   -0.4042    0.2652   -1.4359 C   0  0  0  0  0  0  0  0  0  0  0  0
   -1.5613    0.8440   -0.6742 C   0  0  0  0  0  0  0  0  0  0  0  0
   -2.2550    2.0508   -0.6859 C   0  0  0  0  0  0  0  0  0  0  0  0
   -3.3083    2.2757    0.1667 C   0  0  0  0  0  0  0  0  0  0  0  0
   -3.9681    3.5095    0.1090 O   0  0  0  0  0  0  0  0  0  0  0  0
   -3.7232    1.3047    1.0763 C   0  0  0  0  0  0  0  0  0  0  0  0
   -3.0627    0.0818    1.1274 C   0  0  0  0  0  0  0  0  0  0  0  0
   -2.0110   -0.0953    0.2506 C   0  0  0  0  0  0  0  0  0  0  0  0
   -1.1324   -1.2762    0.0798 C   0  0  0  0  0  0  0  0  0  0  0  0
   -1.4167   -2.5512    0.3038 C   0  0  0  0  0  0  0  0  0  0  0  0
   -3.0922   -3.2124    0.9329 Br  0  0  0  0  0  0  0  0  0  0  0  0
   -0.2867   -3.4594    0.0049 C   0  0  0  0  0  0  0  0  0  0  0  0
   -0.1614   -4.4777    0.7349 O   0  0  0  0  0  0  0  0  0  0  0  0
    0.5947   -3.0973   -1.1206 C   0  0  0  0  0  0  0  0  0  0  0  0
    1.1047   -1.7061   -0.9594 C   0  0  0  0  0  0  0  0  0  0  0  0
    4.7554    1.6395    0.8887 H   0  0  0  0  0  0  0  0  0  0  0  0
    4.6619    1.7759   -0.9095 H   0  0  0  0  0  0  0  0  0  0  0  0
    3.5067    2.6562    0.1381 H   0  0  0  0  0  0  0  0  0  0  0  0
    3.0005    0.2511   -1.0395 H   0  0  0  0  0  0  0  0  0  0  0  0
    3.6398   -0.3079    0.6161 H   0  0  0  0  0  0  0  0  0  0  0  0
    1.5652    1.9099    0.1169 H   0  0  0  0  0  0  0  0  0  0  0  0
    2.1061    1.3056    1.6738 H   0  0  0  0  0  0  0  0  0  0  0  0
    1.1437   -0.8439    1.4338 H   0  0  0  0  0  0  0  0  0  0  0  0
   -0.0873    0.4115    1.4009 H   0  0  0  0  0  0  0  0  0  0  0  0
    0.2856    1.0272   -1.7944 H   0  0  0  0  0  0  0  0  0  0  0  0
   -0.8196   -0.3536   -2.2550 H   0  0  0  0  0  0  0  0  0  0  0  0
   -1.9507    2.8078   -1.3773 H   0  0  0  0  0  0  0  0  0  0  0  0
   -4.2230    3.9904    0.9628 H   0  0  0  0  0  0  0  0  0  0  0  0
   -4.5556    1.4877    1.7471 H   0  0  0  0  0  0  0  0  0  0  0  0
   -3.3631   -0.6896    1.8227 H   0  0  0  0  0  0  0  0  0  0  0  0
    0.0624   -3.1354   -2.1057 H   0  0  0  0  0  0  0  0  0  0  0  0
    1.4695   -3.7837   -1.1249 H   0  0  0  0  0  0  0  0  0  0  0  0
    1.5148   -1.3055   -1.9279 H   0  0  0  0  0  0  0  0  0  0  0  0
    1.9993   -1.7846   -0.2753 H   0  0  0  0  0  0  0  0  0  0  0  0
  1  2  1  0
  2  3  1  0
  3  4  1  0
  5  4  1  1
  5  6  1  0
  6  7  1  0
  7  8  2  0
  8  9  1  0
  9 10  1  0
  9 11  2  0
 11 12  1  0
 12 13  2  0
 13 14  1  0
 14 15  2  0
 15 16  1  0
 15 17  1  0
 17 18  2  0
 17 19  1  0
 19 20  1  0
 14  5  1  0
 20  5  1  0
 13  7  1  0
  1 21  1  0
  1 22  1  0
  1 23  1  0
  2 24  1  0
  2 25  1  0
  3 26  1  0
  3 27  1  0
  4 28  1  0
  4 29  1  0
  6 30  1  0
  6 31  1  0
  8 32  1  0
 10 33  1  0
 11 34  1  0
 12 35  1  0
 19 36  1  0
 19 37  1  0
 20 38  1  0
 20 39  1  0
M  END
$$$$
