@<TRIPOS>MOLECULE
*****
 39 41 0 0 0
SMALL
GASTEIGER

@<TRIPOS>ATOM
      1 C           4.0698    1.7216    0.0233 C.3     1  UNL1       -0.0653
      2 C           3.1298    0.4982    0.0305 C.3     1  UNL1       -0.0559
      3 C           1.8395    0.9602    0.6252 C.3     1  UNL1       -0.0525
      4 C           0.7522   -0.0104    0.7697 C.3     1  UNL1       -0.0430
      5 C           0.1807   -0.6842   -0.4180 C.3     1  UNL1        0.0019
      6 C          -0.4042    0.2652   -1.4359 C.3     1  UNL1       -0.0173
      7 C          -1.5613    0.8440   -0.6742 C.ar    1  UNL1       -0.0356
      8 C          -2.2550    2.0508   -0.6859 C.ar    1  UNL1       -0.0164
      9 C          -3.3083    2.2757    0.1667 C.ar    1  UNL1        0.1172
     10 O          -3.9681    3.5095    0.1090 O.3     1  UNL1       -0.5068
     11 C          -3.7232    1.3047    1.0763 C.ar    1  UNL1       -0.0196
     12 C          -3.0627    0.0818    1.1274 C.ar    1  UNL1       -0.0506
     13 C          -2.0110   -0.0953    0.2506 C.ar    1  UNL1       -0.0167
     14 C          -1.1324   -1.2762    0.0798 C.2     1  UNL1       -0.0162
     15 C          -1.4167   -2.5512    0.3038 C.2     1  UNL1        0.0645
     16 BR         -3.0922   -3.2124    0.9329 Br      1  UNL1       -0.0464
     17 C          -0.2867   -3.4594    0.0049 C.2     1  UNL1        0.1703
     18 O          -0.1614   -4.4777    0.7349 O.2     1  UNL1       -0.2915
     19 C           0.5947   -3.0973   -1.1206 C.3     1  UNL1        0.0118
     20 C           1.1047   -1.7061   -0.9594 C.3     1  UNL1       -0.0360
     21 H           4.7554    1.6395    0.8887 H       1  UNL1        0.0230
     22 H           4.6619    1.7759   -0.9095 H       1  UNL1        0.0230
     23 H           3.5067    2.6562    0.1381 H       1  UNL1        0.0230
     24 H           3.0005    0.2511   -1.0395 H       1  UNL1        0.0263
     25 H           3.6398   -0.3079    0.6161 H       1  UNL1        0.0263
     26 H           1.5652    1.9099    0.1169 H       1  UNL1        0.0265
     27 H           2.1061    1.3056    1.6738 H       1  UNL1        0.0265
     28 H           1.1437   -0.8439    1.4338 H       1  UNL1        0.0274
     29 H          -0.0873    0.4115    1.4009 H       1  UNL1        0.0274
     30 H           0.2856    1.0272   -1.7944 H       1  UNL1        0.0322
     31 H          -0.8196   -0.3536   -2.2550 H       1  UNL1        0.0322
     32 H          -1.9507    2.8078   -1.3773 H       1  UNL1        0.0657
     33 H          -4.2230    3.9904    0.9628 H       1  UNL1        0.2921
     34 H          -4.5556    1.4877    1.7471 H       1  UNL1        0.0654
     35 H          -3.3631   -0.6896    1.8227 H       1  UNL1        0.0625
     36 H           0.0624   -3.1354   -2.1057 H       1  UNL1        0.0346
     37 H           1.4695   -3.7837   -1.1249 H       1  UNL1        0.0346
     38 H           1.5148   -1.3055   -1.9279 H       1  UNL1        0.0278
     39 H           1.9993   -1.7846   -0.2753 H       1  UNL1        0.0278
@<TRIPOS>BOND
     1     1     2    1
     2     2     3    1
     3     3     4    1
     4     5     4    1
     5     5     6    1
     6     6     7    1
     7     7     8   ar
     8     8     9   ar
     9     9    10    1
    10     9    11   ar
    11    11    12   ar
    12    12    13   ar
    13    13    14    1
    14    14    15    2
    15    15    16    1
    16    15    17    1
    17    17    18    2
    18    17    19    1
    19    19    20    1
    20    14     5    1
    21    20     5    1
    22    13     7   ar
    23     1    21    1
    24     1    22    1
    25     1    23    1
    26     2    24    1
    27     2    25    1
    28     3    26    1
    29     3    27    1
    30     4    28    1
    31     4    29    1
    32     6    30    1
    33     6    31    1
    34     8    32    1
    35    10    33    1
    36    11    34    1
    37    12    35    1
    38    19    36    1
    39    19    37    1
    40    20    38    1
    41    20    39    1
