@<TRIPOS>MOLECULE
*****
 53 57 0 0 0
SMALL
GASTEIGER

@<TRIPOS>ATOM
      1 C           5.0120   -4.7517   -0.0253 C.3     1  UNL1        0.0004
      2 N           4.5090   -3.4244   -0.3433 N.am    1  UNL1       -0.3144
      3 C           3.8437   -2.5842    0.5914 C.2     1  UNL1        0.2460
      4 O           3.6885   -3.0276    1.7475 O.2     1  UNL1       -0.2701
      5 C           3.3796   -1.2700    0.1758 C.ar    1  UNL1        0.0666
      6 C           4.1011   -0.1494   -0.1941 C.ar    1  UNL1        0.0175
      7 N           3.2600    0.8592   -0.4921 N.ar    1  UNL1       -0.3503
      8 C           3.6285    2.2053   -0.9308 C.3     1  UNL1        0.0117
      9 C           1.9906    0.3800   -0.3116 C.ar    1  UNL1        0.0569
     10 C           2.0460   -0.9209    0.0965 C.ar    1  UNL1        0.0722
     11 C           0.6744   -1.3662    0.2629 C.2     1  UNL1        0.2542
     12 O           0.3764   -2.5319    0.6342 O.2     1  UNL1       -0.2695
     13 N          -0.1986   -0.2957   -0.0559 N.am    1  UNL1       -0.2530
     14 C          -1.6365   -0.4114   -0.0201 C.ar    1  UNL1        0.0545
     15 C          -2.3156   -0.2678    1.1638 C.ar    1  UNL1       -0.0324
     16 C          -3.6981   -0.3561    1.2257 C.ar    1  UNL1       -0.0041
     17 C          -4.4468   -0.2072    2.5175 C.3     1  UNL1       -0.0361
     18 C          -4.3705   -0.5945    0.0451 C.ar    1  UNL1        0.1642
     19 N          -5.6896   -0.7252   -0.1921 N.ar    1  UNL1       -0.1290
     20 N          -5.8431   -0.9447   -1.4898 N.ar    1  UNL1       -0.1278
     21 C          -4.6463   -0.9574   -2.0940 C.ar    1  UNL1        0.2041
     22 C          -4.3937   -1.1711   -3.5296 C.3     1  UNL1        0.2980
     23 F          -4.5704   -2.4967   -3.8962 F       1  UNL1       -0.2005
     24 F          -5.1729   -0.3506   -4.3130 F       1  UNL1       -0.2005
     25 N          -3.7308   -0.7397   -1.1351 N.ar    1  UNL1       -0.2798
     26 C          -2.3789   -0.6487   -1.1615 C.ar    1  UNL1        0.0345
     27 C           0.5943    0.8276   -0.4179 C.3     1  UNL1        0.0973
     28 C           0.3217    2.0489    0.3648 C.ar    1  UNL1       -0.0208
     29 C           0.1859    3.2692   -0.2535 C.ar    1  UNL1       -0.0550
     30 C          -0.0727    4.4325    0.4434 C.ar    1  UNL1       -0.0431
     31 C          -0.2045    4.3949    1.8223 C.ar    1  UNL1        0.0410
     32 CL         -0.5237    5.8286    2.7550 Cl      1  UNL1       -0.0835
     33 C          -0.0705    3.1808    2.4563 C.ar    1  UNL1       -0.0431
     34 C           0.1885    2.0300    1.7310 C.ar    1  UNL1       -0.0550
     35 H           4.9302   -4.9929    1.0523 H       1  UNL1        0.0426
     36 H           6.0727   -4.8771   -0.3703 H       1  UNL1        0.0426
     37 H           4.4244   -5.4658   -0.6518 H       1  UNL1        0.0426
     38 H           4.6553   -3.0873   -1.3167 H       1  UNL1        0.1487
     39 H           5.1902   -0.1050   -0.2354 H       1  UNL1        0.0817
     40 H           4.6978    2.1690   -1.2929 H       1  UNL1        0.0456
     41 H           3.0277    2.5265   -1.8117 H       1  UNL1        0.0456
     42 H           3.5565    2.9512   -0.1460 H       1  UNL1        0.0456
     43 H          -1.7969   -0.0815    2.1037 H       1  UNL1        0.0640
     44 H          -3.7980    0.2574    3.2733 H       1  UNL1        0.0279
     45 H          -5.3828    0.3241    2.3424 H       1  UNL1        0.0279
     46 H          -4.7508   -1.2359    2.8736 H       1  UNL1        0.0279
     47 H          -3.3201   -0.9455   -3.7945 H       1  UNL1        0.1105
     48 H          -1.9102   -0.7698   -2.1138 H       1  UNL1        0.0833
     49 H           0.3569    1.0550   -1.5067 H       1  UNL1        0.0619
     50 H           0.2777    3.3512   -1.3290 H       1  UNL1        0.0621
     51 H          -0.1838    5.4104   -0.0332 H       1  UNL1        0.0632
     52 H          -0.1702    3.1501    3.5241 H       1  UNL1        0.0632
     53 H           0.2860    1.1019    2.2550 H       1  UNL1        0.0621
@<TRIPOS>BOND
     1     1     2    1
     2     2     3   am
     3     3     4    2
     4     3     5    1
     5     5     6   ar
     6     6     7   ar
     7     7     8    1
     8     7     9   ar
     9     9    10   ar
    10    10    11    1
    11    11    12    2
    12    11    13   am
    13    13    14    1
    14    14    15   ar
    15    15    16   ar
    16    16    17    1
    17    16    18   ar
    18    18    19   ar
    19    19    20   ar
    20    20    21   ar
    21    21    22    1
    22    22    23    1
    23    22    24    1
    24    21    25   ar
    25    25    26   ar
    26    13    27    1
    27    27    28    1
    28    28    29   ar
    29    29    30   ar
    30    30    31   ar
    31    31    32    1
    32    31    33   ar
    33    33    34   ar
    34    10     5   ar
    35    26    14   ar
    36    34    28   ar
    37    27     9    1
    38    25    18   ar
    39     1    35    1
    40     1    36    1
    41     1    37    1
    42     2    38    1
    43     6    39    1
    44     8    40    1
    45     8    41    1
    46     8    42    1
    47    15    43    1
    48    17    44    1
    49    17    45    1
    50    17    46    1
    51    22    47    1
    52    26    48    1
    53    27    49    1
    54    29    50    1
    55    30    51    1
    56    33    52    1
    57    34    53    1
