@<TRIPOS>MOLECULE
*****
 72 77 0 0 0
SMALL
GASTEIGER

@<TRIPOS>ATOM
      1 C          -6.3790   -3.9808   -1.0443 C.3     1  UNL1       -0.0151
      2 N          -5.2794   -4.6405   -0.4666 N.3     1  UNL1       -0.3089
      3 C          -5.0017   -4.5856    0.9202 C.3     1  UNL1        0.0820
      4 C          -3.9661   -5.7172    1.1741 C.3     1  UNL1       -0.0411
      5 C          -4.2311   -3.3508    1.3294 C.2     1  UNL1        0.2350
      6 O          -3.8709   -3.3539    2.5913 O.2     1  UNL1       -0.2737
      7 N          -3.8773   -2.2894    0.5730 N.am    1  UNL1       -0.2691
      8 C          -3.1063   -1.1170    0.8579 C.ar    1  UNL1        0.1263
      9 C          -3.6011    0.1085    1.2147 C.ar    1  UNL1       -0.0208
     10 C          -2.6836    1.1771    1.2850 C.ar    1  UNL1       -0.0466
     11 C          -1.4004    1.0484    1.0260 C.ar    1  UNL1        0.0349
     12 C          -0.4222    2.0966    0.7757 C.ar    1  UNL1        0.0838
     13 C          -0.4960    3.0849   -0.2016 C.ar    1  UNL1        0.1028
     14 C          -1.6407    3.6175   -0.9057 C.ar    1  UNL1        0.0639
     15 C          -2.7975    2.9953   -1.2840 C.ar    1  UNL1       -0.0460
     16 C          -3.9079    3.6407   -1.8261 C.ar    1  UNL1       -0.0427
     17 C          -3.8272    5.0832   -1.9991 C.ar    1  UNL1        0.0314
     18 N          -2.7354    5.5610   -1.6282 N.ar    1  UNL1       -0.2208
     19 C          -1.6361    5.0550   -1.1199 C.ar    1  UNL1        0.2239
     20 O          -0.4826    5.7241   -0.7842 O.3     1  UNL1       -0.4792
     21 C          -0.3077    7.0868   -0.8556 C.3     1  UNL1        0.0804
     22 N           0.7420    3.6593   -0.2122 N.ar    1  UNL1       -0.2270
     23 C           1.5120    3.0581    0.7030 C.ar    1  UNL1        0.1387
     24 C           2.8506    3.3533    1.0093 C.ar    1  UNL1       -0.0188
     25 C           3.4522    2.6510    1.9944 C.ar    1  UNL1       -0.0569
     26 C           2.7256    1.6627    2.6558 C.ar    1  UNL1       -0.0450
     27 C           1.3955    1.3866    2.3167 C.ar    1  UNL1        0.0118
     28 N           0.8238    2.0965    1.3402 N.ar    1  UNL1       -0.2986
     29 C          -0.9366   -0.3280    0.6502 C.ar    1  UNL1        0.1250
     30 C           0.3101   -0.3442    0.1927 C.1     1  UNL1       -0.0404
     31 C           1.6614   -0.3548   -0.3281 C.1     1  UNL1       -0.0595
     32 C           2.9394   -0.3800   -0.8068 C.ar    1  UNL1        0.0259
     33 C           3.3279   -0.6798   -2.1188 C.ar    1  UNL1       -0.0457
     34 C           4.5454   -1.3442   -2.2581 C.ar    1  UNL1       -0.0512
     35 C           5.4080   -1.7449   -1.3481 C.ar    1  UNL1        0.0032
     36 C           6.5260   -2.4560   -1.3285 C.ar    1  UNL1        0.0459
     37 C           6.9873   -2.7717   -2.8131 C.3     1  UNL1       -0.0218
     38 N           7.3467   -2.9392   -0.4620 N.ar    1  UNL1       -0.2595
     39 C           6.9791   -2.6283    0.8933 C.ar    1  UNL1        0.0285
     40 C           5.8426   -1.8956    0.9941 C.ar    1  UNL1       -0.0358
     41 C           5.0312   -1.4272    0.0644 C.ar    1  UNL1       -0.0136
     42 C           3.8743   -0.7915    0.2342 C.ar    1  UNL1       -0.0385
     43 N          -1.8160   -1.2532    0.5967 N.ar    1  UNL1       -0.2229
     44 H          -7.1376   -3.6645   -0.2987 H       1  UNL1        0.0388
     45 H          -6.0442   -3.1469   -1.7056 H       1  UNL1        0.0388
     46 H          -6.9220   -4.7065   -1.7388 H       1  UNL1        0.0388
     47 H          -4.9647   -5.4937   -0.9857 H       1  UNL1        0.1223
     48 H          -5.8622   -4.7341    1.5527 H       1  UNL1        0.0554
     49 H          -2.9506   -5.3055    1.0426 H       1  UNL1        0.0249
     50 H          -4.0834   -6.4194    0.2883 H       1  UNL1        0.0249
     51 H          -4.1856   -6.2768    2.0743 H       1  UNL1        0.0249
     52 H          -4.2244   -2.3105   -0.4526 H       1  UNL1        0.1563
     53 H          -4.6410    0.2200    1.4160 H       1  UNL1        0.0652
     54 H          -3.0793    2.1605    1.5869 H       1  UNL1        0.0626
     55 H          -2.8251    1.9132   -1.1930 H       1  UNL1        0.0626
     56 H          -4.7685    3.1394   -2.0766 H       1  UNL1        0.0633
     57 H          -4.7276    5.5621   -2.4132 H       1  UNL1        0.0831
     58 H          -0.1082    7.4791    0.1548 H       1  UNL1        0.0660
     59 H           0.5739    7.2477   -1.5695 H       1  UNL1        0.0660
     60 H          -1.2038    7.6173   -1.2924 H       1  UNL1        0.0660
     61 H           3.3646    4.1150    0.4482 H       1  UNL1        0.0654
     62 H           4.4554    2.8252    2.2748 H       1  UNL1        0.0619
     63 H           3.1766    1.0959    3.4507 H       1  UNL1        0.0632
     64 H           0.8365    0.6211    2.8484 H       1  UNL1        0.0813
     65 H           2.6717   -0.3724   -2.8736 H       1  UNL1        0.0630
     66 H           4.8109   -1.5741   -3.3298 H       1  UNL1        0.0625
     67 H           6.8145   -1.8304   -3.3418 H       1  UNL1        0.0293
     68 H           6.4126   -3.6486   -3.1376 H       1  UNL1        0.0293
     69 H           8.0407   -3.0007   -2.6898 H       1  UNL1        0.0293
     70 H           7.6163   -3.0092    1.6301 H       1  UNL1        0.0830
     71 H           5.5600   -1.6597    2.0958 H       1  UNL1        0.0639
     72 H           3.5159   -0.6162    1.2649 H       1  UNL1        0.0636
@<TRIPOS>BOND
     1     1     2    1
     2     2     3    1
     3     3     4    1
     4     3     5    1
     5     5     6    2
     6     5     7   am
     7     7     8    1
     8     8     9   ar
     9     9    10   ar
    10    10    11   ar
    11    11    12    1
    12    12    13   ar
    13    13    14    1
    14    14    15   ar
    15    15    16   ar
    16    16    17   ar
    17    17    18   ar
    18    18    19   ar
    19    19    20    1
    20    20    21    1
    21    13    22   ar
    22    22    23   ar
    23    23    24   ar
    24    24    25   ar
    25    25    26   ar
    26    26    27   ar
    27    27    28   ar
    28    11    29   ar
    29    29    30    1
    30    30    31    3
    31    31    32    1
    32    32    33   ar
    33    33    34   ar
    34    34    35   ar
    35    35    36   ar
    36    36    37    1
    37    36    38   ar
    38    38    39   ar
    39    39    40   ar
    40    40    41   ar
    41    41    42   ar
    42    29    43   ar
    43    43     8   ar
    44    28    12   ar
    45    42    32   ar
    46    19    14   ar
    47    28    23   ar
    48    41    35   ar
    49     1    44    1
    50     1    45    1
    51     1    46    1
    52     2    47    1
    53     3    48    1
    54     4    49    1
    55     4    50    1
    56     4    51    1
    57     7    52    1
    58     9    53    1
    59    10    54    1
    60    15    55    1
    61    16    56    1
    62    17    57    1
    63    21    58    1
    64    21    59    1
    65    21    60    1
    66    24    61    1
    67    25    62    1
    68    26    63    1
    69    27    64    1
    70    33    65    1
    71    34    66    1
    72    37    67    1
    73    37    68    1
    74    37    69    1
    75    39    70    1
    76    40    71    1
    77    42    72    1
