
     RDKit          3D

 48 51  0  0  0  0  0  0  0  0999 V2000
    8.5472   -0.6689   -0.0174 C   0  0  0  0  0  0  0  0  0  0  0  0
    8.1837    0.4357    0.2501 C   0  0  0  0  0  0  0  0  0  0  0  0
    7.7427    1.7910    0.5892 C   0  0  0  0  0  0  0  0  0  0  0  0
    6.6506    2.1517   -0.1957 O   0  0  0  0  0  0  0  0  0  0  0  0
    5.4398    1.5229   -0.2463 C   0  0  0  0  0  0  0  0  0  0  0  0
    5.2100    0.4060    0.5425 C   0  0  0  0  0  0  0  0  0  0  0  0
    3.9902   -0.2195    0.4856 C   0  0  0  0  0  0  0  0  0  0  0  0
    2.9807    0.2252   -0.3313 C   0  0  0  0  0  0  0  0  0  0  0  0
    1.6966   -0.4607   -0.3720 C   0  0  0  0  0  0  0  0  0  0  0  0
    1.5321   -1.4732    0.3669 O   0  0  0  0  0  0  0  0  0  0  0  0
    0.6135   -0.0822   -1.1767 N   0  0  0  0  0  0  0  0  0  0  0  0
   -0.6355   -0.8061   -1.1718 C   0  0  0  0  0  0  0  0  0  0  0  0
   -0.8385   -1.8574   -2.0360 C   0  0  0  0  0  0  0  0  0  0  0  0
   -2.0059   -2.5836   -2.0693 C   0  0  0  0  0  0  0  0  0  0  0  0
   -3.0059   -2.2025   -1.1670 C   0  0  0  0  0  0  0  0  0  0  0  0
   -4.1445   -2.9281   -1.1959 F   0  0  0  0  0  0  0  0  0  0  0  0
   -2.8396   -1.1564   -0.2882 C   0  0  0  0  0  0  0  0  0  0  0  0
   -3.9483   -0.7909    0.6592 C   0  0  1  0  0  0  0  0  0  0  0  0
   -4.1565   -1.9822    1.5859 C   0  0  0  0  0  0  0  0  0  0  0  0
   -2.9472   -2.1875    2.2542 F   0  0  0  0  0  0  0  0  0  0  0  0
   -5.0756   -1.6286    2.5552 F   0  0  0  0  0  0  0  0  0  0  0  0
   -3.4917    0.3187    1.4478 N   0  0  0  0  0  0  0  0  0  0  0  0
   -3.5515    1.5153    1.0195 C   0  0  0  0  0  0  0  0  0  0  0  0
   -3.0828    2.6178    1.8337 N   0  0  0  0  0  0  0  0  0  0  0  0
   -4.0742    1.7372   -0.2410 O   0  0  0  0  0  0  0  0  0  0  0  0
   -5.1739    0.9689   -0.6673 C   0  0  2  0  0  0  0  0  0  0  0  0
   -6.1963    0.4973    0.3461 C   0  0  0  0  0  0  0  0  0  0  0  0
   -5.1617   -0.4478   -0.1093 C   0  0  2  0  0  0  0  0  0  0  0  0
   -1.6329   -0.4472   -0.2921 C   0  0  0  0  0  0  0  0  0  0  0  0
    3.2161    1.3108   -1.0926 N   0  0  0  0  0  0  0  0  0  0  0  0
    4.4184    1.9571   -1.0605 C   0  0  0  0  0  0  0  0  0  0  0  0
    8.8549   -1.6461   -0.2658 H   0  0  0  0  0  0  0  0  0  0  0  0
    7.5717    1.8544    1.6809 H   0  0  0  0  0  0  0  0  0  0  0  0
    8.5803    2.5045    0.3456 H   0  0  0  0  0  0  0  0  0  0  0  0
    5.9626   -0.0040    1.2147 H   0  0  0  0  0  0  0  0  0  0  0  0
    3.7715   -1.1086    1.0969 H   0  0  0  0  0  0  0  0  0  0  0  0
    0.7031    0.7436   -1.7994 H   0  0  0  0  0  0  0  0  0  0  0  0
   -0.0456   -2.1224   -2.7172 H   0  0  0  0  0  0  0  0  0  0  0  0
   -2.1700   -3.4204   -2.7549 H   0  0  0  0  0  0  0  0  0  0  0  0
   -4.4029   -2.9094    1.0743 H   0  0  0  0  0  0  0  0  0  0  0  0
   -3.6882    3.0644    2.5506 H   0  0  0  0  0  0  0  0  0  0  0  0
   -2.1186    2.9786    1.7056 H   0  0  0  0  0  0  0  0  0  0  0  0
   -5.5094    1.1231   -1.7183 H   0  0  0  0  0  0  0  0  0  0  0  0
   -6.1454    1.0487    1.3017 H   0  0  0  0  0  0  0  0  0  0  0  0
   -7.2283    0.3507   -0.0200 H   0  0  0  0  0  0  0  0  0  0  0  0
   -5.5089   -1.2013   -0.8546 H   0  0  0  0  0  0  0  0  0  0  0  0
   -1.5008    0.3756    0.4036 H   0  0  0  0  0  0  0  0  0  0  0  0
    4.6149    2.8358   -1.6745 H   0  0  0  0  0  0  0  0  0  0  0  0
  1  2  3  0
  2  3  1  0
  3  4  1  0
  4  5  1  0
  5  6  2  0
  6  7  1  0
  7  8  2  0
  8  9  1  0
  9 10  2  0
  9 11  1  0
 11 12  1  0
 12 13  2  0
 13 14  1  0
 14 15  2  0
 15 16  1  0
 15 17  1  0
 17 18  1  0
 18 19  1  1
 19 20  1  0
 19 21  1  0
 18 22  1  0
 22 23  2  0
 23 24  1  0
 23 25  1  0
 25 26  1  0
 26 27  1  0
 27 28  1  0
 17 29  2  0
  8 30  1  0
 30 31  2  0
 31  5  1  0
 29 12  1  0
 28 18  1  0
 28 26  1  0
  1 32  1  0
  3 33  1  0
  3 34  1  0
  6 35  1  0
  7 36  1  0
 11 37  1  0
 13 38  1  0
 14 39  1  0
 19 40  1  0
 24 41  1  0
 24 42  1  0
 26 43  1  6
 27 44  1  0
 27 45  1  0
 28 46  1  6
 29 47  1  0
 31 48  1  0
M  END
$$$$
