@<TRIPOS>MOLECULE
*****
 48 51 0 0 0
SMALL
GASTEIGER

@<TRIPOS>ATOM
      1 C           8.5472   -0.6689   -0.0174 C.1     1  UNL1       -0.1158
      2 C           8.1837    0.4357    0.2501 C.1     1  UNL1       -0.0648
      3 C           7.7427    1.7910    0.5892 C.3     1  UNL1        0.1497
      4 O           6.6506    2.1517   -0.1957 O.3     1  UNL1       -0.4780
      5 C           5.4398    1.5229   -0.2463 C.ar    1  UNL1        0.1399
      6 C           5.2100    0.4060    0.5425 C.ar    1  UNL1       -0.0162
      7 C           3.9902   -0.2195    0.4856 C.ar    1  UNL1       -0.0277
      8 C           2.9807    0.2252   -0.3313 C.ar    1  UNL1        0.1259
      9 C           1.6966   -0.4607   -0.3720 C.2     1  UNL1        0.2666
     10 O           1.5321   -1.4732    0.3669 O.2     1  UNL1       -0.2682
     11 N           0.6135   -0.0822   -1.1767 N.am    1  UNL1       -0.2802
     12 C          -0.6355   -0.8061   -1.1718 C.ar    1  UNL1        0.0342
     13 C          -0.8385   -1.8574   -2.0360 C.ar    1  UNL1       -0.0377
     14 C          -2.0059   -2.5836   -2.0693 C.ar    1  UNL1       -0.0243
     15 C          -3.0059   -2.2025   -1.1670 C.ar    1  UNL1        0.1292
     16 F          -4.1445   -2.9281   -1.1959 F       1  UNL1       -0.2051
     17 C          -2.8396   -1.1564   -0.2882 C.ar    1  UNL1        0.0228
     18 C          -3.9483   -0.7909    0.6592 C.3     1  UNL1        0.1603
     19 C          -4.1565   -1.9822    1.5859 C.3     1  UNL1        0.2686
     20 F          -2.9472   -2.1875    2.2542 F       1  UNL1       -0.2062
     21 F          -5.0756   -1.6286    2.5552 F       1  UNL1       -0.2062
     22 N          -3.4917    0.3187    1.4478 N.2     1  UNL1       -0.2194
     23 C          -3.5515    1.5153    1.0195 C.2     1  UNL1        0.2764
     24 N          -3.0828    2.6178    1.8337 N.pl3   1  UNL1       -0.3134
     25 O          -4.0742    1.7372   -0.2410 O.2     1  UNL1       -0.4622
     26 C          -5.1739    0.9689   -0.6673 C.3     1  UNL1        0.1091
     27 C          -6.1963    0.4973    0.3461 C.3     1  UNL1       -0.0064
     28 C          -5.1617   -0.4478   -0.1093 C.3     1  UNL1        0.0344
     29 C          -1.6329   -0.4472   -0.2921 C.ar    1  UNL1       -0.0321
     30 N           3.2161    1.3108   -1.0926 N.ar    1  UNL1       -0.2467
     31 C           4.4184    1.9571   -1.0605 C.ar    1  UNL1        0.0701
     32 H           8.8549   -1.6461   -0.2658 H       1  UNL1        0.1229
     33 H           7.5717    1.8544    1.6809 H       1  UNL1        0.0837
     34 H           8.5803    2.5045    0.3456 H       1  UNL1        0.0837
     35 H           5.9626   -0.0040    1.2147 H       1  UNL1        0.0655
     36 H           3.7715   -1.1086    1.0969 H       1  UNL1        0.0641
     37 H           0.7031    0.7436   -1.7994 H       1  UNL1        0.1552
     38 H          -0.0456   -2.1224   -2.7172 H       1  UNL1        0.0637
     39 H          -2.1700   -3.4204   -2.7549 H       1  UNL1        0.0647
     40 H          -4.4029   -2.9094    1.0743 H       1  UNL1        0.1047
     41 H          -3.6882    3.0644    2.5506 H       1  UNL1        0.1466
     42 H          -2.1186    2.9786    1.7056 H       1  UNL1        0.1466
     43 H          -5.5094    1.1231   -1.7183 H       1  UNL1        0.0737
     44 H          -6.1454    1.0487    1.3017 H       1  UNL1        0.0306
     45 H          -7.2283    0.3507   -0.0200 H       1  UNL1        0.0306
     46 H          -5.5089   -1.2013   -0.8546 H       1  UNL1        0.0366
     47 H          -1.5008    0.3756    0.4036 H       1  UNL1        0.0640
     48 H           4.6149    2.8358   -1.6745 H       1  UNL1        0.0867
@<TRIPOS>BOND
     1     1     2    3
     2     2     3    1
     3     3     4    1
     4     4     5    1
     5     5     6   ar
     6     6     7   ar
     7     7     8   ar
     8     8     9    1
     9     9    10    2
    10     9    11   am
    11    11    12    1
    12    12    13   ar
    13    13    14   ar
    14    14    15   ar
    15    15    16    1
    16    15    17   ar
    17    17    18    1
    18    18    19    1
    19    19    20    1
    20    19    21    1
    21    18    22    1
    22    22    23    2
    23    23    24    1
    24    23    25    1
    25    25    26    1
    26    26    27    1
    27    27    28    1
    28    17    29   ar
    29     8    30   ar
    30    30    31   ar
    31    31     5   ar
    32    29    12   ar
    33    28    18    1
    34    28    26    1
    35     1    32    1
    36     3    33    1
    37     3    34    1
    38     6    35    1
    39     7    36    1
    40    11    37    1
    41    13    38    1
    42    14    39    1
    43    19    40    1
    44    24    41    1
    45    24    42    1
    46    26    43    1
    47    27    44    1
    48    27    45    1
    49    28    46    1
    50    29    47    1
    51    31    48    1
