@<TRIPOS>MOLECULE
*****
 45 49 0 0 0
SMALL
GASTEIGER

@<TRIPOS>ATOM
      1 C           4.5806    1.8480   -0.5659 C.3     1  UNL1       -0.0203
      2 C           3.5492    1.7150   -1.6327 C.ar    1  UNL1        0.0658
      3 N           3.6763    1.8527   -2.9549 N.ar    1  UNL1       -0.1781
      4 N           2.5253    1.6559   -3.5651 N.ar    1  UNL1       -0.2719
      5 C           1.5751    1.3755   -2.6550 C.ar    1  UNL1        0.1262
      6 C           2.1856    1.4049   -1.4326 C.ar    1  UNL1        0.0303
      7 C           1.2126    1.1055   -0.3643 C.3     1  UNL1        0.0881
      8 C           1.6111   -0.1371    0.3689 C.ar    1  UNL1        0.0131
      9 C           1.8345   -1.3252   -0.3032 C.ar    1  UNL1       -0.0523
     10 C           2.2017   -2.4818    0.3415 C.ar    1  UNL1       -0.0429
     11 C           2.3520   -2.4496    1.7152 C.ar    1  UNL1        0.0437
     12 CL          2.8228   -3.9374    2.5306 Cl      1  UNL1       -0.0835
     13 C           2.1359   -1.2781    2.4141 C.ar    1  UNL1       -0.0078
     14 C           1.7689   -0.1441    1.7218 C.ar    1  UNL1        0.1300
     15 F           1.5652    0.9909    2.4479 F       1  UNL1       -0.2051
     16 N          -0.0373    0.8941   -1.0300 N.am    1  UNL1       -0.2530
     17 C          -1.2832    0.5740   -0.3677 C.ar    1  UNL1        0.0545
     18 C          -2.1298    1.5815    0.0484 C.ar    1  UNL1       -0.0324
     19 C          -3.3270    1.3313    0.6833 C.ar    1  UNL1       -0.0041
     20 C          -4.2428    2.4161    1.1333 C.3     1  UNL1       -0.0361
     21 C          -3.6540    0.0044    0.8917 C.ar    1  UNL1        0.1641
     22 N          -4.7431   -0.5393    1.4781 N.ar    1  UNL1       -0.1292
     23 N          -4.5864   -1.8530    1.4325 N.ar    1  UNL1       -0.1340
     24 C          -3.4172   -2.1292    0.8269 C.ar    1  UNL1        0.1347
     25 C          -2.8906   -3.5139    0.5894 C.3     1  UNL1       -0.0041
     26 N          -2.8378   -0.9729    0.4907 N.ar    1  UNL1       -0.2846
     27 C          -1.6621   -0.7309   -0.1327 C.ar    1  UNL1        0.0344
     28 C           0.1776    1.0556   -2.4174 C.2     1  UNL1        0.2698
     29 O          -0.7447    0.9297   -3.2858 O.2     1  UNL1       -0.2679
     30 H           5.0557    0.8615   -0.3631 H       1  UNL1        0.0293
     31 H           5.3040    2.6221   -0.8831 H       1  UNL1        0.0293
     32 H           4.0436    2.1491    0.3612 H       1  UNL1        0.0293
     33 H           2.3910    1.7129   -4.5951 H       1  UNL1        0.1891
     34 H           1.1601    1.9280    0.3900 H       1  UNL1        0.0607
     35 H           1.7228   -1.3809   -1.3954 H       1  UNL1        0.0622
     36 H           2.3723   -3.4011   -0.1986 H       1  UNL1        0.0632
     37 H           2.2619   -1.2882    3.4858 H       1  UNL1        0.0661
     38 H          -1.8618    2.6155   -0.1210 H       1  UNL1        0.0640
     39 H          -4.9462    2.6855    0.3152 H       1  UNL1        0.0279
     40 H          -4.7942    2.1202    2.0478 H       1  UNL1        0.0279
     41 H          -3.6083    3.2954    1.3659 H       1  UNL1        0.0279
     42 H          -3.1681   -4.1498    1.4492 H       1  UNL1        0.0308
     43 H          -3.3042   -3.9358   -0.3464 H       1  UNL1        0.0308
     44 H          -1.7949   -3.5307    0.5111 H       1  UNL1        0.0308
     45 H          -1.0522   -1.5467   -0.4303 H       1  UNL1        0.0833
@<TRIPOS>BOND
     1     1     2    1
     2     2     3   ar
     3     3     4   ar
     4     4     5   ar
     5     5     6   ar
     6     6     7    1
     7     7     8    1
     8     8     9   ar
     9     9    10   ar
    10    10    11   ar
    11    11    12    1
    12    11    13   ar
    13    13    14   ar
    14    14    15    1
    15     7    16    1
    16    16    17    1
    17    17    18   ar
    18    18    19   ar
    19    19    20    1
    20    19    21   ar
    21    21    22   ar
    22    22    23   ar
    23    23    24   ar
    24    24    25    1
    25    24    26   ar
    26    26    27   ar
    27    16    28   am
    28    28    29    2
    29     6     2   ar
    30    14     8   ar
    31    27    17   ar
    32    28     5    1
    33    26    21   ar
    34     1    30    1
    35     1    31    1
    36     1    32    1
    37     4    33    1
    38     7    34    1
    39     9    35    1
    40    10    36    1
    41    13    37    1
    42    18    38    1
    43    20    39    1
    44    20    40    1
    45    20    41    1
    46    25    42    1
    47    25    43    1
    48    25    44    1
    49    27    45    1
