
     RDKit          3D

 45 49  0  0  0  0  0  0  0  0999 V2000
    4.5806    1.8480   -0.5659 C   0  0  0  0  0  0  0  0  0  0  0  0
    3.5492    1.7150   -1.6327 C   0  0  0  0  0  0  0  0  0  0  0  0
    3.6763    1.8527   -2.9549 N   0  0  0  0  0  0  0  0  0  0  0  0
    2.5253    1.6559   -3.5651 N   0  0  0  0  0  0  0  0  0  0  0  0
    1.5751    1.3755   -2.6550 C   0  0  0  0  0  0  0  0  0  0  0  0
    2.1856    1.4049   -1.4326 C   0  0  0  0  0  0  0  0  0  0  0  0
    1.2126    1.1055   -0.3643 C   0  0  0  0  0  0  0  0  0  0  0  0
    1.6111   -0.1371    0.3689 C   0  0  0  0  0  0  0  0  0  0  0  0
    1.8345   -1.3252   -0.3032 C   0  0  0  0  0  0  0  0  0  0  0  0
    2.2017   -2.4818    0.3415 C   0  0  0  0  0  0  0  0  0  0  0  0
    2.3520   -2.4496    1.7152 C   0  0  0  0  0  0  0  0  0  0  0  0
    2.8228   -3.9374    2.5306 Cl  0  0  0  0  0  0  0  0  0  0  0  0
    2.1359   -1.2781    2.4141 C   0  0  0  0  0  0  0  0  0  0  0  0
    1.7689   -0.1441    1.7218 C   0  0  0  0  0  0  0  0  0  0  0  0
    1.5652    0.9909    2.4479 F   0  0  0  0  0  0  0  0  0  0  0  0
   -0.0373    0.8941   -1.0300 N   0  0  0  0  0  0  0  0  0  0  0  0
   -1.2832    0.5740   -0.3677 C   0  0  0  0  0  0  0  0  0  0  0  0
   -2.1298    1.5815    0.0484 C   0  0  0  0  0  0  0  0  0  0  0  0
   -3.3270    1.3313    0.6833 C   0  0  0  0  0  0  0  0  0  0  0  0
   -4.2428    2.4161    1.1333 C   0  0  0  0  0  0  0  0  0  0  0  0
   -3.6540    0.0044    0.8917 C   0  0  0  0  0  0  0  0  0  0  0  0
   -4.7431   -0.5393    1.4781 N   0  0  0  0  0  0  0  0  0  0  0  0
   -4.5864   -1.8530    1.4325 N   0  0  0  0  0  0  0  0  0  0  0  0
   -3.4172   -2.1292    0.8269 C   0  0  0  0  0  0  0  0  0  0  0  0
   -2.8906   -3.5139    0.5894 C   0  0  0  0  0  0  0  0  0  0  0  0
   -2.8378   -0.9729    0.4907 N   0  0  0  0  0  0  0  0  0  0  0  0
   -1.6621   -0.7309   -0.1327 C   0  0  0  0  0  0  0  0  0  0  0  0
    0.1776    1.0556   -2.4174 C   0  0  0  0  0  0  0  0  0  0  0  0
   -0.7447    0.9297   -3.2858 O   0  0  0  0  0  0  0  0  0  0  0  0
    5.0557    0.8615   -0.3631 H   0  0  0  0  0  0  0  0  0  0  0  0
    5.3040    2.6221   -0.8831 H   0  0  0  0  0  0  0  0  0  0  0  0
    4.0436    2.1491    0.3612 H   0  0  0  0  0  0  0  0  0  0  0  0
    2.3910    1.7129   -4.5951 H   0  0  0  0  0  0  0  0  0  0  0  0
    1.1601    1.9280    0.3900 H   0  0  0  0  0  0  0  0  0  0  0  0
    1.7228   -1.3809   -1.3954 H   0  0  0  0  0  0  0  0  0  0  0  0
    2.3723   -3.4011   -0.1986 H   0  0  0  0  0  0  0  0  0  0  0  0
    2.2619   -1.2882    3.4858 H   0  0  0  0  0  0  0  0  0  0  0  0
   -1.8618    2.6155   -0.1210 H   0  0  0  0  0  0  0  0  0  0  0  0
   -4.9462    2.6855    0.3152 H   0  0  0  0  0  0  0  0  0  0  0  0
   -4.7942    2.1202    2.0478 H   0  0  0  0  0  0  0  0  0  0  0  0
   -3.6083    3.2954    1.3659 H   0  0  0  0  0  0  0  0  0  0  0  0
   -3.1681   -4.1498    1.4492 H   0  0  0  0  0  0  0  0  0  0  0  0
   -3.3042   -3.9358   -0.3464 H   0  0  0  0  0  0  0  0  0  0  0  0
   -1.7949   -3.5307    0.5111 H   0  0  0  0  0  0  0  0  0  0  0  0
   -1.0522   -1.5467   -0.4303 H   0  0  0  0  0  0  0  0  0  0  0  0
  1  2  1  0
  2  3  2  0
  3  4  1  0
  4  5  1  0
  5  6  2  0
  6  7  1  0
  7  8  1  0
  8  9  2  0
  9 10  1  0
 10 11  2  0
 11 12  1  0
 11 13  1  0
 13 14  2  0
 14 15  1  0
  7 16  1  0
 16 17  1  0
 17 18  1  0
 18 19  2  0
 19 20  1  0
 19 21  1  0
 21 22  2  0
 22 23  1  0
 23 24  2  0
 24 25  1  0
 24 26  1  0
 26 27  1  0
 16 28  1  0
 28 29  2  0
  6  2  1  0
 14  8  1  0
 27 17  2  0
 28  5  1  0
 26 21  1  0
  1 30  1  0
  1 31  1  0
  1 32  1  0
  4 33  1  0
  7 34  1  0
  9 35  1  0
 10 36  1  0
 13 37  1  0
 18 38  1  0
 20 39  1  0
 20 40  1  0
 20 41  1  0
 25 42  1  0
 25 43  1  0
 25 44  1  0
 27 45  1  0
M  END
$$$$
