@<TRIPOS>MOLECULE
*****
 63 65 0 0 0
SMALL
GASTEIGER

@<TRIPOS>ATOM
      1 C          -5.0919    1.0267    1.9481 C.3     1  UNL1       -0.0133
      2 S          -4.6327    0.8265    0.2070 S.3     1  UNL1       -0.1250
      3 C          -5.1618   -0.7139   -0.4660 C.ar    1  UNL1        0.0493
      4 C          -6.4277   -0.7608   -1.0482 C.ar    1  UNL1       -0.0448
      5 C          -6.8941   -1.9405   -1.5723 C.ar    1  UNL1       -0.0605
      6 C          -6.1061   -3.0802   -1.5212 C.ar    1  UNL1       -0.0582
      7 C          -4.8628   -3.0074   -0.9427 C.ar    1  UNL1       -0.0188
      8 C          -4.3440   -1.8163   -0.3924 C.ar    1  UNL1        0.1349
      9 O          -3.1614   -1.8401    0.1300 O.3     1  UNL1       -0.4801
     10 C          -2.0621   -1.4517    0.7083 C.3     1  UNL1        0.1554
     11 C          -2.2378   -0.8092    2.0995 C.3     1  UNL1       -0.0203
     12 C          -1.2601   -2.7628    1.0548 C.3     1  UNL1       -0.0203
     13 C          -1.0306   -0.6223   -0.0125 C.3     1  UNL1        0.1991
     14 O          -1.4404    0.5907   -0.4772 O.3     1  UNL1       -0.3473
     15 C          -0.4428    1.0709   -1.3209 C.3     1  UNL1        0.0566
     16 C           0.8058    1.2666   -0.5197 C.3     1  UNL1        0.0165
     17 C           1.9492    1.7895   -1.3901 C.3     1  UNL1       -0.0271
     18 C           2.2888    0.8958   -2.4798 C.2     1  UNL1       -0.0875
     19 C           3.4763    0.3775   -2.6139 C.2     1  UNL1       -0.0874
     20 C           4.5625    0.6369   -1.7031 C.3     1  UNL1       -0.0247
     21 C           5.7497    1.2855   -2.4474 C.3     1  UNL1        0.0482
     22 C           6.8298    1.5255   -1.4553 C.2     1  UNL1        0.3050
     23 O           6.7217    1.2262   -0.2558 O.2     1  UNL1       -0.2510
     24 O           8.0222    2.1131   -1.8811 O.3     1  UNL1       -0.4806
     25 C           1.1657    0.0957    0.3177 C.3     1  UNL1        0.0933
     26 C           1.9665    0.6050    1.4906 C.ar    1  UNL1       -0.0003
     27 C           1.3192    1.3755    2.4362 C.ar    1  UNL1       -0.0532
     28 C           2.0371    1.8416    3.5148 C.ar    1  UNL1       -0.0433
     29 C           3.3782    1.5665    3.6839 C.ar    1  UNL1        0.0276
     30 N           3.9430    0.8114    2.7258 N.ar    1  UNL1       -0.2629
     31 C           3.2941    0.3357    1.6633 C.ar    1  UNL1        0.0332
     32 O           0.0129   -0.4317    0.8902 O.3     1  UNL1       -0.3393
     33 H          -5.9545    1.7310    2.0780 H       1  UNL1        0.0344
     34 H          -5.3465    0.0274    2.3770 H       1  UNL1        0.0344
     35 H          -4.2348    1.4857    2.4830 H       1  UNL1        0.0344
     36 H          -7.0722    0.1048   -1.1076 H       1  UNL1        0.0630
     37 H          -7.8706   -2.0067   -2.0299 H       1  UNL1        0.0618
     38 H          -6.5062   -3.9919   -1.9437 H       1  UNL1        0.0619
     39 H          -4.2602   -3.8964   -0.9081 H       1  UNL1        0.0654
     40 H          -1.3472   -1.0418    2.6851 H       1  UNL1        0.0270
     41 H          -2.2322    0.2985    1.8978 H       1  UNL1        0.0270
     42 H          -3.1900   -1.1474    2.5132 H       1  UNL1        0.0270
     43 H          -0.3248   -2.4775    1.5332 H       1  UNL1        0.0270
     44 H          -1.1453   -3.2896    0.0854 H       1  UNL1        0.0270
     45 H          -1.9479   -3.3575    1.6785 H       1  UNL1        0.0270
     46 H          -0.7105   -1.2295   -0.8898 H       1  UNL1        0.0951
     47 H          -0.2671    0.3618   -2.1766 H       1  UNL1        0.0564
     48 H          -0.7577    2.0580   -1.7534 H       1  UNL1        0.0564
     49 H           0.5892    2.1243    0.1848 H       1  UNL1        0.0354
     50 H           2.7314    2.2208   -0.7864 H       1  UNL1        0.0312
     51 H           1.4661    2.6965   -1.8899 H       1  UNL1        0.0312
     52 H           1.4651    0.6787   -3.2013 H       1  UNL1        0.0569
     53 H           3.6920   -0.3036   -3.4648 H       1  UNL1        0.0569
     54 H           4.4221    1.2399   -0.8268 H       1  UNL1        0.0312
     55 H           4.9943   -0.3718   -1.4014 H       1  UNL1        0.0312
     56 H           5.4440    2.2831   -2.8343 H       1  UNL1        0.0380
     57 H           6.0802    0.6459   -3.2873 H       1  UNL1        0.0380
     58 H           8.5932    2.6832   -1.2515 H       1  UNL1        0.2951
     59 H           1.7912   -0.6643   -0.1868 H       1  UNL1        0.0651
     60 H           0.2482    1.6092    2.3234 H       1  UNL1        0.0622
     61 H           1.5250    2.4418    4.2476 H       1  UNL1        0.0633
     62 H           3.9460    1.9370    4.5402 H       1  UNL1        0.0829
     63 H           3.8131   -0.2608    0.9419 H       1  UNL1        0.0833
@<TRIPOS>BOND
     1     1     2    1
     2     2     3    1
     3     3     4   ar
     4     4     5   ar
     5     5     6   ar
     6     6     7   ar
     7     7     8   ar
     8     8     9    1
     9     9    10    1
    10    10    11    1
    11    10    12    1
    12    10    13    1
    13    13    14    1
    14    14    15    1
    15    15    16    1
    16    16    17    1
    17    17    18    1
    18    18    19    2
    19    19    20    1
    20    20    21    1
    21    21    22    1
    22    22    23    2
    23    22    24    1
    24    16    25    1
    25    25    26    1
    26    26    27   ar
    27    27    28   ar
    28    28    29   ar
    29    29    30   ar
    30    30    31   ar
    31    25    32    1
    32     8     3   ar
    33    32    13    1
    34    31    26   ar
    35     1    33    1
    36     1    34    1
    37     1    35    1
    38     4    36    1
    39     5    37    1
    40     6    38    1
    41     7    39    1
    42    11    40    1
    43    11    41    1
    44    11    42    1
    45    12    43    1
    46    12    44    1
    47    12    45    1
    48    13    46    1
    49    15    47    1
    50    15    48    1
    51    16    49    1
    52    17    50    1
    53    17    51    1
    54    18    52    1
    55    19    53    1
    56    20    54    1
    57    20    55    1
    58    21    56    1
    59    21    57    1
    60    24    58    1
    61    25    59    1
    62    27    60    1
    63    28    61    1
    64    29    62    1
    65    31    63    1
