
     RDKit          3D

 63 65  0  0  0  0  0  0  0  0999 V2000
   -5.0919    1.0267    1.9481 C   0  0  0  0  0  0  0  0  0  0  0  0
   -4.6327    0.8265    0.2070 S   0  0  0  0  0  0  0  0  0  0  0  0
   -5.1618   -0.7139   -0.4660 C   0  0  0  0  0  0  0  0  0  0  0  0
   -6.4277   -0.7608   -1.0482 C   0  0  0  0  0  0  0  0  0  0  0  0
   -6.8941   -1.9405   -1.5723 C   0  0  0  0  0  0  0  0  0  0  0  0
   -6.1061   -3.0802   -1.5212 C   0  0  0  0  0  0  0  0  0  0  0  0
   -4.8628   -3.0074   -0.9427 C   0  0  0  0  0  0  0  0  0  0  0  0
   -4.3440   -1.8163   -0.3924 C   0  0  0  0  0  0  0  0  0  0  0  0
   -3.1614   -1.8401    0.1300 O   0  0  0  0  0  0  0  0  0  0  0  0
   -2.0621   -1.4517    0.7083 C   0  0  0  0  0  0  0  0  0  0  0  0
   -2.2378   -0.8092    2.0995 C   0  0  0  0  0  0  0  0  0  0  0  0
   -1.2601   -2.7628    1.0548 C   0  0  0  0  0  0  0  0  0  0  0  0
   -1.0306   -0.6223   -0.0125 C   0  0  0  0  0  0  0  0  0  0  0  0
   -1.4404    0.5907   -0.4772 O   0  0  0  0  0  0  0  0  0  0  0  0
   -0.4428    1.0709   -1.3209 C   0  0  0  0  0  0  0  0  0  0  0  0
    0.8058    1.2666   -0.5197 C   0  0  0  0  0  0  0  0  0  0  0  0
    1.9492    1.7895   -1.3901 C   0  0  0  0  0  0  0  0  0  0  0  0
    2.2888    0.8958   -2.4798 C   0  0  0  0  0  0  0  0  0  0  0  0
    3.4763    0.3775   -2.6139 C   0  0  0  0  0  0  0  0  0  0  0  0
    4.5625    0.6369   -1.7031 C   0  0  0  0  0  0  0  0  0  0  0  0
    5.7497    1.2855   -2.4474 C   0  0  0  0  0  0  0  0  0  0  0  0
    6.8298    1.5255   -1.4553 C   0  0  0  0  0  0  0  0  0  0  0  0
    6.7217    1.2262   -0.2558 O   0  0  0  0  0  0  0  0  0  0  0  0
    8.0222    2.1131   -1.8811 O   0  0  0  0  0  0  0  0  0  0  0  0
    1.1657    0.0957    0.3177 C   0  0  0  0  0  0  0  0  0  0  0  0
    1.9665    0.6050    1.4906 C   0  0  0  0  0  0  0  0  0  0  0  0
    1.3192    1.3755    2.4362 C   0  0  0  0  0  0  0  0  0  0  0  0
    2.0371    1.8416    3.5148 C   0  0  0  0  0  0  0  0  0  0  0  0
    3.3782    1.5665    3.6839 C   0  0  0  0  0  0  0  0  0  0  0  0
    3.9430    0.8114    2.7258 N   0  0  0  0  0  0  0  0  0  0  0  0
    3.2941    0.3357    1.6633 C   0  0  0  0  0  0  0  0  0  0  0  0
    0.0129   -0.4317    0.8902 O   0  0  0  0  0  0  0  0  0  0  0  0
   -5.9545    1.7310    2.0780 H   0  0  0  0  0  0  0  0  0  0  0  0
   -5.3465    0.0274    2.3770 H   0  0  0  0  0  0  0  0  0  0  0  0
   -4.2348    1.4857    2.4830 H   0  0  0  0  0  0  0  0  0  0  0  0
   -7.0722    0.1048   -1.1076 H   0  0  0  0  0  0  0  0  0  0  0  0
   -7.8706   -2.0067   -2.0299 H   0  0  0  0  0  0  0  0  0  0  0  0
   -6.5062   -3.9919   -1.9437 H   0  0  0  0  0  0  0  0  0  0  0  0
   -4.2602   -3.8964   -0.9081 H   0  0  0  0  0  0  0  0  0  0  0  0
   -1.3472   -1.0418    2.6851 H   0  0  0  0  0  0  0  0  0  0  0  0
   -2.2322    0.2985    1.8978 H   0  0  0  0  0  0  0  0  0  0  0  0
   -3.1900   -1.1474    2.5132 H   0  0  0  0  0  0  0  0  0  0  0  0
   -0.3248   -2.4775    1.5332 H   0  0  0  0  0  0  0  0  0  0  0  0
   -1.1453   -3.2896    0.0854 H   0  0  0  0  0  0  0  0  0  0  0  0
   -1.9479   -3.3575    1.6785 H   0  0  0  0  0  0  0  0  0  0  0  0
   -0.7105   -1.2295   -0.8898 H   0  0  0  0  0  0  0  0  0  0  0  0
   -0.2671    0.3618   -2.1766 H   0  0  0  0  0  0  0  0  0  0  0  0
   -0.7577    2.0580   -1.7534 H   0  0  0  0  0  0  0  0  0  0  0  0
    0.5892    2.1243    0.1848 H   0  0  0  0  0  0  0  0  0  0  0  0
    2.7314    2.2208   -0.7864 H   0  0  0  0  0  0  0  0  0  0  0  0
    1.4661    2.6965   -1.8899 H   0  0  0  0  0  0  0  0  0  0  0  0
    1.4651    0.6787   -3.2013 H   0  0  0  0  0  0  0  0  0  0  0  0
    3.6920   -0.3036   -3.4648 H   0  0  0  0  0  0  0  0  0  0  0  0
    4.4221    1.2399   -0.8268 H   0  0  0  0  0  0  0  0  0  0  0  0
    4.9943   -0.3718   -1.4014 H   0  0  0  0  0  0  0  0  0  0  0  0
    5.4440    2.2831   -2.8343 H   0  0  0  0  0  0  0  0  0  0  0  0
    6.0802    0.6459   -3.2873 H   0  0  0  0  0  0  0  0  0  0  0  0
    8.5932    2.6832   -1.2515 H   0  0  0  0  0  0  0  0  0  0  0  0
    1.7912   -0.6643   -0.1868 H   0  0  0  0  0  0  0  0  0  0  0  0
    0.2482    1.6092    2.3234 H   0  0  0  0  0  0  0  0  0  0  0  0
    1.5250    2.4418    4.2476 H   0  0  0  0  0  0  0  0  0  0  0  0
    3.9460    1.9370    4.5402 H   0  0  0  0  0  0  0  0  0  0  0  0
    3.8131   -0.2608    0.9419 H   0  0  0  0  0  0  0  0  0  0  0  0
  1  2  1  0
  2  3  1  0
  3  4  2  0
  4  5  1  0
  5  6  2  0
  6  7  1  0
  7  8  2  0
  8  9  1  0
  9 10  1  0
 10 11  1  0
 10 12  1  0
 10 13  1  0
 13 14  1  0
 14 15  1  0
 15 16  1  0
 16 17  1  0
 17 18  1  0
 18 19  2  0
 19 20  1  0
 20 21  1  0
 21 22  1  0
 22 23  2  0
 22 24  1  0
 16 25  1  0
 25 26  1  0
 26 27  2  0
 27 28  1  0
 28 29  2  0
 29 30  1  0
 30 31  2  0
 25 32  1  0
  8  3  1  0
 32 13  1  0
 31 26  1  0
  1 33  1  0
  1 34  1  0
  1 35  1  0
  4 36  1  0
  5 37  1  0
  6 38  1  0
  7 39  1  0
 11 40  1  0
 11 41  1  0
 11 42  1  0
 12 43  1  0
 12 44  1  0
 12 45  1  0
 13 46  1  0
 15 47  1  0
 15 48  1  0
 16 49  1  0
 17 50  1  0
 17 51  1  0
 18 52  1  0
 19 53  1  0
 20 54  1  0
 20 55  1  0
 21 56  1  0
 21 57  1  0
 24 58  1  0
 25 59  1  0
 27 60  1  0
 28 61  1  0
 29 62  1  0
 31 63  1  0
M  END
$$$$
