
     RDKit          3D

 36 38  0  0  0  0  0  0  0  0999 V2000
    3.1567   -1.7263    0.3272 C   0  0  0  0  0  0  0  0  0  0  0  0
    1.7865   -1.0650    0.5785 C   0  0  1  0  0  0  0  0  0  0  0  0
    2.0100    0.4025    0.4948 C   0  0  0  0  0  0  0  0  0  0  0  0
    0.7840    1.2262    0.1568 C   0  0  1  0  0  0  0  0  0  0  0  0
    1.3120    2.3717   -0.7261 C   0  0  0  0  0  0  0  0  0  0  0  0
   -0.1713    3.4350   -0.9708 S   0  0  0  0  0  0  0  0  0  0  0  0
   -1.3174    2.2730   -1.6957 C   0  0  0  0  0  0  0  0  0  0  0  0
   -2.2948    2.8039   -2.5795 N   0  0  0  0  0  0  0  0  0  0  0  0
   -1.1825    1.0765   -1.3776 N   0  0  0  0  0  0  0  0  0  0  0  0
   -0.2722    0.4197   -0.5253 C   0  0  2  0  0  0  0  0  0  0  0  0
   -1.1024   -0.3866    0.4061 C   0  0  0  0  0  0  0  0  0  0  0  0
   -1.1014   -0.2655    1.7700 C   0  0  0  0  0  0  0  0  0  0  0  0
   -1.8984   -1.0546    2.5956 C   0  0  0  0  0  0  0  0  0  0  0  0
   -2.7232   -1.9961    2.0334 C   0  0  0  0  0  0  0  0  0  0  0  0
   -3.4997   -2.7645    2.8478 F   0  0  0  0  0  0  0  0  0  0  0  0
   -2.7280   -2.1203    0.6765 C   0  0  0  0  0  0  0  0  0  0  0  0
   -1.9282   -1.3283   -0.1555 C   0  0  0  0  0  0  0  0  0  0  0  0
   -2.0570   -1.5622   -1.4921 F   0  0  0  0  0  0  0  0  0  0  0  0
    0.5543   -0.6128   -1.3219 C   0  0  0  0  0  0  0  0  0  0  0  0
    0.9341   -1.5537   -0.3763 O   0  0  0  0  0  0  0  0  0  0  0  0
    2.9877   -2.8056    0.1818 H   0  0  0  0  0  0  0  0  0  0  0  0
    3.8139   -1.5957    1.1963 H   0  0  0  0  0  0  0  0  0  0  0  0
    3.5992   -1.2645   -0.5751 H   0  0  0  0  0  0  0  0  0  0  0  0
    1.5422   -1.3595    1.6223 H   0  0  0  0  0  0  0  0  0  0  0  0
    2.4396    0.7662    1.4805 H   0  0  0  0  0  0  0  0  0  0  0  0
    2.8403    0.6476   -0.2265 H   0  0  0  0  0  0  0  0  0  0  0  0
    0.4780    1.7299    1.0737 H   0  0  0  0  0  0  0  0  0  0  0  0
    2.1090    2.8950   -0.2112 H   0  0  0  0  0  0  0  0  0  0  0  0
    1.5739    1.9480   -1.7129 H   0  0  0  0  0  0  0  0  0  0  0  0
   -2.1561    2.9133   -3.6019 H   0  0  0  0  0  0  0  0  0  0  0  0
   -3.2048    3.0972   -2.1535 H   0  0  0  0  0  0  0  0  0  0  0  0
   -0.4820    0.4454    2.2562 H   0  0  0  0  0  0  0  0  0  0  0  0
   -1.8661   -0.9247    3.6754 H   0  0  0  0  0  0  0  0  0  0  0  0
   -3.3747   -2.8595    0.2247 H   0  0  0  0  0  0  0  0  0  0  0  0
    1.4334   -0.1047   -1.7819 H   0  0  0  0  0  0  0  0  0  0  0  0
    0.0055   -1.1012   -2.1142 H   0  0  0  0  0  0  0  0  0  0  0  0
  1  2  1  0
  2  3  1  0
  3  4  1  0
  4  5  1  0
  5  6  1  0
  6  7  1  0
  7  8  1  0
  7  9  2  0
  9 10  1  0
 10 11  1  1
 11 12  2  0
 12 13  1  0
 13 14  2  0
 14 15  1  0
 14 16  1  0
 16 17  2  0
 17 18  1  0
 10 19  1  0
 19 20  1  0
 20  2  1  0
 10  4  1  0
 17 11  1  0
  1 21  1  0
  1 22  1  0
  1 23  1  0
  2 24  1  1
  3 25  1  0
  3 26  1  0
  4 27  1  1
  5 28  1  0
  5 29  1  0
  8 30  1  0
  8 31  1  0
 12 32  1  0
 13 33  1  0
 16 34  1  0
 19 35  1  0
 19 36  1  0
M  END
$$$$
