@<TRIPOS>MOLECULE
*****
 36 38 0 0 0
SMALL
GASTEIGER

@<TRIPOS>ATOM
      1 C           3.1567   -1.7263    0.3272 C.3     1  UNL1       -0.0387
      2 C           1.7865   -1.0650    0.5785 C.3     1  UNL1        0.0564
      3 C           2.0100    0.4025    0.4948 C.3     1  UNL1       -0.0207
      4 C           0.7840    1.2262    0.1568 C.3     1  UNL1        0.0024
      5 C           1.3120    2.3717   -0.7261 C.3     1  UNL1        0.0064
      6 S          -0.1713    3.4350   -0.9708 S.3     1  UNL1       -0.0907
      7 C          -1.3174    2.2730   -1.6957 C.2     1  UNL1        0.1476
      8 N          -2.2948    2.8039   -2.5795 N.pl3   1  UNL1       -0.3380
      9 N          -1.1825    1.0765   -1.3776 N.2     1  UNL1       -0.2495
     10 C          -0.2722    0.4197   -0.5253 C.3     1  UNL1        0.1185
     11 C          -1.1024   -0.3866    0.4061 C.ar    1  UNL1        0.0178
     12 C          -1.1014   -0.2655    1.7700 C.ar    1  UNL1       -0.0507
     13 C          -1.8984   -1.0546    2.5956 C.ar    1  UNL1       -0.0259
     14 C          -2.7232   -1.9961    2.0334 C.ar    1  UNL1        0.1261
     15 F          -3.4997   -2.7645    2.8478 F       1  UNL1       -0.2054
     16 C          -2.7280   -2.1203    0.6765 C.ar    1  UNL1        0.0091
     17 C          -1.9282   -1.3283   -0.1555 C.ar    1  UNL1        0.1317
     18 F          -2.0570   -1.5622   -1.4921 F       1  UNL1       -0.2050
     19 C           0.5543   -0.6128   -1.3219 C.3     1  UNL1        0.0777
     20 O           0.9341   -1.5537   -0.3763 O.3     1  UNL1       -0.3741
     21 H           2.9877   -2.8056    0.1818 H       1  UNL1        0.0254
     22 H           3.8139   -1.5957    1.1963 H       1  UNL1        0.0254
     23 H           3.5992   -1.2645   -0.5751 H       1  UNL1        0.0254
     24 H           1.5422   -1.3595    1.6223 H       1  UNL1        0.0593
     25 H           2.4396    0.7662    1.4805 H       1  UNL1        0.0294
     26 H           2.8403    0.6476   -0.2265 H       1  UNL1        0.0294
     27 H           0.4780    1.7299    1.0737 H       1  UNL1        0.0337
     28 H           2.1090    2.8950   -0.2112 H       1  UNL1        0.0384
     29 H           1.5739    1.9480   -1.7129 H       1  UNL1        0.0384
     30 H          -2.1561    2.9133   -3.6019 H       1  UNL1        0.1442
     31 H          -3.2048    3.0972   -2.1535 H       1  UNL1        0.1442
     32 H          -0.4820    0.4454    2.2562 H       1  UNL1        0.0623
     33 H          -1.8661   -0.9247    3.6754 H       1  UNL1        0.0646
     34 H          -3.3747   -2.8595    0.2247 H       1  UNL1        0.0675
     35 H           1.4334   -0.1047   -1.7819 H       1  UNL1        0.0587
     36 H           0.0055   -1.1012   -2.1142 H       1  UNL1        0.0587
@<TRIPOS>BOND
     1     1     2    1
     2     2     3    1
     3     3     4    1
     4     4     5    1
     5     5     6    1
     6     6     7    1
     7     7     8    1
     8     7     9    2
     9     9    10    1
    10    10    11    1
    11    11    12   ar
    12    12    13   ar
    13    13    14   ar
    14    14    15    1
    15    14    16   ar
    16    16    17   ar
    17    17    18    1
    18    10    19    1
    19    19    20    1
    20    20     2    1
    21    10     4    1
    22    17    11   ar
    23     1    21    1
    24     1    22    1
    25     1    23    1
    26     2    24    1
    27     3    25    1
    28     3    26    1
    29     4    27    1
    30     5    28    1
    31     5    29    1
    32     8    30    1
    33     8    31    1
    34    12    32    1
    35    13    33    1
    36    16    34    1
    37    19    35    1
    38    19    36    1
