
     RDKit          3D

 60 63  0  0  0  0  0  0  0  0999 V2000
    6.2993    3.2256    1.7611 C   0  0  0  0  0  0  0  0  0  0  0  0
    7.0520    2.1133    1.3079 O   0  0  0  0  0  0  0  0  0  0  0  0
    6.3873    1.0571    0.7109 C   0  0  0  0  0  0  0  0  0  0  0  0
    5.0132    1.0679    0.5501 C   0  0  0  0  0  0  0  0  0  0  0  0
    4.3869   -0.0098   -0.0528 C   0  0  0  0  0  0  0  0  0  0  0  0
    3.0067    0.0374   -0.1965 C   0  0  0  0  0  0  0  0  0  0  0  0
    2.3630   -1.0279   -0.7955 C   0  0  0  0  0  0  0  0  0  0  0  0
    0.9087   -1.0491   -0.9816 C   0  0  0  0  0  0  0  0  0  0  0  0
    0.2386    0.0573   -1.4572 C   0  0  0  0  0  0  0  0  0  0  0  0
   -1.1322    0.0354   -1.6320 C   0  0  0  0  0  0  0  0  0  0  0  0
   -1.8892   -1.0833   -1.3421 C   0  0  0  0  0  0  0  0  0  0  0  0
   -3.3532   -1.1315   -1.5202 C   0  0  0  0  0  0  0  0  0  0  0  0
   -4.0825   -0.7142   -0.3391 N   0  0  0  0  0  4  0  0  0  0  0  0
   -3.5279    0.4929    0.2348 C   0  0  0  0  0  0  0  0  0  0  0  0
   -3.8728   -1.7686    0.6646 C   0  0  0  0  0  0  0  0  0  0  0  0
   -5.4710   -0.6273   -0.6466 C   0  0  0  0  0  0  0  0  0  0  0  0
   -6.1472    0.5522   -0.0812 C   0  0  0  0  0  0  0  0  0  0  0  0
   -6.2251    1.7319   -0.7690 C   0  0  0  0  0  0  0  0  0  0  0  0
   -6.8682    2.7998   -0.1923 C   0  0  0  0  0  0  0  0  0  0  0  0
   -7.4388    2.7198    1.0607 C   0  0  0  0  0  0  0  0  0  0  0  0
   -7.3572    1.5343    1.7452 C   0  0  0  0  0  0  0  0  0  0  0  0
   -6.7116    0.4631    1.1656 C   0  0  0  0  0  0  0  0  0  0  0  0
   -1.2080   -2.1915   -0.8644 C   0  0  0  0  0  0  0  0  0  0  0  0
    0.1671   -2.1736   -0.6876 C   0  0  0  0  0  0  0  0  0  0  0  0
    3.1627   -2.0752   -1.2111 C   0  0  0  0  0  0  0  0  0  0  0  0
    2.6046   -3.0542   -1.7575 O   0  0  0  0  0  0  0  0  0  0  0  0
    4.4658   -2.0844   -1.0581 O   0  0  0  0  0  0  0  0  0  0  0  0
    5.1070   -1.0939   -0.4961 C   0  0  0  0  0  0  0  0  0  0  0  0
    6.4743   -1.0831   -0.3256 C   0  0  0  0  0  0  0  0  0  0  0  0
    7.1267   -0.0195    0.2736 C   0  0  0  0  0  0  0  0  0  0  0  0
    8.5024    0.0030    0.4509 O   0  0  0  0  0  0  0  0  0  0  0  0
    9.2413   -1.1149   -0.0067 C   0  0  0  0  0  0  0  0  0  0  0  0
    5.6317    3.5608    0.9403 H   0  0  0  0  0  0  0  0  0  0  0  0
    5.6412    2.8513    2.5706 H   0  0  0  0  0  0  0  0  0  0  0  0
    6.9223    4.0721    2.0532 H   0  0  0  0  0  0  0  0  0  0  0  0
    4.4339    1.9041    0.8892 H   0  0  0  0  0  0  0  0  0  0  0  0
    2.4294    0.8829    0.1473 H   0  0  0  0  0  0  0  0  0  0  0  0
    0.8076    0.9562   -1.6954 H   0  0  0  0  0  0  0  0  0  0  0  0
   -1.6781    0.9057   -2.0086 H   0  0  0  0  0  0  0  0  0  0  0  0
   -3.6667   -0.5173   -2.4150 H   0  0  0  0  0  0  0  0  0  0  0  0
   -3.7094   -2.1654   -1.7565 H   0  0  0  0  0  0  0  0  0  0  0  0
   -3.9772    0.6966    1.2111 H   0  0  0  0  0  0  0  0  0  0  0  0
   -3.5255    1.3428   -0.4444 H   0  0  0  0  0  0  0  0  0  0  0  0
   -2.4427    0.2569    0.4434 H   0  0  0  0  0  0  0  0  0  0  0  0
   -2.8798   -1.6024    1.1188 H   0  0  0  0  0  0  0  0  0  0  0  0
   -4.6222   -1.6891    1.4821 H   0  0  0  0  0  0  0  0  0  0  0  0
   -3.9901   -2.7163    0.1417 H   0  0  0  0  0  0  0  0  0  0  0  0
   -5.6104   -0.5641   -1.7658 H   0  0  0  0  0  0  0  0  0  0  0  0
   -6.0020   -1.5853   -0.3712 H   0  0  0  0  0  0  0  0  0  0  0  0
   -5.8024    1.8765   -1.7590 H   0  0  0  0  0  0  0  0  0  0  0  0
   -6.9465    3.7522   -0.7156 H   0  0  0  0  0  0  0  0  0  0  0  0
   -7.9461    3.5915    1.4944 H   0  0  0  0  0  0  0  0  0  0  0  0
   -7.7962    1.4469    2.7278 H   0  0  0  0  0  0  0  0  0  0  0  0
   -6.6727   -0.4691    1.7567 H   0  0  0  0  0  0  0  0  0  0  0  0
   -1.7464   -3.1061   -0.6167 H   0  0  0  0  0  0  0  0  0  0  0  0
    0.7176   -3.0312   -0.3149 H   0  0  0  0  0  0  0  0  0  0  0  0
    7.0199   -1.9346   -0.6762 H   0  0  0  0  0  0  0  0  0  0  0  0
   10.3225   -1.0064    0.1675 H   0  0  0  0  0  0  0  0  0  0  0  0
    8.8811   -2.0531    0.4925 H   0  0  0  0  0  0  0  0  0  0  0  0
    8.9845   -1.2452   -1.0820 H   0  0  0  0  0  0  0  0  0  0  0  0
  1  2  1  0
  2  3  1  0
  3  4  2  0
  4  5  1  0
  5  6  1  0
  6  7  2  0
  7  8  1  0
  8  9  2  0
  9 10  1  0
 10 11  2  0
 11 12  1  0
 12 13  1  0
 13 14  1  0
 13 15  1  0
 13 16  1  0
 16 17  1  0
 17 18  2  0
 18 19  1  0
 19 20  2  0
 20 21  1  0
 21 22  2  0
 11 23  1  0
 23 24  2  0
  7 25  1  0
 25 26  2  0
 25 27  1  0
 27 28  1  0
 28 29  1  0
 29 30  2  0
 30 31  1  0
 31 32  1  0
 30  3  1  0
 28  5  2  0
 24  8  1  0
 22 17  1  0
  1 33  1  0
  1 34  1  0
  1 35  1  0
  4 36  1  0
  6 37  1  0
  9 38  1  0
 10 39  1  0
 12 40  1  0
 12 41  1  0
 14 42  1  0
 14 43  1  0
 14 44  1  0
 15 45  1  0
 15 46  1  0
 15 47  1  0
 16 48  1  0
 16 49  1  0
 18 50  1  0
 19 51  1  0
 20 52  1  0
 21 53  1  0
 22 54  1  0
 23 55  1  0
 24 56  1  0
 29 57  1  0
 32 58  1  0
 32 59  1  0
 32 60  1  0
M  CHG  1  13   1
M  END
$$$$
