@<TRIPOS>MOLECULE
*****
 60 63 0 0 0
SMALL
GASTEIGER

@<TRIPOS>ATOM
      1 C           6.2993    3.2256    1.7611 C.3     1  UNL1        0.0790
      2 O           7.0520    2.1133    1.3079 O.3     1  UNL1       -0.4914
      3 C           6.3873    1.0571    0.7109 C.ar    1  UNL1        0.1623
      4 C           5.0132    1.0679    0.5501 C.ar    1  UNL1       -0.0056
      5 C           4.3869   -0.0098   -0.0528 C.ar    1  UNL1        0.0219
      6 C           3.0067    0.0374   -0.1965 C.ar    1  UNL1       -0.0364
      7 C           2.3630   -1.0279   -0.7955 C.ar    1  UNL1        0.0672
      8 C           0.9087   -1.0491   -0.9816 C.ar    1  UNL1       -0.0110
      9 C           0.2386    0.0573   -1.4572 C.ar    1  UNL1       -0.0534
     10 C          -1.1322    0.0354   -1.6320 C.ar    1  UNL1       -0.0530
     11 C          -1.8892   -1.0833   -1.3421 C.ar    1  UNL1       -0.0028
     12 C          -3.3532   -1.1315   -1.5202 C.3     1  UNL1       -0.0043
     13 N          -4.0825   -0.7142   -0.3391 N.4     1  UNL1        0.2455
     14 C          -3.5279    0.4929    0.2348 C.3     1  UNL1       -0.0409
     15 C          -3.8728   -1.7686    0.6646 C.3     1  UNL1       -0.0409
     16 C          -5.4710   -0.6273   -0.6466 C.3     1  UNL1       -0.0043
     17 C          -6.1472    0.5522   -0.0812 C.ar    1  UNL1       -0.0028
     18 C          -6.2251    1.7319   -0.7690 C.ar    1  UNL1       -0.0535
     19 C          -6.8682    2.7998   -0.1923 C.ar    1  UNL1       -0.0613
     20 C          -7.4388    2.7198    1.0607 C.ar    1  UNL1       -0.0617
     21 C          -7.3572    1.5343    1.7452 C.ar    1  UNL1       -0.0613
     22 C          -6.7116    0.4631    1.1656 C.ar    1  UNL1       -0.0535
     23 C          -1.2080   -2.1915   -0.8644 C.ar    1  UNL1       -0.0530
     24 C           0.1671   -2.1736   -0.6876 C.ar    1  UNL1       -0.0534
     25 C           3.1627   -2.0752   -1.2111 C.ar    1  UNL1        0.3451
     26 O           2.6046   -3.0542   -1.7575 O.2     1  UNL1       -0.2445
     27 O           4.4658   -2.0844   -1.0581 O.2     1  UNL1       -0.4216
     28 C           5.1070   -1.0939   -0.4961 C.ar    1  UNL1        0.1428
     29 C           6.4743   -1.0831   -0.3256 C.ar    1  UNL1        0.0267
     30 C           7.1267   -0.0195    0.2736 C.ar    1  UNL1        0.1650
     31 O           8.5024    0.0030    0.4509 O.3     1  UNL1       -0.4913
     32 C           9.2413   -1.1149   -0.0067 C.3     1  UNL1        0.0790
     33 H           5.6317    3.5608    0.9403 H       1  UNL1        0.0660
     34 H           5.6412    2.8513    2.5706 H       1  UNL1        0.0660
     35 H           6.9223    4.0721    2.0532 H       1  UNL1        0.0660
     36 H           4.4339    1.9041    0.8892 H       1  UNL1        0.0662
     37 H           2.4294    0.8829    0.1473 H       1  UNL1        0.0633
     38 H           0.8076    0.9562   -1.6954 H       1  UNL1        0.0624
     39 H          -1.6781    0.9057   -2.0086 H       1  UNL1        0.0622
     40 H          -3.6667   -0.5173   -2.4150 H       1  UNL1        0.0868
     41 H          -3.7094   -2.1654   -1.7565 H       1  UNL1        0.0868
     42 H          -3.9772    0.6966    1.2111 H       1  UNL1        0.0778
     43 H          -3.5255    1.3428   -0.4444 H       1  UNL1        0.0778
     44 H          -2.4427    0.2569    0.4434 H       1  UNL1        0.0778
     45 H          -2.8798   -1.6024    1.1188 H       1  UNL1        0.0778
     46 H          -4.6222   -1.6891    1.4821 H       1  UNL1        0.0778
     47 H          -3.9901   -2.7163    0.1417 H       1  UNL1        0.0778
     48 H          -5.6104   -0.5641   -1.7658 H       1  UNL1        0.0868
     49 H          -6.0020   -1.5853   -0.3712 H       1  UNL1        0.0868
     50 H          -5.8024    1.8765   -1.7590 H       1  UNL1        0.0622
     51 H          -6.9465    3.7522   -0.7156 H       1  UNL1        0.0618
     52 H          -7.9461    3.5915    1.4944 H       1  UNL1        0.0618
     53 H          -7.7962    1.4469    2.7278 H       1  UNL1        0.0618
     54 H          -6.6727   -0.4691    1.7567 H       1  UNL1        0.0622
     55 H          -1.7464   -3.1061   -0.6167 H       1  UNL1        0.0622
     56 H           0.7176   -3.0312   -0.3149 H       1  UNL1        0.0624
     57 H           7.0199   -1.9346   -0.6762 H       1  UNL1        0.0692
     58 H          10.3225   -1.0064    0.1675 H       1  UNL1        0.0660
     59 H           8.8811   -2.0531    0.4925 H       1  UNL1        0.0660
     60 H           8.9845   -1.2452   -1.0820 H       1  UNL1        0.0660
@<TRIPOS>UNITY_ATOM_ATTR
13 1
charge 1
@<TRIPOS>BOND
     1     1     2    1
     2     2     3    1
     3     3     4   ar
     4     4     5   ar
     5     5     6   ar
     6     6     7   ar
     7     7     8    1
     8     8     9   ar
     9     9    10   ar
    10    10    11   ar
    11    11    12    1
    12    12    13    1
    13    13    14    1
    14    13    15    1
    15    13    16    1
    16    16    17    1
    17    17    18   ar
    18    18    19   ar
    19    19    20   ar
    20    20    21   ar
    21    21    22   ar
    22    11    23   ar
    23    23    24   ar
    24     7    25   ar
    25    25    26    2
    26    25    27   ar
    27    27    28   ar
    28    28    29   ar
    29    29    30   ar
    30    30    31    1
    31    31    32    1
    32    30     3   ar
    33    28     5   ar
    34    24     8   ar
    35    22    17   ar
    36     1    33    1
    37     1    34    1
    38     1    35    1
    39     4    36    1
    40     6    37    1
    41     9    38    1
    42    10    39    1
    43    12    40    1
    44    12    41    1
    45    14    42    1
    46    14    43    1
    47    14    44    1
    48    15    45    1
    49    15    46    1
    50    15    47    1
    51    16    48    1
    52    16    49    1
    53    18    50    1
    54    19    51    1
    55    20    52    1
    56    21    53    1
    57    22    54    1
    58    23    55    1
    59    24    56    1
    60    29    57    1
    61    32    58    1
    62    32    59    1
    63    32    60    1
