@<TRIPOS>MOLECULE
*****
 51 54 0 0 0
SMALL
GASTEIGER

@<TRIPOS>ATOM
      1 O           5.8667    1.7140    0.6879 O.2     1  UNL1       -0.1498
      2 S           5.5110    1.3123   -0.7352 S.O2    1  UNL1        0.0766
      3 O           5.7152    2.4558   -1.6595 O.2     1  UNL1       -0.1498
      4 N           6.4974   -0.0012   -1.2467 N.pl3   1  UNL1       -0.1937
      5 C           6.5004   -1.2496   -0.5240 C.ar    1  UNL1        0.1774
      6 N           7.0065   -2.3152   -0.5606 N.ar    1  UNL1       -0.2321
      7 C           6.9368   -3.3049    0.2884 C.ar    1  UNL1        0.0369
      8 C           6.1437   -3.0732    1.4065 C.ar    1  UNL1       -0.0030
      9 S           5.5619   -1.3692    1.0885 S.2     1  UNL1       -0.0594
     10 C           3.8390    0.8186   -0.7933 C.ar    1  UNL1        0.1450
     11 C           3.4887   -0.4599   -1.1620 C.ar    1  UNL1       -0.0121
     12 C           2.1799   -0.8794   -1.1240 C.ar    1  UNL1        0.0638
     13 CL          1.7483   -2.5278   -1.5956 Cl      1  UNL1       -0.0816
     14 C           1.2099    0.0110   -0.7059 C.ar    1  UNL1        0.0486
     15 N          -0.1295   -0.4448   -0.5667 N.pl3   1  UNL1       -0.3408
     16 C          -1.2546    0.3851   -0.1595 C.3     1  UNL1        0.0287
     17 C          -2.3753   -0.4606    0.3643 C.3     1  UNL1        0.0487
     18 N          -1.8662   -1.1671    1.5210 N.3     1  UNL1       -0.3078
     19 C          -1.7235   -0.2972    2.6708 C.3     1  UNL1       -0.0001
     20 C          -3.1133    0.0624    3.1279 C.3     1  UNL1       -0.0215
     21 C          -3.9224    0.4618    1.9573 C.2     1  UNL1       -0.0775
     22 C          -3.6221    0.2435    0.7014 C.2     1  UNL1       -0.0257
     23 C          -4.5485    0.6833   -0.3530 C.ar    1  UNL1       -0.0204
     24 C          -4.3335    0.3617   -1.6858 C.ar    1  UNL1       -0.0516
     25 C          -5.1908    0.7668   -2.6926 C.ar    1  UNL1       -0.0259
     26 C          -6.3075    1.5166   -2.3966 C.ar    1  UNL1        0.1234
     27 F          -7.1650    1.9230   -3.3931 F       1  UNL1       -0.2055
     28 C          -6.5311    1.8385   -1.1001 C.ar    1  UNL1       -0.0259
     29 C          -5.6518    1.4233   -0.0725 C.ar    1  UNL1       -0.0516
     30 C           1.5757    1.2825   -0.3508 C.ar    1  UNL1       -0.0022
     31 C           2.8730    1.7093   -0.3854 C.ar    1  UNL1        0.1517
     32 F           3.2460    2.9674   -0.0342 F       1  UNL1       -0.2034
     33 H           7.1251    0.0775   -2.0928 H       1  UNL1        0.1758
     34 H           7.4520   -4.2902    0.1843 H       1  UNL1        0.0835
     35 H           5.8728   -3.6832    2.2921 H       1  UNL1        0.0710
     36 H           4.2592   -1.1528   -1.5097 H       1  UNL1        0.0653
     37 H          -0.2972   -1.4759   -0.7938 H       1  UNL1        0.1462
     38 H          -0.8731    1.1120    0.5702 H       1  UNL1        0.0480
     39 H          -1.6007    0.8951   -1.0969 H       1  UNL1        0.0480
     40 H          -2.6327   -1.2678   -0.3791 H       1  UNL1        0.0526
     41 H          -2.5606   -1.9149    1.8112 H       1  UNL1        0.1226
     42 H          -1.1478   -0.8179    3.4762 H       1  UNL1        0.0427
     43 H          -1.2304    0.6340    2.3792 H       1  UNL1        0.0427
     44 H          -3.0936    0.9223    3.8381 H       1  UNL1        0.0320
     45 H          -3.6316   -0.8181    3.6062 H       1  UNL1        0.0320
     46 H          -4.8588    0.9860    2.2523 H       1  UNL1        0.0576
     47 H          -3.4536   -0.2424   -1.9136 H       1  UNL1        0.0624
     48 H          -4.9891    0.5035   -3.6972 H       1  UNL1        0.0646
     49 H          -7.4098    2.4319   -0.8424 H       1  UNL1        0.0646
     50 H          -5.9101    1.7379    0.9199 H       1  UNL1        0.0624
     51 H           0.8148    1.9763   -0.0320 H       1  UNL1        0.0666
@<TRIPOS>BOND
     1     1     2    2
     2     2     3    2
     3     2     4    1
     4     4     5    1
     5     5     6   ar
     6     6     7   ar
     7     7     8   ar
     8     8     9   ar
     9     2    10    1
    10    10    11   ar
    11    11    12   ar
    12    12    13    1
    13    12    14   ar
    14    14    15    1
    15    15    16    1
    16    16    17    1
    17    17    18    1
    18    18    19    1
    19    19    20    1
    20    20    21    1
    21    21    22    2
    22    22    23    1
    23    23    24   ar
    24    24    25   ar
    25    25    26   ar
    26    26    27    1
    27    26    28   ar
    28    28    29   ar
    29    14    30   ar
    30    30    31   ar
    31    31    32    1
    32     9     5   ar
    33    31    10   ar
    34    22    17    1
    35    29    23   ar
    36     4    33    1
    37     7    34    1
    38     8    35    1
    39    11    36    1
    40    15    37    1
    41    16    38    1
    42    16    39    1
    43    17    40    1
    44    18    41    1
    45    19    42    1
    46    19    43    1
    47    20    44    1
    48    20    45    1
    49    21    46    1
    50    24    47    1
    51    25    48    1
    52    28    49    1
    53    29    50    1
    54    30    51    1
