@<TRIPOS>MOLECULE
*****
 178 179 0 0 0
SMALL
GASTEIGER

@<TRIPOS>ATOM
      1 C         -16.3236   -0.4035   -1.7096 C.3     1  UNL1        0.0817
      2 O         -15.3422    0.2932   -0.9694 O.3     1  UNL1       -0.4666
      3 C         -15.2203    0.2787    0.3970 C.2     1  UNL1        0.3276
      4 O         -16.0859   -0.4285    1.0304 O.2     1  UNL1       -0.2487
      5 C         -14.2299    0.9675    1.2184 C.3     1  UNL1        0.1230
      6 C         -14.8433    1.8949    2.2556 C.3     1  UNL1       -0.0225
      7 C         -14.8223    3.2337    1.5992 C.3     1  UNL1       -0.0349
      8 C         -13.6729    3.1961    0.6348 C.3     1  UNL1        0.0157
      9 N         -13.2801    1.7835    0.5276 N.am    1  UNL1       -0.2865
     10 C         -12.0856    1.4128   -0.1437 C.2     1  UNL1        0.2371
     11 O         -11.3277    2.3564   -0.5864 O.2     1  UNL1       -0.2735
     12 C         -11.6043    0.0544   -0.3933 C.3     1  UNL1        0.1061
     13 C         -11.8778   -0.2872   -1.8964 C.3     1  UNL1       -0.0005
     14 C         -11.4094   -1.6543   -2.1694 C.ar    1  UNL1       -0.0451
     15 C         -10.1336   -1.9570   -2.6137 C.ar    1  UNL1       -0.0585
     16 C          -9.7573   -3.2511   -2.8524 C.ar    1  UNL1       -0.0615
     17 C         -10.6479   -4.2772   -2.6528 C.ar    1  UNL1       -0.0617
     18 C         -11.9443   -4.0238   -2.2065 C.ar    1  UNL1       -0.0615
     19 C         -12.2891   -2.7118   -1.9761 C.ar    1  UNL1       -0.0585
     20 N         -10.1499   -0.0440   -0.1934 N.am    1  UNL1       -0.2911
     21 C          -9.3324    0.9815   -0.7737 C.3     1  UNL1        0.0040
     22 C          -9.6432   -1.1448    0.4950 C.2     1  UNL1        0.2360
     23 O         -10.5195   -2.0749    0.7443 O.2     1  UNL1       -0.2736
     24 C          -8.2900   -1.4041    0.9660 C.3     1  UNL1        0.0968
     25 C          -8.3271   -2.4228    2.1167 C.3     1  UNL1       -0.0381
     26 N          -7.6107   -0.2582    1.4770 N.am    1  UNL1       -0.3027
     27 C          -6.4252    0.3358    1.0088 C.2     1  UNL1        0.2365
     28 O          -5.8866   -0.1779   -0.0297 O.2     1  UNL1       -0.2737
     29 C          -5.7726    1.5247    1.6768 C.3     1  UNL1        0.1252
     30 N          -4.6784    2.0091    0.8896 N.am    1  UNL1       -0.3018
     31 C          -3.5158    1.2334    0.6599 C.2     1  UNL1        0.2162
     32 O          -3.4288    0.0933    1.1302 O.2     1  UNL1       -0.2757
     33 C          -2.4682    1.8652   -0.1552 C.3     1  UNL1        0.0517
     34 C          -1.4776    1.0055   -0.8189 C.3     1  UNL1        0.0817
     35 O          -2.2341    0.1533   -1.6692 O.3     1  UNL1       -0.3895
     36 C          -0.4417    0.2640   -0.0344 C.3     1  UNL1        0.0498
     37 C          -0.0769    0.8886    1.2342 C.3     1  UNL1       -0.0297
     38 C           0.9368    0.3184    2.1329 C.3     1  UNL1       -0.0450
     39 C           2.3298    0.1942    1.6004 C.3     1  UNL1       -0.0626
     40 C           0.4900   -0.9427    2.8592 C.3     1  UNL1       -0.0626
     41 N           0.5504   -0.3171   -0.8644 N.am    1  UNL1       -0.3084
     42 C           0.5166   -0.3441   -2.2749 C.2     1  UNL1        0.2341
     43 O          -0.4194    0.1780   -2.9768 O.2     1  UNL1       -0.2738
     44 C           1.5715   -0.9844   -3.0960 C.3     1  UNL1        0.1076
     45 C           0.9922   -1.9523   -4.1138 C.3     1  UNL1        0.0506
     46 C           0.0856   -1.2769   -5.0522 C.2     1  UNL1        0.2127
     47 N           0.6716   -0.6459   -6.1852 N.am    1  UNL1       -0.3293
     48 O          -1.1717   -1.2238   -4.9138 O.2     1  UNL1       -0.2760
     49 N           2.6244   -1.6871   -2.4294 N.am    1  UNL1       -0.3020
     50 C           3.9776   -1.2071   -2.4058 C.2     1  UNL1        0.2340
     51 O           4.1587   -0.0960   -2.9562 O.2     1  UNL1       -0.2738
     52 C           5.0774   -1.9933   -1.7823 C.3     1  UNL1        0.0997
     53 C           4.7795   -2.5081   -0.4313 C.3     1  UNL1       -0.0236
     54 C           5.8023   -3.4093    0.1440 C.3     1  UNL1       -0.0446
     55 C           7.1705   -2.8983    0.3221 C.3     1  UNL1       -0.0626
     56 C           5.2958   -3.9917    1.4627 C.3     1  UNL1       -0.0626
     57 N           6.2432   -1.1277   -1.9147 N.am    1  UNL1       -0.3009
     58 C           6.6810   -0.1703   -0.9730 C.2     1  UNL1        0.2547
     59 O           6.0582    0.0257    0.1134 O.2     1  UNL1       -0.2717
     60 C           7.9105    0.6401   -1.2328 C.3     1  UNL1        0.1807
     61 O           8.4017    1.0619    0.0516 O.3     1  UNL1       -0.4491
     62 C           9.7667    0.7854    0.2542 C.2     1  UNL1        0.3494
     63 O          10.3854    0.2465   -0.6885 O.2     1  UNL1       -0.2466
     64 C          10.5152    1.0817    1.4896 C.3     1  UNL1        0.2012
     65 O          11.8714    0.8330    1.2962 O.3     1  UNL1       -0.4485
     66 C          12.5490   -0.2734    1.7563 C.2     1  UNL1        0.3255
     67 O          11.8950   -1.1482    2.4053 O.2     1  UNL1       -0.2490
     68 C          13.9977   -0.4085    1.4817 C.3     1  UNL1        0.1102
     69 C          14.4280    0.0428    0.1316 C.3     1  UNL1       -0.0207
     70 C          14.1030    1.5272   -0.0735 C.3     1  UNL1       -0.0607
     71 C          15.9308   -0.0776   -0.0167 C.3     1  UNL1       -0.0607
     72 N          14.4784   -1.7593    1.7252 N.3     1  UNL1       -0.2959
     73 C          14.2629   -2.2177    3.0635 C.3     1  UNL1       -0.0123
     74 C          13.9521   -2.6860    0.7529 C.3     1  UNL1       -0.0123
     75 C          10.1521    2.3359    2.1988 C.3     1  UNL1        0.0011
     76 C          11.0554    2.4869    3.4327 C.3     1  UNL1       -0.0588
     77 C           8.7343    2.2872    2.7555 C.3     1  UNL1       -0.0588
     78 C           7.4207    1.9246   -1.9496 C.3     1  UNL1       -0.0008
     79 C           6.4688    2.6705   -1.0574 C.3     1  UNL1       -0.0588
     80 C           8.6602    2.7583   -2.1397 C.3     1  UNL1       -0.0588
     81 C          -6.7145    2.5746    2.1199 C.3     1  UNL1        0.0792
     82 C          -6.0339    3.5677    3.0654 C.3     1  UNL1       -0.0367
     83 O          -7.2929    3.2715    1.0524 O.3     1  UNL1       -0.3897
     84 H         -16.6735   -1.3131   -1.1842 H       1  UNL1        0.0661
     85 H         -15.9212   -0.6938   -2.7234 H       1  UNL1        0.0661
     86 H         -17.1549    0.3072   -1.9112 H       1  UNL1        0.0661
     87 H         -13.6110    0.2295    1.8279 H       1  UNL1        0.0616
     88 H         -15.8729    1.5572    2.5353 H       1  UNL1        0.0289
     89 H         -14.2027    1.9138    3.1480 H       1  UNL1        0.0289
     90 H         -15.7659    3.3767    1.0178 H       1  UNL1        0.0281
     91 H         -14.6966    4.0810    2.3414 H       1  UNL1        0.0281
     92 H         -14.0157    3.4644   -0.4017 H       1  UNL1        0.0465
     93 H         -12.8235    3.8170    0.9400 H       1  UNL1        0.0465
     94 H         -12.0780   -0.7657    0.1268 H       1  UNL1        0.0600
     95 H         -12.9602   -0.2197   -2.1061 H       1  UNL1        0.0336
     96 H         -11.3788    0.4578   -2.5219 H       1  UNL1        0.0336
     97 H          -9.4590   -1.1175   -2.7545 H       1  UNL1        0.0620
     98 H          -8.7603   -3.4706   -3.1993 H       1  UNL1        0.0618
     99 H         -10.3673   -5.3041   -2.8325 H       1  UNL1        0.0618
    100 H         -12.6634   -4.8274   -2.0461 H       1  UNL1        0.0618
    101 H         -13.3036   -2.4850   -1.6245 H       1  UNL1        0.0620
    102 H          -8.3311    0.5188   -1.0201 H       1  UNL1        0.0429
    103 H          -9.1399    1.8436   -0.1322 H       1  UNL1        0.0429
    104 H          -9.7089    1.3095   -1.7860 H       1  UNL1        0.0429
    105 H          -7.6492   -1.8416    0.1314 H       1  UNL1        0.0592
    106 H          -9.1422   -2.0964    2.7831 H       1  UNL1        0.0252
    107 H          -8.4753   -3.4541    1.7178 H       1  UNL1        0.0252
    108 H          -7.3668   -2.3291    2.6413 H       1  UNL1        0.0252
    109 H          -8.0469    0.2244    2.3281 H       1  UNL1        0.1495
    110 H          -5.3127    1.0196    2.6046 H       1  UNL1        0.0621
    111 H          -4.7867    2.9819    0.4840 H       1  UNL1        0.1495
    112 H          -3.0249    2.3709   -1.0081 H       1  UNL1        0.0384
    113 H          -2.0245    2.7592    0.3669 H       1  UNL1        0.0384
    114 H          -0.9498    1.7064   -1.5537 H       1  UNL1        0.0616
    115 H          -3.0744    0.6107   -1.9261 H       1  UNL1        0.2099
    116 H          -1.0858   -0.6917    0.2453 H       1  UNL1        0.0524
    117 H           0.2379    1.9846    1.1088 H       1  UNL1        0.0286
    118 H          -1.0101    1.0340    1.8771 H       1  UNL1        0.0286
    119 H           1.0206    1.0734    2.9854 H       1  UNL1        0.0296
    120 H           2.5314    0.8352    0.7069 H       1  UNL1        0.0232
    121 H           3.0921    0.6063    2.3474 H       1  UNL1        0.0232
    122 H           2.6907   -0.8560    1.4812 H       1  UNL1        0.0232
    123 H           0.2140   -0.7709    3.9180 H       1  UNL1        0.0232
    124 H          -0.4036   -1.4173    2.3884 H       1  UNL1        0.0232
    125 H           1.3425   -1.6850    2.9174 H       1  UNL1        0.0232
    126 H           1.4184   -0.8130   -0.4659 H       1  UNL1        0.1491
    127 H           2.0050   -0.1034   -3.6875 H       1  UNL1        0.0599
    128 H           1.8338   -2.3804   -4.7111 H       1  UNL1        0.0381
    129 H           0.4975   -2.8165   -3.6126 H       1  UNL1        0.0381
    130 H           1.7070   -0.5954   -6.2843 H       1  UNL1        0.1449
    131 H           0.0378   -0.2401   -6.9121 H       1  UNL1        0.1449
    132 H           2.4067   -2.5827   -1.9387 H       1  UNL1        0.1495
    133 H           5.2829   -2.8768   -2.4753 H       1  UNL1        0.0594
    134 H           3.7584   -3.0079   -0.4020 H       1  UNL1        0.0290
    135 H           4.6410   -1.6521    0.2733 H       1  UNL1        0.0290
    136 H           5.8483   -4.2960   -0.5899 H       1  UNL1        0.0296
    137 H           7.7356   -2.7139   -0.6184 H       1  UNL1        0.0232
    138 H           7.2920   -2.0864    1.0568 H       1  UNL1        0.0232
    139 H           7.7896   -3.7440    0.8216 H       1  UNL1        0.0232
    140 H           4.3087   -3.5708    1.7303 H       1  UNL1        0.0232
    141 H           5.3079   -5.0813    1.3978 H       1  UNL1        0.0232
    142 H           6.0068   -3.6565    2.2515 H       1  UNL1        0.0232
    143 H           6.8451   -1.1878   -2.7901 H       1  UNL1        0.1496
    144 H           8.6010    0.0997   -1.8405 H       1  UNL1        0.0835
    145 H          10.1817    0.2085    2.1872 H       1  UNL1        0.0855
    146 H          14.5551    0.2170    2.2390 H       1  UNL1        0.0581
    147 H          13.9544   -0.5400   -0.6812 H       1  UNL1        0.0316
    148 H          14.9458    2.0442   -0.6098 H       1  UNL1        0.0233
    149 H          14.0534    2.0300    0.9236 H       1  UNL1        0.0233
    150 H          13.2045    1.6540   -0.6912 H       1  UNL1        0.0233
    151 H          16.4039    0.6531    0.6705 H       1  UNL1        0.0233
    152 H          16.3187   -1.0940    0.1218 H       1  UNL1        0.0233
    153 H          16.1754    0.2625   -1.0492 H       1  UNL1        0.0233
    154 H          13.8887   -1.4320    3.7439 H       1  UNL1        0.0391
    155 H          15.2275   -2.5628    3.5014 H       1  UNL1        0.0391
    156 H          13.5579   -3.0811    3.0912 H       1  UNL1        0.0391
    157 H          13.6072   -3.6469    1.1416 H       1  UNL1        0.0391
    158 H          13.0970   -2.2087    0.1824 H       1  UNL1        0.0391
    159 H          14.7843   -2.9172    0.0239 H       1  UNL1        0.0391
    160 H          10.2813    3.1965    1.5575 H       1  UNL1        0.0337
    161 H          11.4000    3.5345    3.4437 H       1  UNL1        0.0234
    162 H          11.9522    1.8421    3.3105 H       1  UNL1        0.0234
    163 H          10.5263    2.1737    4.3576 H       1  UNL1        0.0234
    164 H           7.9677    2.2627    1.9634 H       1  UNL1        0.0234
    165 H           8.6462    1.4815    3.5097 H       1  UNL1        0.0234
    166 H           8.5793    3.2566    3.3131 H       1  UNL1        0.0234
    167 H           6.9573    1.7045   -2.9032 H       1  UNL1        0.0336
    168 H           6.7568    3.7612   -1.0626 H       1  UNL1        0.0234
    169 H           5.4106    2.5989   -1.3503 H       1  UNL1        0.0234
    170 H           6.6247    2.2584   -0.0276 H       1  UNL1        0.0234
    171 H           8.4478    3.6885   -2.7189 H       1  UNL1        0.0234
    172 H           9.0049    3.0695   -1.1246 H       1  UNL1        0.0234
    173 H           9.4462    2.1293   -2.5803 H       1  UNL1        0.0234
    174 H          -7.5525    2.1330    2.6783 H       1  UNL1        0.0614
    175 H          -4.9926    3.2610    3.1448 H       1  UNL1        0.0255
    176 H          -6.4963    3.5455    4.0645 H       1  UNL1        0.0255
    177 H          -6.1537    4.6122    2.6877 H       1  UNL1        0.0255
    178 H          -8.1169    3.6947    1.3937 H       1  UNL1        0.2099
@<TRIPOS>BOND
     1     1     2    1
     2     2     3    1
     3     3     4    2
     4     3     5    1
     5     5     6    1
     6     6     7    1
     7     7     8    1
     8     8     9    1
     9     9    10   am
    10    10    11    2
    11    10    12    1
    12    12    13    1
    13    13    14    1
    14    14    15   ar
    15    15    16   ar
    16    16    17   ar
    17    17    18   ar
    18    18    19   ar
    19    12    20    1
    20    20    21    1
    21    20    22   am
    22    22    23    2
    23    22    24    1
    24    24    25    1
    25    24    26    1
    26    26    27   am
    27    27    28    2
    28    27    29    1
    29    29    30    1
    30    30    31   am
    31    31    32    2
    32    31    33    1
    33    33    34    1
    34    34    35    1
    35    34    36    1
    36    36    37    1
    37    37    38    1
    38    38    39    1
    39    38    40    1
    40    36    41    1
    41    41    42   am
    42    42    43    2
    43    42    44    1
    44    44    45    1
    45    45    46    1
    46    46    47   am
    47    46    48    2
    48    44    49    1
    49    49    50   am
    50    50    51    2
    51    50    52    1
    52    52    53    1
    53    53    54    1
    54    54    55    1
    55    54    56    1
    56    52    57    1
    57    57    58   am
    58    58    59    2
    59    58    60    1
    60    60    61    1
    61    61    62    1
    62    62    63    2
    63    62    64    1
    64    64    65    1
    65    65    66    1
    66    66    67    2
    67    66    68    1
    68    68    69    1
    69    69    70    1
    70    69    71    1
    71    68    72    1
    72    72    73    1
    73    72    74    1
    74    64    75    1
    75    75    76    1
    76    75    77    1
    77    60    78    1
    78    78    79    1
    79    78    80    1
    80    29    81    1
    81    81    82    1
    82    81    83    1
    83     9     5    1
    84    19    14   ar
    85     1    84    1
    86     1    85    1
    87     1    86    1
    88     5    87    1
    89     6    88    1
    90     6    89    1
    91     7    90    1
    92     7    91    1
    93     8    92    1
    94     8    93    1
    95    12    94    1
    96    13    95    1
    97    13    96    1
    98    15    97    1
    99    16    98    1
   100    17    99    1
   101    18   100    1
   102    19   101    1
   103    21   102    1
   104    21   103    1
   105    21   104    1
   106    24   105    1
   107    25   106    1
   108    25   107    1
   109    25   108    1
   110    26   109    1
   111    29   110    1
   112    30   111    1
   113    33   112    1
   114    33   113    1
   115    34   114    1
   116    35   115    1
   117    36   116    1
   118    37   117    1
   119    37   118    1
   120    38   119    1
   121    39   120    1
   122    39   121    1
   123    39   122    1
   124    40   123    1
   125    40   124    1
   126    40   125    1
   127    41   126    1
   128    44   127    1
   129    45   128    1
   130    45   129    1
   131    47   130    1
   132    47   131    1
   133    49   132    1
   134    52   133    1
   135    53   134    1
   136    53   135    1
   137    54   136    1
   138    55   137    1
   139    55   138    1
   140    55   139    1
   141    56   140    1
   142    56   141    1
   143    56   142    1
   144    57   143    1
   145    60   144    1
   146    64   145    1
   147    68   146    1
   148    69   147    1
   149    70   148    1
   150    70   149    1
   151    70   150    1
   152    71   151    1
   153    71   152    1
   154    71   153    1
   155    73   154    1
   156    73   155    1
   157    73   156    1
   158    74   157    1
   159    74   158    1
   160    74   159    1
   161    75   160    1
   162    76   161    1
   163    76   162    1
   164    76   163    1
   165    77   164    1
   166    77   165    1
   167    77   166    1
   168    78   167    1
   169    79   168    1
   170    79   169    1
   171    79   170    1
   172    80   171    1
   173    80   172    1
   174    80   173    1
   175    81   174    1
   176    82   175    1
   177    82   176    1
   178    82   177    1
   179    83   178    1
