@<TRIPOS>MOLECULE
*****
 90 92 0 0 0
SMALL
GASTEIGER

@<TRIPOS>ATOM
      1 C          -0.7294   -0.2099   -1.8236 C.ar    1  UNL1       -0.0570
      2 C           0.4634   -0.8623   -1.7039 C.ar    1  UNL1       -0.0570
      3 C           1.1764   -0.8753   -0.4933 C.ar    1  UNL1       -0.0333
      4 C           2.4287   -1.6422   -0.4237 C.3     1  UNL1        0.0241
      5 N           3.5983   -1.0946   -0.8752 N.3     1  UNL1       -0.2969
      6 C           4.7541   -2.0144   -0.9041 C.3     1  UNL1        0.0004
      7 C           5.9307   -1.2840   -1.4154 C.3     1  UNL1       -0.0276
      8 C           7.2437   -1.9503   -1.4198 C.3     1  UNL1       -0.0029
      9 N           7.6324   -2.4088   -0.0797 N.3     1  UNL1       -0.3147
     10 C           7.6385   -1.3126    0.8311 C.3     1  UNL1        0.0084
     11 C           8.5444   -0.1711    0.5279 C.3     1  UNL1        0.0084
     12 N           8.4970    0.7901    1.5187 N.3     1  UNL1       -0.3147
     13 C           7.4541    1.6068    1.8920 C.3     1  UNL1       -0.0029
     14 C           6.9063    2.6968    1.1163 C.3     1  UNL1       -0.0278
     15 C           5.9465    2.6404    0.0100 C.3     1  UNL1       -0.0029
     16 N           4.6372    2.2332    0.2251 N.3     1  UNL1       -0.3147
     17 C           4.1401    0.9440    0.3352 C.3     1  UNL1        0.0087
     18 C           3.9443    0.2332   -0.9925 C.3     1  UNL1        0.0118
     19 C           0.6428   -0.2109    0.5755 C.ar    1  UNL1       -0.0570
     20 C          -0.5463    0.4481    0.4806 C.ar    1  UNL1       -0.0570
     21 C          -1.2433    0.4569   -0.7088 C.ar    1  UNL1       -0.0333
     22 C          -2.5188    1.1794   -0.8026 C.3     1  UNL1        0.0241
     23 N          -3.7175    0.3623   -0.4609 N.3     1  UNL1       -0.2969
     24 C          -3.6863   -0.7214   -1.3652 C.3     1  UNL1        0.0004
     25 C          -4.8813   -1.6238   -1.4527 C.3     1  UNL1       -0.0276
     26 C          -6.1236   -0.9746   -1.9679 C.3     1  UNL1       -0.0029
     27 N          -6.5567    0.1599   -1.2755 N.3     1  UNL1       -0.3147
     28 C          -7.8467    0.6964   -1.6494 C.3     1  UNL1        0.0084
     29 C          -8.0608    1.9451   -0.7773 C.3     1  UNL1        0.0084
     30 N          -7.8457    1.5942    0.5876 N.3     1  UNL1       -0.3147
     31 C          -8.8018    0.7157    1.1713 C.3     1  UNL1       -0.0029
     32 C          -8.2874    0.3684    2.5693 C.3     1  UNL1       -0.0278
     33 C          -6.9566   -0.3552    2.4661 C.3     1  UNL1       -0.0029
     34 N          -5.9682    0.4068    1.7352 N.3     1  UNL1       -0.3147
     35 C          -4.7503   -0.4150    1.7060 C.3     1  UNL1        0.0087
     36 C          -3.6474    0.1447    0.9248 C.3     1  UNL1        0.0118
     37 H          -1.2853   -0.1952   -2.7813 H       1  UNL1        0.0621
     38 H           0.8570   -1.3816   -2.5859 H       1  UNL1        0.0621
     39 H           2.2878   -2.6612   -0.9203 H       1  UNL1        0.0476
     40 H           2.5677   -1.9551    0.6618 H       1  UNL1        0.0476
     41 H           4.5527   -2.8972   -1.5158 H       1  UNL1        0.0427
     42 H           4.9153   -2.3226    0.1399 H       1  UNL1        0.0427
     43 H           5.7158   -0.9940   -2.4945 H       1  UNL1        0.0290
     44 H           6.1001   -0.3151   -0.8433 H       1  UNL1        0.0290
     45 H           7.1743   -2.8823   -2.0280 H       1  UNL1        0.0424
     46 H           8.0455   -1.3172   -1.7886 H       1  UNL1        0.0424
     47 H           8.6143   -2.7613   -0.1767 H       1  UNL1        0.1220
     48 H           6.6188   -1.0113    1.1151 H       1  UNL1        0.0436
     49 H           8.0474   -1.7562    1.8085 H       1  UNL1        0.0436
     50 H           8.4267    0.2112   -0.5180 H       1  UNL1        0.0436
     51 H           9.5904   -0.6099    0.5105 H       1  UNL1        0.0436
     52 H           9.4206    1.1300    1.8116 H       1  UNL1        0.1220
     53 H           6.5769    0.9706    2.3590 H       1  UNL1        0.0424
     54 H           7.7976    2.0938    2.9000 H       1  UNL1        0.0424
     55 H           6.4727    3.5290    1.8212 H       1  UNL1        0.0290
     56 H           7.8301    3.2516    0.6708 H       1  UNL1        0.0290
     57 H           6.3697    2.0077   -0.8406 H       1  UNL1        0.0424
     58 H           5.9150    3.6727   -0.4632 H       1  UNL1        0.0424
     59 H           3.9583    2.9821    0.5096 H       1  UNL1        0.1220
     60 H           4.7163    0.2950    0.9961 H       1  UNL1        0.0437
     61 H           3.1276    1.0152    0.8438 H       1  UNL1        0.0437
     62 H           2.9815    0.7697   -1.3935 H       1  UNL1        0.0439
     63 H           4.6657    0.5468   -1.7745 H       1  UNL1        0.0439
     64 H           1.2027   -0.2269    1.5110 H       1  UNL1        0.0621
     65 H          -0.9569    0.9976    1.3623 H       1  UNL1        0.0621
     66 H          -2.5027    2.0796   -0.1526 H       1  UNL1        0.0476
     67 H          -2.6707    1.5229   -1.8473 H       1  UNL1        0.0476
     68 H          -2.7523   -1.3370   -1.2953 H       1  UNL1        0.0427
     69 H          -3.6168   -0.2549   -2.3972 H       1  UNL1        0.0427
     70 H          -4.6473   -2.4324   -2.2440 H       1  UNL1        0.0290
     71 H          -5.0464   -2.2607   -0.5515 H       1  UNL1        0.0290
     72 H          -5.9665   -0.8019   -3.0728 H       1  UNL1        0.0424
     73 H          -6.9607   -1.7367   -1.9614 H       1  UNL1        0.0424
     74 H          -5.9038    0.9014   -1.0376 H       1  UNL1        0.1220
     75 H          -8.6586   -0.0345   -1.5504 H       1  UNL1        0.0436
     76 H          -7.7934    1.0467   -2.6925 H       1  UNL1        0.0436
     77 H          -7.2912    2.6796   -1.0813 H       1  UNL1        0.0436
     78 H          -9.0508    2.3578   -1.0059 H       1  UNL1        0.0436
     79 H          -7.8174    2.4841    1.1450 H       1  UNL1        0.1220
     80 H          -9.7601    1.2748    1.3554 H       1  UNL1        0.0424
     81 H          -9.0604   -0.1727    0.5962 H       1  UNL1        0.0424
     82 H          -9.0171   -0.3454    2.9989 H       1  UNL1        0.0290
     83 H          -8.2268    1.2702    3.1660 H       1  UNL1        0.0290
     84 H          -6.5774   -0.4491    3.5133 H       1  UNL1        0.0424
     85 H          -7.0554   -1.3506    2.0314 H       1  UNL1        0.0424
     86 H          -5.7810    1.3365    2.1579 H       1  UNL1        0.1220
     87 H          -5.0328   -1.4508    1.5904 H       1  UNL1        0.0437
     88 H          -4.4180   -0.3575    2.8099 H       1  UNL1        0.0437
     89 H          -3.3833    1.1433    1.3941 H       1  UNL1        0.0439
     90 H          -2.7262   -0.4906    1.1536 H       1  UNL1        0.0439
@<TRIPOS>BOND
     1     1     2   ar
     2     2     3   ar
     3     3     4    1
     4     4     5    1
     5     5     6    1
     6     6     7    1
     7     7     8    1
     8     8     9    1
     9     9    10    1
    10    10    11    1
    11    11    12    1
    12    12    13    1
    13    13    14    1
    14    14    15    1
    15    15    16    1
    16    16    17    1
    17    17    18    1
    18     3    19   ar
    19    19    20   ar
    20    20    21   ar
    21    21    22    1
    22    22    23    1
    23    23    24    1
    24    24    25    1
    25    25    26    1
    26    26    27    1
    27    27    28    1
    28    28    29    1
    29    29    30    1
    30    30    31    1
    31    31    32    1
    32    32    33    1
    33    33    34    1
    34    34    35    1
    35    35    36    1
    36    21     1   ar
    37    36    23    1
    38    18     5    1
    39     1    37    1
    40     2    38    1
    41     4    39    1
    42     4    40    1
    43     6    41    1
    44     6    42    1
    45     7    43    1
    46     7    44    1
    47     8    45    1
    48     8    46    1
    49     9    47    1
    50    10    48    1
    51    10    49    1
    52    11    50    1
    53    11    51    1
    54    12    52    1
    55    13    53    1
    56    13    54    1
    57    14    55    1
    58    14    56    1
    59    15    57    1
    60    15    58    1
    61    16    59    1
    62    17    60    1
    63    17    61    1
    64    18    62    1
    65    18    63    1
    66    19    64    1
    67    20    65    1
    68    22    66    1
    69    22    67    1
    70    24    68    1
    71    24    69    1
    72    25    70    1
    73    25    71    1
    74    26    72    1
    75    26    73    1
    76    27    74    1
    77    28    75    1
    78    28    76    1
    79    29    77    1
    80    29    78    1
    81    30    79    1
    82    31    80    1
    83    31    81    1
    84    32    82    1
    85    32    83    1
    86    33    84    1
    87    33    85    1
    88    34    86    1
    89    35    87    1
    90    35    88    1
    91    36    89    1
    92    36    90    1
