@<TRIPOS>MOLECULE
*****
 57 61 0 0 0
SMALL
GASTEIGER

@<TRIPOS>ATOM
      1 C           7.3805   -1.7740    0.0288 C.3     1  UNL1       -0.0387
      2 C           6.1327   -1.3640   -0.7154 C.3     1  UNL1        0.0554
      3 O           5.9414   -2.1653   -1.8320 O.3     1  UNL1       -0.3918
      4 C           4.9153   -1.3579    0.1835 C.3     1  UNL1       -0.0124
      5 C           3.7383   -0.9342   -0.6709 C.3     1  UNL1       -0.0320
      6 C           3.5927    0.5656   -0.6863 C.3     1  UNL1        0.0140
      7 N           3.2585    0.9821    0.6592 N.pl3   1  UNL1       -0.3109
      8 C           2.3893    2.0789    0.9402 C.ar    1  UNL1        0.1843
      9 N           2.8320    3.1466    1.6512 N.ar    1  UNL1       -0.2338
     10 C           2.0367    4.1867    1.9275 C.ar    1  UNL1        0.0480
     11 C           0.7216    4.1553    1.4646 C.ar    1  UNL1        0.0496
     12 N           0.2784    3.0995    0.7597 N.ar    1  UNL1       -0.2166
     13 C           1.0921    2.0509    0.4852 C.ar    1  UNL1        0.2615
     14 O           0.6843    0.9508   -0.2309 O.3     1  UNL1       -0.4353
     15 C          -0.6048    0.8034   -0.7461 C.ar    1  UNL1        0.1306
     16 C          -1.6017    0.2027   -0.0068 C.ar    1  UNL1       -0.0175
     17 C          -2.8804    0.0475   -0.4968 C.ar    1  UNL1       -0.0370
     18 C          -3.2370    0.4840   -1.7548 C.ar    1  UNL1        0.0330
     19 N          -4.5451    0.3332   -2.2751 N.pl3   1  UNL1       -0.2937
     20 C          -5.5033   -0.3081   -1.4144 C.ar    1  UNL1        0.1634
     21 N          -5.9875   -1.3079   -1.0758 N.ar    1  UNL1       -0.2246
     22 C          -6.9203   -1.5338   -0.1816 C.ar    1  UNL1        0.0803
     23 C          -7.4882   -2.7519    0.2092 C.ar    1  UNL1       -0.0351
     24 C          -8.4626   -2.7548    1.1763 C.ar    1  UNL1       -0.0597
     25 C          -8.9486   -1.6482    1.8163 C.ar    1  UNL1       -0.0606
     26 C          -8.3920   -0.4260    1.4373 C.ar    1  UNL1       -0.0458
     27 C          -7.4020   -0.4255    0.4543 C.ar    1  UNL1        0.0408
     28 S          -6.4433    0.8983   -0.3094 S.2     1  UNL1       -0.0521
     29 C          -2.2223    1.0916   -2.4983 C.ar    1  UNL1       -0.0370
     30 C          -0.9437    1.2462   -2.0069 C.ar    1  UNL1       -0.0175
     31 C           3.8485    0.2323    1.7508 C.3     1  UNL1        0.0140
     32 C           5.1402   -0.3843    1.3081 C.3     1  UNL1       -0.0320
     33 H           7.7834   -0.8873    0.5418 H       1  UNL1        0.0255
     34 H           8.1100   -2.1385   -0.7177 H       1  UNL1        0.0255
     35 H           7.1971   -2.6027    0.7393 H       1  UNL1        0.0255
     36 H           6.3258   -0.3238   -1.0925 H       1  UNL1        0.0593
     37 H           5.4043   -2.9573   -1.6116 H       1  UNL1        0.2098
     38 H           4.7949   -2.3778    0.5947 H       1  UNL1        0.0327
     39 H           2.8075   -1.3398   -0.2030 H       1  UNL1        0.0284
     40 H           3.7799   -1.3109   -1.6916 H       1  UNL1        0.0284
     41 H           4.5282    1.0696   -1.0247 H       1  UNL1        0.0464
     42 H           2.7349    0.8122   -1.3462 H       1  UNL1        0.0464
     43 H           2.3752    5.0390    2.4900 H       1  UNL1        0.0846
     44 H           0.0825    4.9936    1.6879 H       1  UNL1        0.0846
     45 H          -1.3353   -0.1480    0.9906 H       1  UNL1        0.0655
     46 H          -3.6716   -0.4324    0.0973 H       1  UNL1        0.0637
     47 H          -4.7605    0.6795   -3.2286 H       1  UNL1        0.1541
     48 H          -7.1895   -3.7065   -0.2232 H       1  UNL1        0.0639
     49 H          -8.8876   -3.7307    1.4596 H       1  UNL1        0.0618
     50 H          -9.6961   -1.6832    2.5536 H       1  UNL1        0.0618
     51 H          -8.7102    0.5144    1.8871 H       1  UNL1        0.0629
     52 H          -2.5081    1.4357   -3.4930 H       1  UNL1        0.0637
     53 H          -0.1689    1.7203   -2.5982 H       1  UNL1        0.0655
     54 H           4.0963    0.9775    2.5597 H       1  UNL1        0.0464
     55 H           3.1104   -0.5156    2.1015 H       1  UNL1        0.0464
     56 H           5.7941    0.4262    0.9414 H       1  UNL1        0.0284
     57 H           5.6040   -0.9330    2.1598 H       1  UNL1        0.0284
@<TRIPOS>BOND
     1     1     2    1
     2     2     3    1
     3     2     4    1
     4     4     5    1
     5     5     6    1
     6     6     7    1
     7     7     8    1
     8     8     9   ar
     9     9    10   ar
    10    10    11   ar
    11    11    12   ar
    12    12    13   ar
    13    13    14    1
    14    14    15    1
    15    15    16   ar
    16    16    17   ar
    17    17    18   ar
    18    18    19    1
    19    19    20    1
    20    20    21   ar
    21    21    22   ar
    22    22    23   ar
    23    23    24   ar
    24    24    25   ar
    25    25    26   ar
    26    26    27   ar
    27    27    28   ar
    28    18    29   ar
    29    29    30   ar
    30     7    31    1
    31    31    32    1
    32    32     4    1
    33    13     8   ar
    34    30    15   ar
    35    28    20   ar
    36    27    22   ar
    37     1    33    1
    38     1    34    1
    39     1    35    1
    40     2    36    1
    41     3    37    1
    42     4    38    1
    43     5    39    1
    44     5    40    1
    45     6    41    1
    46     6    42    1
    47    10    43    1
    48    11    44    1
    49    16    45    1
    50    17    46    1
    51    19    47    1
    52    23    48    1
    53    24    49    1
    54    25    50    1
    55    26    51    1
    56    29    52    1
    57    30    53    1
    58    31    54    1
    59    31    55    1
    60    32    56    1
    61    32    57    1
