@<TRIPOS>MOLECULE
*****
 65 72 0 0 0
SMALL
GASTEIGER

@<TRIPOS>ATOM
      1 C          -1.0020   -5.5604   -1.8140 C.3     1  UNL1        0.0000
      2 C          -0.5389   -4.1790   -1.4275 C.ar    1  UNL1        0.0000
      3 C           0.7605   -3.8836   -1.5486 C.ar    1  UNL1        0.0000
      4 C           0.8966   -2.5926   -1.1378 C.ar    1  UNL1        0.0000
      5 C           2.0699   -2.0370   -1.1289 C.2     1  UNL1        0.0000
      6 C           2.1384   -0.6619   -0.6817 C.2     1  UNL1        0.0000
      7 N           1.1978    0.0934   -0.2914 N.2     1  UNL1        1.0000
      8 C           1.8101    1.3271    0.0259 C.2     1  UNL1        0.0000
      9 C           1.2720    2.4608    0.5017 C.2     1  UNL1        0.0000
     10 C          -0.1429    2.3952    0.7206 C.ar    1  UNL1        0.0000
     11 C          -0.8059    3.4786    1.2169 C.ar    1  UNL1        0.0000
     12 C          -0.3250    4.8036    1.5884 C.2     1  UNL1        0.0000
     13 C           0.8214    5.4142    1.5901 C.2     1  UNL1        0.0000
     14 C          -2.1129    3.1562    1.3438 C.ar    1  UNL1        0.0000
     15 C          -3.1966    4.0532    1.8537 C.3     1  UNL1        0.0000
     16 C          -2.1095    1.8846    0.9026 C.ar    1  UNL1        0.0000
     17 O          -3.3201    1.2108    0.8939 O.3     1  UNL1        0.0000
     18 C          -3.4249   -0.0831    0.4685 C.ar    1  UNL1        0.0000
     19 C          -4.6324   -0.6651    0.4938 C.ar    1  UNL1        0.0000
     20 C          -5.9167   -0.1461    0.9124 C.2     1  UNL1        0.0000
     21 C          -6.2164    1.0476    1.3751 C.2     1  UNL1        0.0000
     22 C          -4.3661   -1.9024    0.0202 C.ar    1  UNL1        0.0000
     23 C          -5.4713   -2.9259   -0.1239 C.3     1  UNL1        0.0000
     24 C          -3.0248   -1.9574   -0.2480 C.ar    1  UNL1        0.0000
     25 C          -2.4678   -3.2009   -0.7641 C.2     1  UNL1        0.0000
     26 C          -1.1499   -3.0591   -0.9470 C.ar    1  UNL1        0.0000
     27 N          -0.2610   -2.0791   -0.7698 N.ar    1  UNL1        0.0000
     28 FE         -0.6197   -0.3492   -0.1479 Fe      1  UNL1        0.0000
     29 N          -0.9581    1.3736    0.5145 N.ar    1  UNL1        0.0000
     30 N          -2.4262   -0.7992    0.0373 N.ar    1  UNL1        0.0000
     31 C           3.2409    1.2635   -0.2059 C.2     1  UNL1        0.0000
     32 C           4.2887    2.3092   -0.0490 C.3     1  UNL1        0.0000
     33 C           3.4085    0.0458   -0.6306 C.2     1  UNL1        0.0000
     34 C           4.7094   -0.5837   -0.9240 C.3     1  UNL1        0.0000
     35 C           5.9248    0.0923   -0.5091 C.3     1  UNL1        0.0000
     36 C           7.0807   -0.8524   -0.9446 C.2     1  UNL1        0.0000
     37 O           8.3068   -0.3444   -0.5802 O.3     1  UNL1        0.0000
     38 O           7.0820   -1.9630   -1.5515 O.2     1  UNL1        0.0000
     39 H          -0.7253   -5.7221   -2.8545 H       1  UNL1        0.0000
     40 H          -0.3967   -6.2840   -1.2046 H       1  UNL1        0.0000
     41 H          -2.0421   -5.7566   -1.5538 H       1  UNL1        0.0000
     42 H           1.4980   -4.6116   -1.9188 H       1  UNL1        0.0000
     43 H           2.9810   -2.6023   -1.4564 H       1  UNL1        0.0000
     44 H           1.8754    3.3711    0.7060 H       1  UNL1        0.0000
     45 H          -0.9653    5.5500    1.9651 H       1  UNL1        0.0000
     46 H           1.6559    6.0612    1.6616 H       1  UNL1        0.0000
     47 H           1.8680    5.6238    1.4711 H       1  UNL1        0.0000
     48 H          -2.9603    4.3854    2.8960 H       1  UNL1        0.0000
     49 H          -3.2847    4.9412    1.2181 H       1  UNL1        0.0000
     50 H          -4.1502    3.5251    1.9220 H       1  UNL1        0.0000
     51 H          -6.7468   -0.8006    0.8480 H       1  UNL1        0.0000
     52 H          -7.1809    1.4101    1.6802 H       1  UNL1        0.0000
     53 H          -6.0147    2.0509    1.6784 H       1  UNL1        0.0000
     54 H          -5.8864   -3.1926    0.8473 H       1  UNL1        0.0000
     55 H          -6.2779   -2.4382   -0.7334 H       1  UNL1        0.0000
     56 H          -5.1003   -3.7494   -0.7257 H       1  UNL1        0.0000
     57 H          -3.0792   -4.1052   -0.9621 H       1  UNL1        0.0000
     58 H           3.7906    3.2487    0.3289 H       1  UNL1        0.0000
     59 H           4.7047    2.6534   -1.0308 H       1  UNL1        0.0000
     60 H           5.0127    2.0454    0.7194 H       1  UNL1        0.0000
     61 H           4.7706   -0.7636   -2.0346 H       1  UNL1        0.0000
     62 H           4.6618   -1.6178   -0.4717 H       1  UNL1        0.0000
     63 H           6.0685    0.0553    0.6096 H       1  UNL1        0.0000
     64 H           6.2258    1.0247   -0.9853 H       1  UNL1        0.0000
     65 H           9.1781   -0.8867   -0.6543 H       1  UNL1        0.0000
@<TRIPOS>UNITY_ATOM_ATTR
7 1
charge 1
@<TRIPOS>BOND
     1     1     2    1
     2     2     3   ar
     3     3     4   ar
     4     4     5    2
     5     5     6    1
     6     6     7    2
     7     7     8    1
     8     8     9    2
     9     9    10    1
    10    10    11   ar
    11    11    12    1
    12    12    13    2
    13    11    14   ar
    14    14    15    1
    15    14    16   ar
    16    16    17    1
    17    17    18    1
    18    18    19   ar
    19    19    20    1
    20    20    21    2
    21    19    22   ar
    22    22    23    1
    23    22    24   ar
    24    24    25    1
    25    25    26    2
    26    26    27   ar
    27    27    28    1
    28    28    29    1
    29    28    30    1
    30     8    31    1
    31    31    32    1
    32    31    33    2
    33    33    34    1
    34    34    35    1
    35    35    36    1
    36    36    37    1
    37    36    38    2
    38    26     2   ar
    39    27     4   ar
    40    33     6    1
    41    28     7    1
    42    29    10   ar
    43    29    16   ar
    44    30    18   ar
    45    30    24   ar
    46     1    39    1
    47     1    40    1
    48     1    41    1
    49     3    42    1
    50     5    43    1
    51     9    44    1
    52    12    45    1
    53    13    46    1
    54    13    47    1
    55    15    48    1
    56    15    49    1
    57    15    50    1
    58    20    51    1
    59    21    52    1
    60    21    53    1
    61    23    54    1
    62    23    55    1
    63    23    56    1
    64    25    57    1
    65    32    58    1
    66    32    59    1
    67    32    60    1
    68    34    61    1
    69    34    62    1
    70    35    63    1
    71    35    64    1
    72    37    65    1
