@<TRIPOS>MOLECULE
*****
 64 67 0 0 0
SMALL
GASTEIGER

@<TRIPOS>ATOM
      1 C          -1.5440   -5.2938   -1.2978 C.3     1  UNL1       -0.0307
      2 C          -2.1670   -4.8839    0.0111 C.3     1  UNL1        0.0868
      3 O          -2.2712   -3.5115    0.0798 O.3     1  UNL1       -0.4915
      4 C          -1.2427   -2.6110    0.0593 C.ar    1  UNL1        0.1311
      5 C           0.0677   -3.0968   -0.0254 C.ar    1  UNL1       -0.0190
      6 C           1.0867   -2.1813   -0.0446 C.ar    1  UNL1       -0.0548
      7 C           0.8672   -0.8242    0.0157 C.ar    1  UNL1       -0.0434
      8 C           2.0418    0.1125   -0.0078 C.3     1  UNL1       -0.0158
      9 C           2.8792   -0.2146    1.2030 C.3     1  UNL1       -0.0459
     10 C           4.3434    0.0335    0.9775 C.3     1  UNL1       -0.0492
     11 C           4.6292    1.0491   -0.1044 C.3     1  UNL1       -0.0327
     12 C           6.1357    1.0969   -0.2435 C.3     1  UNL1        0.0287
     13 C           6.5770    2.0681   -1.2836 C.2     1  UNL1        0.2357
     14 O           5.7720    2.7509   -1.9636 O.2     1  UNL1       -0.2737
     15 N           7.9598    2.2450   -1.5326 N.am    1  UNL1       -0.1975
     16 O           8.3622    3.1226   -2.4725 O.3     1  UNL1       -0.2952
     17 C           4.0263    0.6743   -1.4275 C.3     1  UNL1       -0.0492
     18 C           2.8020   -0.1954   -1.2778 C.3     1  UNL1       -0.0459
     19 C          -0.4098   -0.3996    0.0969 C.ar    1  UNL1       -0.0441
     20 C          -1.5168   -1.2719    0.1225 C.ar    1  UNL1        0.0592
     21 C          -2.8537   -0.6688    0.2277 C.ar    1  UNL1        0.1451
     22 N          -2.9503    0.6969    0.2502 N.ar    1  UNL1       -0.2254
     23 C          -4.1397    1.3008    0.3449 C.ar    1  UNL1        0.1192
     24 C          -4.5102    2.6503    0.3870 C.ar    1  UNL1        0.0889
     25 C          -3.5598    3.8028    0.3263 C.3     1  UNL1       -0.0094
     26 C          -3.1226    3.9330   -1.1274 C.3     1  UNL1       -0.0597
     27 N          -5.8287    2.6687    0.4850 N.ar    1  UNL1       -0.1736
     28 N          -6.3434    1.4636    0.5098 N.ar    1  UNL1       -0.2598
     29 C          -7.7602    1.0863    0.6130 C.3     1  UNL1        0.0311
     30 C          -5.3250    0.5980    0.4247 C.ar    1  UNL1        0.1513
     31 C          -5.2204   -0.7670    0.4014 C.ar    1  UNL1        0.2775
     32 O          -6.2648   -1.4631    0.4707 O.2     1  UNL1       -0.2655
     33 N          -3.9865   -1.3445    0.3036 N.ar    1  UNL1       -0.3051
     34 H          -1.1700   -4.4574   -1.9094 H       1  UNL1        0.0262
     35 H          -2.3488   -5.8122   -1.8860 H       1  UNL1        0.0262
     36 H          -0.7470   -6.0278   -1.0937 H       1  UNL1        0.0262
     37 H          -3.2037   -5.3181    0.1302 H       1  UNL1        0.0694
     38 H          -1.5846   -5.3052    0.8848 H       1  UNL1        0.0694
     39 H           0.2653   -4.1660   -0.0634 H       1  UNL1        0.0654
     40 H           2.0956   -2.5841   -0.1100 H       1  UNL1        0.0622
     41 H           1.6572    1.1404    0.0183 H       1  UNL1        0.0349
     42 H           2.4661    0.3598    2.0552 H       1  UNL1        0.0271
     43 H           2.7614   -1.2973    1.4141 H       1  UNL1        0.0271
     44 H           4.9068   -0.8938    0.7290 H       1  UNL1        0.0268
     45 H           4.7601    0.4314    1.9215 H       1  UNL1        0.0268
     46 H           4.3047    2.0475    0.2394 H       1  UNL1        0.0305
     47 H           6.6349    1.3842    0.6975 H       1  UNL1        0.0362
     48 H           6.5330    0.0939   -0.5792 H       1  UNL1        0.0362
     49 H           8.6736    1.7097   -1.0038 H       1  UNL1        0.1822
     50 H           8.3744    4.0555   -2.1156 H       1  UNL1        0.2414
     51 H           4.7986    0.1425   -2.0188 H       1  UNL1        0.0268
     52 H           3.7565    1.5888   -1.9909 H       1  UNL1        0.0268
     53 H           3.1661   -1.2465   -1.2025 H       1  UNL1        0.0271
     54 H           2.1604   -0.1396   -2.1557 H       1  UNL1        0.0271
     55 H          -0.5913    0.6660    0.1449 H       1  UNL1        0.0629
     56 H          -4.1433    4.6998    0.6639 H       1  UNL1        0.0327
     57 H          -2.6995    3.6048    0.9967 H       1  UNL1        0.0327
     58 H          -3.7829    3.3362   -1.7863 H       1  UNL1        0.0233
     59 H          -3.1232    5.0184   -1.4429 H       1  UNL1        0.0233
     60 H          -2.0642    3.5984   -1.1738 H       1  UNL1        0.0233
     61 H          -8.3104    1.8454    0.0013 H       1  UNL1        0.0473
     62 H          -8.1310    1.1623    1.6434 H       1  UNL1        0.0473
     63 H          -7.9582    0.1045    0.1340 H       1  UNL1        0.0473
     64 H          -3.9899   -2.3673    0.2937 H       1  UNL1        0.1704
@<TRIPOS>BOND
     1     1     2    1
     2     2     3    1
     3     3     4    1
     4     4     5   ar
     5     5     6   ar
     6     6     7   ar
     7     7     8    1
     8     8     9    1
     9     9    10    1
    10    10    11    1
    11    11    12    1
    12    12    13    1
    13    13    14    2
    14    13    15   am
    15    15    16    1
    16    11    17    1
    17    17    18    1
    18     7    19   ar
    19    19    20   ar
    20    20    21    1
    21    21    22   ar
    22    22    23   ar
    23    23    24   ar
    24    24    25    1
    25    25    26    1
    26    24    27   ar
    27    27    28   ar
    28    28    29    1
    29    28    30   ar
    30    30    31   ar
    31    31    32    2
    32    31    33   ar
    33    20     4   ar
    34    33    21   ar
    35    18     8    1
    36    30    23   ar
    37     1    34    1
    38     1    35    1
    39     1    36    1
    40     2    37    1
    41     2    38    1
    42     5    39    1
    43     6    40    1
    44     8    41    1
    45     9    42    1
    46     9    43    1
    47    10    44    1
    48    10    45    1
    49    11    46    1
    50    12    47    1
    51    12    48    1
    52    15    49    1
    53    16    50    1
    54    17    51    1
    55    17    52    1
    56    18    53    1
    57    18    54    1
    58    19    55    1
    59    25    56    1
    60    25    57    1
    61    26    58    1
    62    26    59    1
    63    26    60    1
    64    29    61    1
    65    29    62    1
    66    29    63    1
    67    33    64    1
