
     RDKit          3D

 64 67  0  0  0  0  0  0  0  0999 V2000
   -1.5440   -5.2938   -1.2978 C   0  0  0  0  0  0  0  0  0  0  0  0
   -2.1670   -4.8839    0.0111 C   0  0  0  0  0  0  0  0  0  0  0  0
   -2.2712   -3.5115    0.0798 O   0  0  0  0  0  0  0  0  0  0  0  0
   -1.2427   -2.6110    0.0593 C   0  0  0  0  0  0  0  0  0  0  0  0
    0.0677   -3.0968   -0.0254 C   0  0  0  0  0  0  0  0  0  0  0  0
    1.0867   -2.1813   -0.0446 C   0  0  0  0  0  0  0  0  0  0  0  0
    0.8672   -0.8242    0.0157 C   0  0  0  0  0  0  0  0  0  0  0  0
    2.0418    0.1125   -0.0078 C   0  0  0  0  0  0  0  0  0  0  0  0
    2.8792   -0.2146    1.2030 C   0  0  0  0  0  0  0  0  0  0  0  0
    4.3434    0.0335    0.9775 C   0  0  0  0  0  0  0  0  0  0  0  0
    4.6292    1.0491   -0.1044 C   0  0  0  0  0  0  0  0  0  0  0  0
    6.1357    1.0969   -0.2435 C   0  0  0  0  0  0  0  0  0  0  0  0
    6.5770    2.0681   -1.2836 C   0  0  0  0  0  0  0  0  0  0  0  0
    5.7720    2.7509   -1.9636 O   0  0  0  0  0  0  0  0  0  0  0  0
    7.9598    2.2450   -1.5326 N   0  0  0  0  0  0  0  0  0  0  0  0
    8.3622    3.1226   -2.4725 O   0  0  0  0  0  0  0  0  0  0  0  0
    4.0263    0.6743   -1.4275 C   0  0  0  0  0  0  0  0  0  0  0  0
    2.8020   -0.1954   -1.2778 C   0  0  0  0  0  0  0  0  0  0  0  0
   -0.4098   -0.3996    0.0969 C   0  0  0  0  0  0  0  0  0  0  0  0
   -1.5168   -1.2719    0.1225 C   0  0  0  0  0  0  0  0  0  0  0  0
   -2.8537   -0.6688    0.2277 C   0  0  0  0  0  0  0  0  0  0  0  0
   -2.9503    0.6969    0.2502 N   0  0  0  0  0  0  0  0  0  0  0  0
   -4.1397    1.3008    0.3449 C   0  0  0  0  0  0  0  0  0  0  0  0
   -4.5102    2.6503    0.3870 C   0  0  0  0  0  0  0  0  0  0  0  0
   -3.5598    3.8028    0.3263 C   0  0  0  0  0  0  0  0  0  0  0  0
   -3.1226    3.9330   -1.1274 C   0  0  0  0  0  0  0  0  0  0  0  0
   -5.8287    2.6687    0.4850 N   0  0  0  0  0  0  0  0  0  0  0  0
   -6.3434    1.4636    0.5098 N   0  0  0  0  0  0  0  0  0  0  0  0
   -7.7602    1.0863    0.6130 C   0  0  0  0  0  0  0  0  0  0  0  0
   -5.3250    0.5980    0.4247 C   0  0  0  0  0  0  0  0  0  0  0  0
   -5.2204   -0.7670    0.4014 C   0  0  0  0  0  0  0  0  0  0  0  0
   -6.2648   -1.4631    0.4707 O   0  0  0  0  0  0  0  0  0  0  0  0
   -3.9865   -1.3445    0.3036 N   0  0  0  0  0  0  0  0  0  0  0  0
   -1.1700   -4.4574   -1.9094 H   0  0  0  0  0  0  0  0  0  0  0  0
   -2.3488   -5.8122   -1.8860 H   0  0  0  0  0  0  0  0  0  0  0  0
   -0.7470   -6.0278   -1.0937 H   0  0  0  0  0  0  0  0  0  0  0  0
   -3.2037   -5.3181    0.1302 H   0  0  0  0  0  0  0  0  0  0  0  0
   -1.5846   -5.3052    0.8848 H   0  0  0  0  0  0  0  0  0  0  0  0
    0.2653   -4.1660   -0.0634 H   0  0  0  0  0  0  0  0  0  0  0  0
    2.0956   -2.5841   -0.1100 H   0  0  0  0  0  0  0  0  0  0  0  0
    1.6572    1.1404    0.0183 H   0  0  0  0  0  0  0  0  0  0  0  0
    2.4661    0.3598    2.0552 H   0  0  0  0  0  0  0  0  0  0  0  0
    2.7614   -1.2973    1.4141 H   0  0  0  0  0  0  0  0  0  0  0  0
    4.9068   -0.8938    0.7290 H   0  0  0  0  0  0  0  0  0  0  0  0
    4.7601    0.4314    1.9215 H   0  0  0  0  0  0  0  0  0  0  0  0
    4.3047    2.0475    0.2394 H   0  0  0  0  0  0  0  0  0  0  0  0
    6.6349    1.3842    0.6975 H   0  0  0  0  0  0  0  0  0  0  0  0
    6.5330    0.0939   -0.5792 H   0  0  0  0  0  0  0  0  0  0  0  0
    8.6736    1.7097   -1.0038 H   0  0  0  0  0  0  0  0  0  0  0  0
    8.3744    4.0555   -2.1156 H   0  0  0  0  0  0  0  0  0  0  0  0
    4.7986    0.1425   -2.0188 H   0  0  0  0  0  0  0  0  0  0  0  0
    3.7565    1.5888   -1.9909 H   0  0  0  0  0  0  0  0  0  0  0  0
    3.1661   -1.2465   -1.2025 H   0  0  0  0  0  0  0  0  0  0  0  0
    2.1604   -0.1396   -2.1557 H   0  0  0  0  0  0  0  0  0  0  0  0
   -0.5913    0.6660    0.1449 H   0  0  0  0  0  0  0  0  0  0  0  0
   -4.1433    4.6998    0.6639 H   0  0  0  0  0  0  0  0  0  0  0  0
   -2.6995    3.6048    0.9967 H   0  0  0  0  0  0  0  0  0  0  0  0
   -3.7829    3.3362   -1.7863 H   0  0  0  0  0  0  0  0  0  0  0  0
   -3.1232    5.0184   -1.4429 H   0  0  0  0  0  0  0  0  0  0  0  0
   -2.0642    3.5984   -1.1738 H   0  0  0  0  0  0  0  0  0  0  0  0
   -8.3104    1.8454    0.0013 H   0  0  0  0  0  0  0  0  0  0  0  0
   -8.1310    1.1623    1.6434 H   0  0  0  0  0  0  0  0  0  0  0  0
   -7.9582    0.1045    0.1340 H   0  0  0  0  0  0  0  0  0  0  0  0
   -3.9899   -2.3673    0.2937 H   0  0  0  0  0  0  0  0  0  0  0  0
  1  2  1  0
  2  3  1  0
  3  4  1  0
  4  5  2  0
  5  6  1  0
  6  7  2  0
  7  8  1  0
  8  9  1  0
  9 10  1  0
 10 11  1  0
 11 12  1  0
 12 13  1  0
 13 14  2  0
 13 15  1  0
 15 16  1  0
 11 17  1  0
 17 18  1  0
  7 19  1  0
 19 20  2  0
 20 21  1  0
 21 22  2  0
 22 23  1  0
 23 24  1  0
 24 25  1  0
 25 26  1  0
 24 27  2  0
 27 28  1  0
 28 29  1  0
 28 30  1  0
 30 31  1  0
 31 32  2  0
 31 33  1  0
 20  4  1  0
 33 21  1  0
 18  8  1  0
 30 23  2  0
  1 34  1  0
  1 35  1  0
  1 36  1  0
  2 37  1  0
  2 38  1  0
  5 39  1  0
  6 40  1  0
  8 41  1  0
  9 42  1  0
  9 43  1  0
 10 44  1  0
 10 45  1  0
 11 46  1  0
 12 47  1  0
 12 48  1  0
 15 49  1  0
 16 50  1  0
 17 51  1  0
 17 52  1  0
 18 53  1  0
 18 54  1  0
 19 55  1  0
 25 56  1  0
 25 57  1  0
 26 58  1  0
 26 59  1  0
 26 60  1  0
 29 61  1  0
 29 62  1  0
 29 63  1  0
 33 64  1  0
M  END
$$$$
