@<TRIPOS>MOLECULE
*****
 33 33 0 0 0
SMALL
GASTEIGER

@<TRIPOS>ATOM
      1 C           4.5678    0.6552    0.5059 C.3     1  UNL1       -0.0624
      2 C           3.2121    0.0737    0.0836 C.3     1  UNL1       -0.0427
      3 C           2.9761    0.4393   -1.3558 C.3     1  UNL1       -0.0624
      4 C           2.1868    0.6380    1.0038 C.3     1  UNL1       -0.0253
      5 C           0.8192    0.1902    0.7490 C.ar    1  UNL1       -0.0471
      6 C           0.2294   -0.9220    1.3143 C.ar    1  UNL1       -0.0583
      7 C          -1.0824   -1.2692    1.0093 C.ar    1  UNL1       -0.0575
      8 C          -1.8211   -0.5094    0.1358 C.ar    1  UNL1       -0.0339
      9 C          -3.2194   -0.8952   -0.1777 C.3     1  UNL1        0.0784
     10 C          -3.4182   -1.2169   -1.6391 C.3     1  UNL1       -0.0482
     11 C          -4.1908    0.1407    0.2115 C.2     1  UNL1        0.3119
     12 O          -4.9163    0.6577   -0.6640 O.2     1  UNL1       -0.2503
     13 O          -4.3491    0.5834    1.5199 O.3     1  UNL1       -0.4802
     14 C          -1.2559    0.5941   -0.4335 C.ar    1  UNL1       -0.0575
     15 C           0.0445    0.9281   -0.1238 C.ar    1  UNL1       -0.0583
     16 H           4.5656    1.7603    0.4222 H       1  UNL1        0.0232
     17 H           4.7272    0.4225    1.5730 H       1  UNL1        0.0232
     18 H           5.3873    0.2687   -0.1028 H       1  UNL1        0.0232
     19 H           3.2708   -1.0204    0.1924 H       1  UNL1        0.0299
     20 H           3.2553    1.5028   -1.5092 H       1  UNL1        0.0232
     21 H           1.9298    0.2492   -1.6615 H       1  UNL1        0.0232
     22 H           3.6293   -0.1721   -2.0113 H       1  UNL1        0.0232
     23 H           2.2171    1.7430    0.9427 H       1  UNL1        0.0316
     24 H           2.4945    0.3868    2.0488 H       1  UNL1        0.0316
     25 H           0.8284   -1.5078    2.0003 H       1  UNL1        0.0620
     26 H          -1.4836   -2.1624    1.4942 H       1  UNL1        0.0621
     27 H          -3.4899   -1.8167    0.3835 H       1  UNL1        0.0459
     28 H          -4.4405   -1.6606   -1.7258 H       1  UNL1        0.0241
     29 H          -2.6840   -1.9246   -2.0332 H       1  UNL1        0.0241
     30 H          -3.3963   -0.2539   -2.1870 H       1  UNL1        0.0241
     31 H          -5.2096    1.0884    1.7577 H       1  UNL1        0.2951
     32 H          -1.8321    1.1990   -1.1238 H       1  UNL1        0.0621
     33 H           0.4481    1.8100   -0.5993 H       1  UNL1        0.0620
@<TRIPOS>BOND
     1     1     2    1
     2     2     3    1
     3     2     4    1
     4     4     5    1
     5     5     6   ar
     6     6     7   ar
     7     7     8   ar
     8     8     9    1
     9     9    10    1
    10     9    11    1
    11    11    12    2
    12    11    13    1
    13     8    14   ar
    14    14    15   ar
    15    15     5   ar
    16     1    16    1
    17     1    17    1
    18     1    18    1
    19     2    19    1
    20     3    20    1
    21     3    21    1
    22     3    22    1
    23     4    23    1
    24     4    24    1
    25     6    25    1
    26     7    26    1
    27     9    27    1
    28    10    28    1
    29    10    29    1
    30    10    30    1
    31    13    31    1
    32    14    32    1
    33    15    33    1
