
     RDKit          3D

 26 28  0  0  0  0  0  0  0  0999 V2000
    2.7709    1.8791    0.0100 C   0  0  0  0  0  0  0  0  0  0  0  0
    2.5604    0.4384    0.1335 N   0  0  0  0  0  0  0  0  0  0  0  0
    3.4151   -0.3387    0.8671 C   0  0  0  0  0  0  0  0  0  0  0  0
    3.0213   -1.6497    0.8365 N   0  0  0  0  0  0  0  0  0  0  0  0
    1.9208   -1.6444    0.0778 C   0  0  0  0  0  0  0  0  0  0  0  0
    1.6050   -0.3891   -0.3715 C   0  0  0  0  0  0  0  0  0  0  0  0
    0.4008    0.4805   -1.3593 S   0  0  0  0  0  0  0  0  0  0  0  0
   -0.9672    1.0124   -0.3306 C   0  0  0  0  0  0  0  0  0  0  0  0
   -1.0478    2.1449    0.4272 N   0  0  0  0  0  0  0  0  0  0  0  0
   -2.1655    2.4240    1.1345 C   0  0  0  0  0  0  0  0  0  0  0  0
   -3.2596    1.6282    1.1481 N   0  0  0  0  0  0  0  0  0  0  0  0
   -3.2863    0.4722    0.4258 C   0  0  0  0  0  0  0  0  0  0  0  0
   -2.1149    0.2132   -0.2943 C   0  0  0  0  0  0  0  0  0  0  0  0
   -2.3817   -0.9428   -0.9140 N   0  0  0  0  0  0  0  0  0  0  0  0
   -3.6004   -1.4182   -0.6446 C   0  0  0  0  0  0  0  0  0  0  0  0
   -4.1564   -0.5090    0.2049 N   0  0  0  0  0  0  0  0  0  0  0  0
    1.1030   -2.7206   -0.2773 N   0  0  0  0  0  4  0  0  0  0  0  0
   -0.0349   -3.3539   -0.6381 O   0  0  0  0  0  1  0  0  0  0  0  0
    1.2737   -3.9436   -0.4268 O   0  0  0  0  0  0  0  0  0  0  0  0
    3.7700    2.1530    0.3726 H   0  0  0  0  0  0  0  0  0  0  0  0
    1.9991    2.4703    0.5465 H   0  0  0  0  0  0  0  0  0  0  0  0
    2.7444    2.1645   -1.0768 H   0  0  0  0  0  0  0  0  0  0  0  0
    4.3064   -0.1323    1.4445 H   0  0  0  0  0  0  0  0  0  0  0  0
   -2.0557    3.3541    1.6744 H   0  0  0  0  0  0  0  0  0  0  0  0
   -1.7542   -1.4605   -1.5493 H   0  0  0  0  0  0  0  0  0  0  0  0
   -4.0664   -2.3322   -1.0141 H   0  0  0  0  0  0  0  0  0  0  0  0
  1  2  1  0
  2  3  1  0
  3  4  2  0
  4  5  1  0
  5  6  2  0
  6  7  1  0
  7  8  1  0
  8  9  2  0
  9 10  1  0
 10 11  2  0
 11 12  1  0
 12 13  2  0
 13 14  1  0
 14 15  1  0
 15 16  2  0
  5 17  1  0
 17 18  1  0
 17 19  2  0
  6  2  1  0
 13  8  1  0
 16 12  1  0
  1 20  1  0
  1 21  1  0
  1 22  1  0
  3 23  1  0
 10 24  1  0
 14 25  1  0
 15 26  1  0
M  CHG  2  17   1  18  -1
M  END
$$$$
