@<TRIPOS>MOLECULE
*****
 26 28 0 0 0
SMALL
GASTEIGER

@<TRIPOS>ATOM
      1 C           2.7709    1.8791    0.0100 C.3     1  UNL1        0.0139
      2 N           2.5604    0.4384    0.1335 N.ar    1  UNL1       -0.3225
      3 C           3.4151   -0.3387    0.8671 C.ar    1  UNL1        0.1034
      4 N           3.0213   -1.6497    0.8365 N.ar    1  UNL1       -0.1699
      5 C           1.9208   -1.6444    0.0778 C.ar    1  UNL1        0.3991
      6 C           1.6050   -0.3891   -0.3715 C.ar    1  UNL1        0.1824
      7 S           0.4008    0.4805   -1.3593 S.3     1  UNL1       -0.0414
      8 C          -0.9672    1.0124   -0.3306 C.ar    1  UNL1        0.1318
      9 N          -1.0478    2.1449    0.4272 N.ar    1  UNL1       -0.2266
     10 C          -2.1655    2.4240    1.1345 C.ar    1  UNL1        0.1197
     11 N          -3.2596    1.6282    1.1481 N.ar    1  UNL1       -0.2145
     12 C          -3.2863    0.4722    0.4258 C.ar    1  UNL1        0.1817
     13 C          -2.1149    0.2132   -0.2943 C.ar    1  UNL1        0.1177
     14 N          -2.3817   -0.9428   -0.9140 N.ar    1  UNL1       -0.3410
     15 C          -3.6004   -1.4182   -0.6446 C.ar    1  UNL1        0.0963
     16 N          -4.1564   -0.5090    0.2049 N.ar    1  UNL1       -0.2165
     17 N           1.1030   -2.7206   -0.2773 N.pl3   1  UNL1        0.1034
     18 O          -0.0349   -3.3539   -0.6381 O.co2   1  UNL1       -0.5746
     19 O           1.2737   -3.9436   -0.4268 O.2     1  UNL1        0.0432
     20 H           3.7700    2.1530    0.3726 H       1  UNL1        0.0456
     21 H           1.9991    2.4703    0.5465 H       1  UNL1        0.0456
     22 H           2.7444    2.1645   -1.0768 H       1  UNL1        0.0456
     23 H           4.3064   -0.1323    1.4445 H       1  UNL1        0.1031
     24 H          -2.0557    3.3541    1.6744 H       1  UNL1        0.1048
     25 H          -1.7542   -1.4605   -1.5493 H       1  UNL1        0.1669
     26 H          -4.0664   -2.3322   -1.0141 H       1  UNL1        0.1027
@<TRIPOS>UNITY_ATOM_ATTR
17 1
charge 1
18 1
charge -1
@<TRIPOS>BOND
     1     1     2    1
     2     2     3   ar
     3     3     4   ar
     4     4     5   ar
     5     5     6   ar
     6     6     7    1
     7     7     8    1
     8     8     9   ar
     9     9    10   ar
    10    10    11   ar
    11    11    12   ar
    12    12    13   ar
    13    13    14   ar
    14    14    15   ar
    15    15    16   ar
    16     5    17    1
    17    17    18    1
    18    17    19    2
    19     6     2   ar
    20    13     8   ar
    21    16    12   ar
    22     1    20    1
    23     1    21    1
    24     1    22    1
    25     3    23    1
    26    10    24    1
    27    14    25    1
    28    15    26    1
