@<TRIPOS>MOLECULE
*****
 39 40 0 0 0
SMALL
GASTEIGER

@<TRIPOS>ATOM
      1 O           4.3430    2.2045   -1.8417 O.2     1  UNL1       -0.2510
      2 C           4.3292    1.3485   -0.8991 C.2     1  UNL1        0.3047
      3 O           5.3077    0.3717   -0.9433 O.3     1  UNL1       -0.4806
      4 C           3.3113    1.4413    0.1483 C.3     1  UNL1        0.0449
      5 C           3.4029    0.2933    1.1174 C.3     1  UNL1       -0.0398
      6 C           3.1999   -1.0602    0.4850 C.3     1  UNL1       -0.0156
      7 C           1.8737   -1.2289   -0.1899 C.3     1  UNL1        0.1179
      8 O           0.7628   -1.0693    0.6867 O.2     1  UNL1       -0.3932
      9 N          -0.4279   -1.4411    0.2894 N.2     1  UNL1       -0.0824
     10 C          -1.5296   -0.8114    0.2697 C.2     1  UNL1        0.1365
     11 C          -1.6128    0.5486    0.7373 C.ar    1  UNL1        0.0057
     12 C          -0.5315    1.2355    1.2296 C.ar    1  UNL1       -0.0524
     13 C          -0.6288    2.5700    1.6825 C.ar    1  UNL1       -0.0611
     14 C          -1.8236    3.2357    1.6460 C.ar    1  UNL1       -0.0617
     15 C          -2.9121    2.5761    1.1619 C.ar    1  UNL1       -0.0611
     16 C          -2.8000    1.2478    0.7145 C.ar    1  UNL1       -0.0524
     17 C          -2.6804   -1.5808   -0.2587 C.ar    1  UNL1        0.1109
     18 C          -2.4965   -2.9028   -0.6895 C.ar    1  UNL1        0.0551
     19 N          -3.5266   -3.6193   -1.1710 N.ar    1  UNL1       -0.2596
     20 C          -4.7668   -3.1159   -1.2639 C.ar    1  UNL1        0.0457
     21 C          -4.9551   -1.8167   -0.8422 C.ar    1  UNL1        0.0464
     22 N          -3.9119   -1.1177   -0.3640 N.ar    1  UNL1       -0.2503
     23 H           6.1164    0.4338   -1.5647 H       1  UNL1        0.2951
     24 H           2.2941    1.5253   -0.3016 H       1  UNL1        0.0377
     25 H           3.4880    2.3674    0.7692 H       1  UNL1        0.0377
     26 H           2.6687    0.3803    1.9463 H       1  UNL1        0.0271
     27 H           4.4442    0.3187    1.5184 H       1  UNL1        0.0271
     28 H           4.0070   -1.3711   -0.1988 H       1  UNL1        0.0299
     29 H           3.2810   -1.7946    1.3443 H       1  UNL1        0.0299
     30 H           1.7295   -0.4886   -0.9985 H       1  UNL1        0.0723
     31 H           1.8434   -2.2240   -0.6671 H       1  UNL1        0.0723
     32 H           0.4264    0.7866    1.2902 H       1  UNL1        0.0624
     33 H           0.2342    3.0677    2.0570 H       1  UNL1        0.0618
     34 H          -1.8782    4.2632    1.9995 H       1  UNL1        0.0618
     35 H          -3.8591    3.0723    1.1216 H       1  UNL1        0.0618
     36 H          -3.7048    0.8013    0.3477 H       1  UNL1        0.0624
     37 H          -1.5027   -3.3156   -0.6183 H       1  UNL1        0.0852
     38 H          -5.5666   -3.7283   -1.6576 H       1  UNL1        0.0845
     39 H          -5.9485   -1.4032   -0.9129 H       1  UNL1        0.0845
@<TRIPOS>BOND
     1     1     2    2
     2     2     3    1
     3     2     4    1
     4     4     5    1
     5     5     6    1
     6     6     7    1
     7     7     8    1
     8     8     9    1
     9     9    10    2
    10    10    11    1
    11    11    12   ar
    12    12    13   ar
    13    13    14   ar
    14    14    15   ar
    15    15    16   ar
    16    10    17    1
    17    17    18   ar
    18    18    19   ar
    19    19    20   ar
    20    20    21   ar
    21    21    22   ar
    22    16    11   ar
    23    22    17   ar
    24     3    23    1
    25     4    24    1
    26     4    25    1
    27     5    26    1
    28     5    27    1
    29     6    28    1
    30     6    29    1
    31     7    30    1
    32     7    31    1
    33    12    32    1
    34    13    33    1
    35    14    34    1
    36    15    35    1
    37    16    36    1
    38    18    37    1
    39    20    38    1
    40    21    39    1
