
     RDKit          3D

 39 40  0  0  0  0  0  0  0  0999 V2000
    4.3430    2.2045   -1.8417 O   0  0  0  0  0  0  0  0  0  0  0  0
    4.3292    1.3485   -0.8991 C   0  0  0  0  0  0  0  0  0  0  0  0
    5.3077    0.3717   -0.9433 O   0  0  0  0  0  0  0  0  0  0  0  0
    3.3113    1.4413    0.1483 C   0  0  0  0  0  0  0  0  0  0  0  0
    3.4029    0.2933    1.1174 C   0  0  0  0  0  0  0  0  0  0  0  0
    3.1999   -1.0602    0.4850 C   0  0  0  0  0  0  0  0  0  0  0  0
    1.8737   -1.2289   -0.1899 C   0  0  0  0  0  0  0  0  0  0  0  0
    0.7628   -1.0693    0.6867 O   0  0  0  0  0  0  0  0  0  0  0  0
   -0.4279   -1.4411    0.2894 N   0  0  0  0  0  0  0  0  0  0  0  0
   -1.5296   -0.8114    0.2697 C   0  0  0  0  0  0  0  0  0  0  0  0
   -1.6128    0.5486    0.7373 C   0  0  0  0  0  0  0  0  0  0  0  0
   -0.5315    1.2355    1.2296 C   0  0  0  0  0  0  0  0  0  0  0  0
   -0.6288    2.5700    1.6825 C   0  0  0  0  0  0  0  0  0  0  0  0
   -1.8236    3.2357    1.6460 C   0  0  0  0  0  0  0  0  0  0  0  0
   -2.9121    2.5761    1.1619 C   0  0  0  0  0  0  0  0  0  0  0  0
   -2.8000    1.2478    0.7145 C   0  0  0  0  0  0  0  0  0  0  0  0
   -2.6804   -1.5808   -0.2587 C   0  0  0  0  0  0  0  0  0  0  0  0
   -2.4965   -2.9028   -0.6895 C   0  0  0  0  0  0  0  0  0  0  0  0
   -3.5266   -3.6193   -1.1710 N   0  0  0  0  0  0  0  0  0  0  0  0
   -4.7668   -3.1159   -1.2639 C   0  0  0  0  0  0  0  0  0  0  0  0
   -4.9551   -1.8167   -0.8422 C   0  0  0  0  0  0  0  0  0  0  0  0
   -3.9119   -1.1177   -0.3640 N   0  0  0  0  0  0  0  0  0  0  0  0
    6.1164    0.4338   -1.5647 H   0  0  0  0  0  0  0  0  0  0  0  0
    2.2941    1.5253   -0.3016 H   0  0  0  0  0  0  0  0  0  0  0  0
    3.4880    2.3674    0.7692 H   0  0  0  0  0  0  0  0  0  0  0  0
    2.6687    0.3803    1.9463 H   0  0  0  0  0  0  0  0  0  0  0  0
    4.4442    0.3187    1.5184 H   0  0  0  0  0  0  0  0  0  0  0  0
    4.0070   -1.3711   -0.1988 H   0  0  0  0  0  0  0  0  0  0  0  0
    3.2810   -1.7946    1.3443 H   0  0  0  0  0  0  0  0  0  0  0  0
    1.7295   -0.4886   -0.9985 H   0  0  0  0  0  0  0  0  0  0  0  0
    1.8434   -2.2240   -0.6671 H   0  0  0  0  0  0  0  0  0  0  0  0
    0.4264    0.7866    1.2902 H   0  0  0  0  0  0  0  0  0  0  0  0
    0.2342    3.0677    2.0570 H   0  0  0  0  0  0  0  0  0  0  0  0
   -1.8782    4.2632    1.9995 H   0  0  0  0  0  0  0  0  0  0  0  0
   -3.8591    3.0723    1.1216 H   0  0  0  0  0  0  0  0  0  0  0  0
   -3.7048    0.8013    0.3477 H   0  0  0  0  0  0  0  0  0  0  0  0
   -1.5027   -3.3156   -0.6183 H   0  0  0  0  0  0  0  0  0  0  0  0
   -5.5666   -3.7283   -1.6576 H   0  0  0  0  0  0  0  0  0  0  0  0
   -5.9485   -1.4032   -0.9129 H   0  0  0  0  0  0  0  0  0  0  0  0
  1  2  2  0
  2  3  1  0
  2  4  1  0
  4  5  1  0
  5  6  1  0
  6  7  1  0
  7  8  1  0
  8  9  1  0
  9 10  2  0
 10 11  1  0
 11 12  2  0
 12 13  1  0
 13 14  2  0
 14 15  1  0
 15 16  2  0
 10 17  1  0
 17 18  2  0
 18 19  1  0
 19 20  2  0
 20 21  1  0
 21 22  2  0
 16 11  1  0
 22 17  1  0
  3 23  1  0
  4 24  1  0
  4 25  1  0
  5 26  1  0
  5 27  1  0
  6 28  1  0
  6 29  1  0
  7 30  1  0
  7 31  1  0
 12 32  1  0
 13 33  1  0
 14 34  1  0
 15 35  1  0
 16 36  1  0
 18 37  1  0
 20 38  1  0
 21 39  1  0
M  END
$$$$
