@<TRIPOS>MOLECULE
*****
 41 42 0 0 0
SMALL
GASTEIGER

@<TRIPOS>ATOM
      1 C           3.4383    1.4313   -3.1723 C.3     1  UNL1        0.0790
      2 O           3.0753    1.0515   -2.0028 O.3     1  UNL1       -0.4913
      3 C           2.4977    0.8507   -0.8352 C.ar    1  UNL1        0.1655
      4 C           1.3502    1.5211   -0.3887 C.ar    1  UNL1       -0.0120
      5 C           0.7990    1.2206    0.8531 C.ar    1  UNL1       -0.0285
      6 C          -0.4188    1.9121    1.3577 C.3     1  UNL1        0.0348
      7 C          -1.5629    1.4054    0.7543 C.1     1  UNL1       -0.0921
      8 C          -2.5747    0.9544    0.2320 C.1     1  UNL1       -0.0610
      9 C          -3.8093    0.3940   -0.3971 C.ar    1  UNL1        0.0826
     10 C          -4.6516    1.1180   -1.0983 C.ar    1  UNL1        0.0499
     11 N          -5.8685    0.5822   -1.4859 N.ar    1  UNL1       -0.2218
     12 C          -6.2111   -0.6944   -1.1459 C.ar    1  UNL1        0.2143
     13 N          -7.5135   -1.2260   -1.5017 N.pl3   1  UNL1       -0.3274
     14 N          -5.3335   -1.3840   -0.4493 N.ar    1  UNL1       -0.1989
     15 C          -4.1507   -0.9422   -0.0471 C.ar    1  UNL1        0.1368
     16 N          -3.2340   -1.7290    0.6642 N.pl3   1  UNL1       -0.3420
     17 C           1.4281    0.2444    1.6206 C.ar    1  UNL1       -0.0120
     18 C           2.5558   -0.4352    1.2305 C.ar    1  UNL1        0.1655
     19 O           3.1918   -1.3863    1.9737 O.3     1  UNL1       -0.4913
     20 C           2.7564   -1.7601    3.2485 C.3     1  UNL1        0.0790
     21 C           3.0806   -0.1078   -0.0247 C.ar    1  UNL1        0.2035
     22 O           4.2317   -0.7861   -0.4652 O.3     1  UNL1       -0.4885
     23 C           5.5089   -0.2408   -0.3423 C.3     1  UNL1        0.0791
     24 H           4.5040    1.1314   -3.5134 H       1  UNL1        0.0660
     25 H           2.8278    1.0213   -4.0599 H       1  UNL1        0.0660
     26 H           3.4491    2.5493   -3.3536 H       1  UNL1        0.0660
     27 H           0.9419    2.2761   -1.0327 H       1  UNL1        0.0658
     28 H          -0.2399    3.0174    1.2006 H       1  UNL1        0.0446
     29 H          -0.3741    1.7675    2.4823 H       1  UNL1        0.0446
     30 H          -4.4233    2.1419   -1.3730 H       1  UNL1        0.0844
     31 H          -8.3208   -0.6453   -1.7482 H       1  UNL1        0.1452
     32 H          -7.5704   -2.2582   -1.4692 H       1  UNL1        0.1452
     33 H          -3.2098   -1.7190    1.7087 H       1  UNL1        0.1437
     34 H          -2.5493   -2.3421    0.1501 H       1  UNL1        0.1437
     35 H           0.9628    0.0322    2.5723 H       1  UNL1        0.0658
     36 H           2.4138   -0.8038    3.7280 H       1  UNL1        0.0660
     37 H           3.5346   -2.2434    3.8859 H       1  UNL1        0.0660
     38 H           1.9384   -2.5000    3.2031 H       1  UNL1        0.0660
     39 H           6.1355   -0.4629   -1.2486 H       1  UNL1        0.0660
     40 H           5.4292    0.9020   -0.3201 H       1  UNL1        0.0660
     41 H           5.9653   -0.5141    0.6098 H       1  UNL1        0.0660
@<TRIPOS>BOND
     1     1     2    1
     2     2     3    1
     3     3     4   ar
     4     4     5   ar
     5     5     6    1
     6     6     7    1
     7     7     8    3
     8     8     9    1
     9     9    10   ar
    10    10    11   ar
    11    11    12   ar
    12    12    13    1
    13    12    14   ar
    14    14    15   ar
    15    15    16    1
    16     5    17   ar
    17    17    18   ar
    18    18    19    1
    19    19    20    1
    20    18    21   ar
    21    21    22    1
    22    22    23    1
    23    21     3   ar
    24    15     9   ar
    25     1    24    1
    26     1    25    1
    27     1    26    1
    28     4    27    1
    29     6    28    1
    30     6    29    1
    31    10    30    1
    32    13    31    1
    33    13    32    1
    34    16    33    1
    35    16    34    1
    36    17    35    1
    37    20    36    1
    38    20    37    1
    39    20    38    1
    40    23    39    1
    41    23    40    1
    42    23    41    1
