
     RDKit          3D

 41 42  0  0  0  0  0  0  0  0999 V2000
    3.4383    1.4313   -3.1723 C   0  0  0  0  0  0  0  0  0  0  0  0
    3.0753    1.0515   -2.0028 O   0  0  0  0  0  0  0  0  0  0  0  0
    2.4977    0.8507   -0.8352 C   0  0  0  0  0  0  0  0  0  0  0  0
    1.3502    1.5211   -0.3887 C   0  0  0  0  0  0  0  0  0  0  0  0
    0.7990    1.2206    0.8531 C   0  0  0  0  0  0  0  0  0  0  0  0
   -0.4188    1.9121    1.3577 C   0  0  0  0  0  0  0  0  0  0  0  0
   -1.5629    1.4054    0.7543 C   0  0  0  0  0  0  0  0  0  0  0  0
   -2.5747    0.9544    0.2320 C   0  0  0  0  0  0  0  0  0  0  0  0
   -3.8093    0.3940   -0.3971 C   0  0  0  0  0  0  0  0  0  0  0  0
   -4.6516    1.1180   -1.0983 C   0  0  0  0  0  0  0  0  0  0  0  0
   -5.8685    0.5822   -1.4859 N   0  0  0  0  0  0  0  0  0  0  0  0
   -6.2111   -0.6944   -1.1459 C   0  0  0  0  0  0  0  0  0  0  0  0
   -7.5135   -1.2260   -1.5017 N   0  0  0  0  0  0  0  0  0  0  0  0
   -5.3335   -1.3840   -0.4493 N   0  0  0  0  0  0  0  0  0  0  0  0
   -4.1507   -0.9422   -0.0471 C   0  0  0  0  0  0  0  0  0  0  0  0
   -3.2340   -1.7290    0.6642 N   0  0  0  0  0  0  0  0  0  0  0  0
    1.4281    0.2444    1.6206 C   0  0  0  0  0  0  0  0  0  0  0  0
    2.5558   -0.4352    1.2305 C   0  0  0  0  0  0  0  0  0  0  0  0
    3.1918   -1.3863    1.9737 O   0  0  0  0  0  0  0  0  0  0  0  0
    2.7564   -1.7601    3.2485 C   0  0  0  0  0  0  0  0  0  0  0  0
    3.0806   -0.1078   -0.0247 C   0  0  0  0  0  0  0  0  0  0  0  0
    4.2317   -0.7861   -0.4652 O   0  0  0  0  0  0  0  0  0  0  0  0
    5.5089   -0.2408   -0.3423 C   0  0  0  0  0  0  0  0  0  0  0  0
    4.5040    1.1314   -3.5134 H   0  0  0  0  0  0  0  0  0  0  0  0
    2.8278    1.0213   -4.0599 H   0  0  0  0  0  0  0  0  0  0  0  0
    3.4491    2.5493   -3.3536 H   0  0  0  0  0  0  0  0  0  0  0  0
    0.9419    2.2761   -1.0327 H   0  0  0  0  0  0  0  0  0  0  0  0
   -0.2399    3.0174    1.2006 H   0  0  0  0  0  0  0  0  0  0  0  0
   -0.3741    1.7675    2.4823 H   0  0  0  0  0  0  0  0  0  0  0  0
   -4.4233    2.1419   -1.3730 H   0  0  0  0  0  0  0  0  0  0  0  0
   -8.3208   -0.6453   -1.7482 H   0  0  0  0  0  0  0  0  0  0  0  0
   -7.5704   -2.2582   -1.4692 H   0  0  0  0  0  0  0  0  0  0  0  0
   -3.2098   -1.7190    1.7087 H   0  0  0  0  0  0  0  0  0  0  0  0
   -2.5493   -2.3421    0.1501 H   0  0  0  0  0  0  0  0  0  0  0  0
    0.9628    0.0322    2.5723 H   0  0  0  0  0  0  0  0  0  0  0  0
    2.4138   -0.8038    3.7280 H   0  0  0  0  0  0  0  0  0  0  0  0
    3.5346   -2.2434    3.8859 H   0  0  0  0  0  0  0  0  0  0  0  0
    1.9384   -2.5000    3.2031 H   0  0  0  0  0  0  0  0  0  0  0  0
    6.1355   -0.4629   -1.2486 H   0  0  0  0  0  0  0  0  0  0  0  0
    5.4292    0.9020   -0.3201 H   0  0  0  0  0  0  0  0  0  0  0  0
    5.9653   -0.5141    0.6098 H   0  0  0  0  0  0  0  0  0  0  0  0
  1  2  1  0
  2  3  1  0
  3  4  2  0
  4  5  1  0
  5  6  1  0
  6  7  1  0
  7  8  3  0
  8  9  1  0
  9 10  2  0
 10 11  1  0
 11 12  2  0
 12 13  1  0
 12 14  1  0
 14 15  2  0
 15 16  1  0
  5 17  2  0
 17 18  1  0
 18 19  1  0
 19 20  1  0
 18 21  2  0
 21 22  1  0
 22 23  1  0
 21  3  1  0
 15  9  1  0
  1 24  1  0
  1 25  1  0
  1 26  1  0
  4 27  1  0
  6 28  1  0
  6 29  1  0
 10 30  1  0
 13 31  1  0
 13 32  1  0
 16 33  1  0
 16 34  1  0
 17 35  1  0
 20 36  1  0
 20 37  1  0
 20 38  1  0
 23 39  1  0
 23 40  1  0
 23 41  1  0
M  END
$$$$
