@<TRIPOS>MOLECULE
*****
 51 53 0 0 0
SMALL
GASTEIGER

@<TRIPOS>ATOM
      1 C          -0.9604   -3.4240    1.1544 C.3     1  UNL1       -0.0375
      2 C           0.2998   -2.7001    0.8589 C.ar    1  UNL1       -0.0199
      3 C           1.4837   -3.4361    0.8126 C.ar    1  UNL1       -0.0546
      4 C           2.6837   -2.7905    0.5924 C.ar    1  UNL1       -0.0354
      5 C           2.7359   -1.4291    0.4169 C.ar    1  UNL1        0.0719
      6 C           4.0115   -0.7071    0.1789 C.ar    1  UNL1        0.0007
      7 C           5.2184   -1.3547    0.1199 C.ar    1  UNL1       -0.0525
      8 C           6.3971   -0.6363   -0.1065 C.ar    1  UNL1       -0.0608
      9 C           6.3266    0.7295   -0.2689 C.ar    1  UNL1       -0.0564
     10 C           5.1286    1.4134   -0.2154 C.ar    1  UNL1       -0.0216
     11 C           5.0822    2.8880   -0.3942 C.3     1  UNL1        0.0693
     12 O           5.2203    3.4693    0.8603 O.3     1  UNL1       -0.3904
     13 C           4.0063    0.6617    0.0085 C.ar    1  UNL1       -0.0472
     14 N           1.5860   -0.7606    0.4667 N.ar    1  UNL1       -0.2418
     15 C           0.3506   -1.3517    0.6832 C.ar    1  UNL1        0.1292
     16 C          -0.8153   -0.4942    0.6457 C.2     1  UNL1        0.2669
     17 O          -0.5967    0.7531    0.9289 O.2     1  UNL1       -0.2682
     18 N          -2.1333   -0.8341    0.3405 N.am    1  UNL1       -0.2798
     19 C          -3.2109    0.1152    0.3470 C.ar    1  UNL1        0.0403
     20 C          -3.9180    0.3201    1.5024 C.ar    1  UNL1       -0.0289
     21 C          -3.6454   -0.3814    2.7710 C.3     1  UNL1       -0.0379
     22 C          -4.9699    1.2458    1.5126 C.ar    1  UNL1       -0.0563
     23 C          -5.3088    1.9523    0.3925 C.ar    1  UNL1       -0.0472
     24 C          -4.5918    1.7400   -0.7663 C.ar    1  UNL1        0.0635
     25 C          -4.9735    2.5027   -1.9361 C.2     1  UNL1        0.3371
     26 O          -4.3570    2.3488   -3.0105 O.2     1  UNL1       -0.2451
     27 O          -6.0080    3.4150   -1.9313 O.3     1  UNL1       -0.4771
     28 C          -3.5537    0.8285   -0.7821 C.ar    1  UNL1       -0.0150
     29 C          -2.7796    0.6080   -2.0579 C.3     1  UNL1       -0.0372
     30 H          -1.6162   -2.9230    1.8708 H       1  UNL1        0.0278
     31 H          -0.6881   -4.3920    1.7346 H       1  UNL1        0.0278
     32 H          -1.4455   -3.8547    0.2559 H       1  UNL1        0.0278
     33 H           1.3984   -4.4954    0.9543 H       1  UNL1        0.0622
     34 H           3.5826   -3.3730    0.5601 H       1  UNL1        0.0639
     35 H           5.3018   -2.4251    0.2439 H       1  UNL1        0.0624
     36 H           7.3545   -1.1282   -0.1560 H       1  UNL1        0.0618
     37 H           7.2227    1.3365   -0.4485 H       1  UNL1        0.0621
     38 H           4.1075    3.1310   -0.8587 H       1  UNL1        0.0607
     39 H           5.9447    3.2191   -1.0032 H       1  UNL1        0.0607
     40 H           6.0905    3.1225    1.2299 H       1  UNL1        0.2098
     41 H           3.0531    1.1834    0.0538 H       1  UNL1        0.0628
     42 H          -2.3879   -1.7935    0.0637 H       1  UNL1        0.1552
     43 H          -4.5705   -0.4244    3.3830 H       1  UNL1        0.0278
     44 H          -3.3047   -1.4112    2.6440 H       1  UNL1        0.0278
     45 H          -2.9243    0.2320    3.3877 H       1  UNL1        0.0278
     46 H          -5.5326    1.4141    2.4171 H       1  UNL1        0.0621
     47 H          -6.1117    2.6580    0.4029 H       1  UNL1        0.0626
     48 H          -6.4262    3.6866   -2.8113 H       1  UNL1        0.2954
     49 H          -2.2837    1.5278   -2.4069 H       1  UNL1        0.0278
     50 H          -3.4438    0.2343   -2.8378 H       1  UNL1        0.0278
     51 H          -2.0290   -0.2161   -1.8984 H       1  UNL1        0.0278
@<TRIPOS>BOND
     1     1     2    1
     2     2     3   ar
     3     3     4   ar
     4     4     5   ar
     5     5     6    1
     6     6     7   ar
     7     7     8   ar
     8     8     9   ar
     9     9    10   ar
    10    10    11    1
    11    11    12    1
    12    10    13   ar
    13     5    14   ar
    14    14    15   ar
    15    15    16    1
    16    16    17    2
    17    16    18   am
    18    18    19    1
    19    19    20   ar
    20    20    21    1
    21    20    22   ar
    22    22    23   ar
    23    23    24   ar
    24    24    25    1
    25    25    26    2
    26    25    27    1
    27    24    28   ar
    28    28    29    1
    29    15     2   ar
    30    28    19   ar
    31    13     6   ar
    32     1    30    1
    33     1    31    1
    34     1    32    1
    35     3    33    1
    36     4    34    1
    37     7    35    1
    38     8    36    1
    39     9    37    1
    40    11    38    1
    41    11    39    1
    42    12    40    1
    43    13    41    1
    44    18    42    1
    45    21    43    1
    46    21    44    1
    47    21    45    1
    48    22    46    1
    49    23    47    1
    50    27    48    1
    51    29    49    1
    52    29    50    1
    53    29    51    1
