@<TRIPOS>MOLECULE
*****
 60 63 0 0 0
SMALL
GASTEIGER

@<TRIPOS>ATOM
      1 C           0.4223    1.9550    1.9415 C.3     1  UNL1       -0.0421
      2 C           0.8338    1.8143    0.4574 C.3     1  UNL1        0.0515
      3 C           2.1431    1.1401    0.3599 C.ar    1  UNL1       -0.0271
      4 C           2.4424   -0.1073    0.8539 C.ar    1  UNL1       -0.0562
      5 C           3.6862   -0.6946    0.7125 C.ar    1  UNL1       -0.0536
      6 C           4.7156   -0.0526    0.0578 C.ar    1  UNL1       -0.0151
      7 C           6.0267   -0.6730   -0.0882 C.ar    1  UNL1        0.0175
      8 C           6.6581   -0.6400   -1.3139 C.ar    1  UNL1       -0.0486
      9 C           7.8981   -1.2094   -1.5191 C.ar    1  UNL1       -0.0257
     10 C           8.5466   -1.8359   -0.4859 C.ar    1  UNL1        0.1262
     11 F           9.7635   -2.4152   -0.6161 F       1  UNL1       -0.2054
     12 C           7.9483   -1.8906    0.7566 C.ar    1  UNL1        0.0094
     13 C           6.6950   -1.3070    0.9362 C.ar    1  UNL1        0.1338
     14 F           6.1413   -1.3755    2.1473 F       1  UNL1       -0.2048
     15 C           4.4317    1.2020   -0.4441 C.ar    1  UNL1       -0.0536
     16 C           3.1952    1.7889   -0.3053 C.ar    1  UNL1       -0.0562
     17 N          -0.2642    1.0878   -0.1515 N.am    1  UNL1       -0.2605
     18 C          -0.6047   -0.2803    0.1040 C.3     1  UNL1        0.0224
     19 C          -1.9152   -0.6006   -0.5823 C.3     1  UNL1        0.0075
     20 C          -2.9794    0.4298   -0.4122 C.3     1  UNL1        0.1418
     21 C          -3.2274    0.8744    0.9627 C.3     1  UNL1       -0.0002
     22 C          -3.5901   -0.0568    2.0245 C.3     1  UNL1        0.0277
     23 C          -4.8286   -0.8301    1.8859 C.2     1  UNL1        0.2106
     24 N          -5.1350   -1.9026    2.8082 N.am    1  UNL1       -0.3293
     25 O          -5.7052   -0.6597    1.0117 O.2     1  UNL1       -0.2760
     26 C          -4.1507    0.1096   -1.2412 C.ar    1  UNL1       -0.0039
     27 C          -4.3262   -1.0982   -1.8750 C.ar    1  UNL1       -0.0521
     28 C          -5.4191   -1.3446   -2.6864 C.ar    1  UNL1       -0.0261
     29 C          -6.3803   -0.3972   -2.8985 C.ar    1  UNL1        0.1234
     30 F          -7.4735   -0.5688   -3.6780 F       1  UNL1       -0.2055
     31 C          -6.2390    0.8243   -2.2808 C.ar    1  UNL1       -0.0261
     32 C          -5.1552    1.0647   -1.4777 C.ar    1  UNL1       -0.0521
     33 O          -2.4142    1.5991   -1.1170 O.3     1  UNL1       -0.4388
     34 C          -1.0447    1.8196   -1.0843 C.2     1  UNL1        0.4042
     35 O          -0.5329    2.6607   -1.8801 O.2     1  UNL1       -0.2262
     36 H           1.3458    2.3664    2.4390 H       1  UNL1        0.0251
     37 H           0.2560    0.9643    2.4063 H       1  UNL1        0.0251
     38 H          -0.3925    2.6693    2.0565 H       1  UNL1        0.0251
     39 H           0.9381    2.8491    0.1130 H       1  UNL1        0.0549
     40 H           1.6673   -0.6544    1.3965 H       1  UNL1        0.0621
     41 H           3.9043   -1.6851    1.1110 H       1  UNL1        0.0624
     42 H           6.1725   -0.1474   -2.1689 H       1  UNL1        0.0625
     43 H           8.3800   -1.1765   -2.4824 H       1  UNL1        0.0646
     44 H           8.4630   -2.3879    1.5772 H       1  UNL1        0.0675
     45 H           5.2438    1.7132   -0.9625 H       1  UNL1        0.0624
     46 H           2.9838    2.7843   -0.7083 H       1  UNL1        0.0621
     47 H           0.1492   -0.9885   -0.3307 H       1  UNL1        0.0467
     48 H          -0.6843   -0.3884    1.2098 H       1  UNL1        0.0467
     49 H          -1.6723   -0.6529   -1.6758 H       1  UNL1        0.0322
     50 H          -2.2589   -1.6309   -0.3239 H       1  UNL1        0.0322
     51 H          -2.3683    1.5442    1.2989 H       1  UNL1        0.0312
     52 H          -4.0723    1.6424    0.9045 H       1  UNL1        0.0312
     53 H          -2.7505   -0.7215    2.3715 H       1  UNL1        0.0360
     54 H          -3.7602    0.5732    2.9672 H       1  UNL1        0.0360
     55 H          -6.0547   -1.8719    3.2698 H       1  UNL1        0.1449
     56 H          -4.4751   -2.6635    3.0015 H       1  UNL1        0.1449
     57 H          -3.6157   -1.8881   -1.7591 H       1  UNL1        0.0622
     58 H          -5.5447   -2.2987   -3.1791 H       1  UNL1        0.0646
     59 H          -6.9963    1.6050   -2.4323 H       1  UNL1        0.0646
     60 H          -5.0204    2.0139   -0.9818 H       1  UNL1        0.0622
@<TRIPOS>BOND
     1     1     2    1
     2     2     3    1
     3     3     4   ar
     4     4     5   ar
     5     5     6   ar
     6     6     7    1
     7     7     8   ar
     8     8     9   ar
     9     9    10   ar
    10    10    11    1
    11    10    12   ar
    12    12    13   ar
    13    13    14    1
    14     6    15   ar
    15    15    16   ar
    16     2    17    1
    17    17    18    1
    18    18    19    1
    19    19    20    1
    20    20    21    1
    21    21    22    1
    22    22    23    1
    23    23    24   am
    24    23    25    2
    25    20    26    1
    26    26    27   ar
    27    27    28   ar
    28    28    29   ar
    29    29    30    1
    30    29    31   ar
    31    31    32   ar
    32    20    33    1
    33    33    34    1
    34    34    35    2
    35    16     3   ar
    36    34    17   am
    37    13     7   ar
    38    32    26   ar
    39     1    36    1
    40     1    37    1
    41     1    38    1
    42     2    39    1
    43     4    40    1
    44     5    41    1
    45     8    42    1
    46     9    43    1
    47    12    44    1
    48    15    45    1
    49    16    46    1
    50    18    47    1
    51    18    48    1
    52    19    49    1
    53    19    50    1
    54    21    51    1
    55    21    52    1
    56    22    53    1
    57    22    54    1
    58    24    55    1
    59    24    56    1
    60    27    57    1
    61    28    58    1
    62    31    59    1
    63    32    60    1
