@<TRIPOS>MOLECULE
*****
 100 106 0 0 0
SMALL
GASTEIGER

@<TRIPOS>ATOM
      1 C         -11.5868    5.4555    0.2258 C.2     1  UNL1       -0.0937
      2 C         -11.9675    4.2921   -0.2340 C.2     1  UNL1       -0.0303
      3 C         -13.2204    4.0494   -0.8702 C.3     1  UNL1       -0.0382
      4 C         -10.9357    3.2046   -0.1882 C.ar    1  UNL1        0.0902
      5 C          -9.5418    3.5933   -0.1624 C.ar    1  UNL1        0.0059
      6 C          -8.7574    2.4296   -0.2079 C.ar    1  UNL1        0.1303
      7 N          -7.4045    2.4398   -0.4233 N.am    1  UNL1       -0.2538
      8 C          -6.3321    1.6162   -0.1459 C.2     1  UNL1        0.3092
      9 O          -6.4942    0.6754    0.6391 O.2     1  UNL1       -0.2521
     10 N          -5.0202    1.7941   -0.7553 N.am    1  UNL1       -0.2686
     11 C          -3.9632    0.8860   -0.5282 C.ar    1  UNL1        0.0427
     12 C          -3.9164   -0.3146   -1.1731 C.ar    1  UNL1       -0.0363
     13 C          -2.9485   -1.2520   -0.8618 C.ar    1  UNL1       -0.0169
     14 C          -1.9876   -1.0131    0.1530 C.ar    1  UNL1        0.1381
     15 O          -1.1099   -1.9961    0.3646 O.3     1  UNL1       -0.4373
     16 C           0.1801   -2.2400    0.4346 C.ar    1  UNL1        0.2249
     17 C           0.4219   -3.7351    0.5241 C.ar    1  UNL1        0.0186
     18 C           1.6747   -4.2212    0.5977 C.ar    1  UNL1        0.0362
     19 N           2.7515   -3.4409    0.5934 N.ar    1  UNL1       -0.2225
     20 C           2.5327   -2.0456    0.5082 C.ar    1  UNL1        0.2226
     21 N           3.6994   -1.2746    0.5304 N.pl3   1  UNL1       -0.2834
     22 C           4.9163   -1.5775   -0.1509 C.ar    1  UNL1        0.0378
     23 C           5.0220   -2.4663   -1.1758 C.ar    1  UNL1        0.0013
     24 C           6.2033   -2.7209   -1.9162 C.ar    1  UNL1        0.1226
     25 O           6.3823   -3.5396   -2.8947 O.3     1  UNL1       -0.4950
     26 C           5.8838   -4.4521   -3.7220 C.3     1  UNL1        0.0788
     27 C           7.3289   -1.9442   -1.4689 C.ar    1  UNL1       -0.0077
     28 C           7.2557   -1.0783   -0.4742 C.ar    1  UNL1        0.0419
     29 C           8.4173   -0.2397   -0.0801 C.2     1  UNL1        0.2443
     30 O           9.2699    0.0780   -0.9708 O.2     1  UNL1       -0.2702
     31 N           8.5542    0.1752    1.2215 N.am    1  UNL1       -0.3101
     32 C           9.4979    1.0142    1.8761 C.3     1  UNL1        0.0247
     33 C          10.9487    0.5980    1.7762 C.3     1  UNL1        0.0146
     34 N          11.3232    0.7950    0.3874 N.3     1  UNL1       -0.2965
     35 C          12.6389    0.2474    0.0941 C.3     1  UNL1        0.0225
     36 C          12.8489    0.5057   -1.3928 C.3     1  UNL1        0.0604
     37 O          13.0222    1.8510   -1.6133 O.3     1  UNL1       -0.3772
     38 C          12.5740    2.6758   -0.6241 C.3     1  UNL1        0.0604
     39 C          11.3513    2.2406    0.0941 C.3     1  UNL1        0.0225
     40 C           6.0535   -0.8845    0.1921 C.ar    1  UNL1       -0.0281
     41 N           1.3115   -1.6723    0.4407 N.ar    1  UNL1       -0.1789
     42 C          -2.0534    0.2003    0.8108 C.ar    1  UNL1        0.0262
     43 C          -1.0364    0.5376    1.7077 C.ar    1  UNL1       -0.0505
     44 C          -1.0496    1.7655    2.1955 C.ar    1  UNL1       -0.0611
     45 C          -1.9987    2.7720    1.9226 C.ar    1  UNL1       -0.0611
     46 C          -3.0057    2.4316    1.0346 C.ar    1  UNL1       -0.0521
     47 C          -3.0023    1.1188    0.4731 C.ar    1  UNL1        0.0069
     48 N          -9.7242    1.3815   -0.2283 N.ar    1  UNL1       -0.2178
     49 C          -9.3139    0.0582   -0.2613 C.ar    1  UNL1        0.0677
     50 C          -9.7567   -0.8930    0.6522 C.ar    1  UNL1       -0.0327
     51 C          -9.4235   -2.1591    0.7141 C.ar    1  UNL1       -0.0179
     52 C          -8.4512   -2.7445   -0.2706 C.ar    1  UNL1        0.1202
     53 O          -8.1515   -4.0471   -0.1724 O.3     1  UNL1       -0.4951
     54 C          -8.8403   -4.8467    0.8142 C.3     1  UNL1        0.0788
     55 C          -8.0693   -1.7639   -1.1235 C.ar    1  UNL1       -0.0179
     56 C          -8.4068   -0.4737   -1.1946 C.ar    1  UNL1       -0.0327
     57 N         -10.8246    1.9720   -0.2255 N.ar    1  UNL1       -0.1650
     58 H         -12.8166    6.0552   -0.2423 H       1  UNL1        0.0538
     59 H         -11.3143    6.3215    0.5634 H       1  UNL1        0.0538
     60 H         -13.3117    2.9505   -1.1280 H       1  UNL1        0.0278
     61 H         -14.1109    4.2263   -0.2010 H       1  UNL1        0.0278
     62 H         -13.4415    4.5769   -1.8413 H       1  UNL1        0.0278
     63 H          -9.1762    4.5998   -0.0842 H       1  UNL1        0.0674
     64 H          -7.1080    3.2796   -1.1217 H       1  UNL1        0.1578
     65 H          -4.9398    2.6262   -1.3532 H       1  UNL1        0.1564
     66 H          -4.6738   -0.4662   -1.9386 H       1  UNL1        0.0637
     67 H          -2.9389   -2.1835   -1.4082 H       1  UNL1        0.0655
     68 H          -0.4462   -4.3341    0.5303 H       1  UNL1        0.0686
     69 H           1.8781   -5.3038    0.7360 H       1  UNL1        0.0832
     70 H           3.6843   -0.3871    1.1218 H       1  UNL1        0.1550
     71 H           4.1557   -3.0267   -1.4640 H       1  UNL1        0.0673
     72 H           6.2563   -5.5006   -3.4871 H       1  UNL1        0.0660
     73 H           6.3818   -4.1949   -4.7641 H       1  UNL1        0.0660
     74 H           4.8144   -4.4669   -3.9422 H       1  UNL1        0.0660
     75 H           8.2527   -2.1216   -2.0252 H       1  UNL1        0.0662
     76 H           7.8047   -0.2664    1.8934 H       1  UNL1        0.1490
     77 H           9.1690    1.1967    2.9208 H       1  UNL1        0.0475
     78 H           9.4156    2.0594    1.4023 H       1  UNL1        0.0475
     79 H          10.9917   -0.4960    1.9912 H       1  UNL1        0.0442
     80 H          11.5457    1.1873    2.4693 H       1  UNL1        0.0442
     81 H          13.4384    0.6595    0.6858 H       1  UNL1        0.0449
     82 H          12.6035   -0.8615    0.2533 H       1  UNL1        0.0449
     83 H          13.7222   -0.0503   -1.7872 H       1  UNL1        0.0572
     84 H          11.8865    0.1747   -1.8957 H       1  UNL1        0.0572
     85 H          12.3346    3.6719   -1.1337 H       1  UNL1        0.0572
     86 H          13.4090    2.9395    0.0751 H       1  UNL1        0.0572
     87 H          11.3547    2.7819    1.0813 H       1  UNL1        0.0449
     88 H          10.4525    2.5083   -0.4601 H       1  UNL1        0.0449
     89 H           6.0206   -0.1568    0.9649 H       1  UNL1        0.0644
     90 H          -0.3290   -0.2429    1.9677 H       1  UNL1        0.0625
     91 H          -0.2340    2.0535    2.9233 H       1  UNL1        0.0618
     92 H          -1.9300    3.7322    2.3356 H       1  UNL1        0.0618
     93 H          -3.7900    3.0845    0.7131 H       1  UNL1        0.0624
     94 H         -10.4560   -0.4766    1.4118 H       1  UNL1        0.0640
     95 H          -9.7297   -2.9151    1.4321 H       1  UNL1        0.0655
     96 H          -9.9549   -4.7441    0.5993 H       1  UNL1        0.0660
     97 H          -8.6076   -5.9037    0.7058 H       1  UNL1        0.0660
     98 H          -8.7030   -4.4848    1.8149 H       1  UNL1        0.0660
     99 H          -7.2861   -2.1583   -1.8656 H       1  UNL1        0.0655
    100 H          -8.0442    0.2388   -1.9393 H       1  UNL1        0.0640
@<TRIPOS>BOND
     1     1     2    2
     2     2     3    1
     3     2     4    1
     4     4     5   ar
     5     5     6   ar
     6     6     7    1
     7     7     8   am
     8     8     9    2
     9     8    10   am
    10    10    11    1
    11    11    12   ar
    12    12    13   ar
    13    13    14   ar
    14    14    15    1
    15    15    16    1
    16    16    17   ar
    17    17    18   ar
    18    18    19   ar
    19    19    20   ar
    20    20    21    1
    21    21    22    1
    22    22    23   ar
    23    23    24   ar
    24    24    25    1
    25    25    26    1
    26    24    27   ar
    27    27    28   ar
    28    28    29    1
    29    29    30    2
    30    29    31   am
    31    31    32    1
    32    32    33    1
    33    33    34    1
    34    34    35    1
    35    35    36    1
    36    36    37    1
    37    37    38    1
    38    38    39    1
    39    28    40   ar
    40    20    41   ar
    41    14    42   ar
    42    42    43   ar
    43    43    44   ar
    44    44    45   ar
    45    45    46   ar
    46    46    47   ar
    47     6    48   ar
    48    48    49    1
    49    49    50   ar
    50    50    51   ar
    51    51    52   ar
    52    52    53    1
    53    53    54    1
    54    52    55   ar
    55    55    56   ar
    56    48    57   ar
    57    57     4   ar
    58    47    11   ar
    59    56    49   ar
    60    41    16   ar
    61    47    42   ar
    62    40    22   ar
    63    39    34    1
    64     1    58    1
    65     1    59    1
    66     3    60    1
    67     3    61    1
    68     3    62    1
    69     5    63    1
    70     7    64    1
    71    10    65    1
    72    12    66    1
    73    13    67    1
    74    17    68    1
    75    18    69    1
    76    21    70    1
    77    23    71    1
    78    26    72    1
    79    26    73    1
    80    26    74    1
    81    27    75    1
    82    31    76    1
    83    32    77    1
    84    32    78    1
    85    33    79    1
    86    33    80    1
    87    35    81    1
    88    35    82    1
    89    36    83    1
    90    36    84    1
    91    38    85    1
    92    38    86    1
    93    39    87    1
    94    39    88    1
    95    40    89    1
    96    43    90    1
    97    44    91    1
    98    45    92    1
    99    46    93    1
   100    50    94    1
   101    51    95    1
   102    54    96    1
   103    54    97    1
   104    54    98    1
   105    55    99    1
   106    56   100    1
