
     RDKit          3D

 46 48  0  0  0  0  0  0  0  0999 V2000
   -1.0196    4.4150   -0.4279 C   0  0  0  0  0  0  0  0  0  0  0  0
   -0.4959    3.0623   -0.1873 N   0  0  0  0  0  0  0  0  0  0  0  0
    0.6346    3.0742    0.5782 C   0  0  0  0  0  0  0  0  0  0  0  0
    1.1633    4.1065    1.0245 O   0  0  0  0  0  0  0  0  0  0  0  0
    1.1757    1.8410    0.8376 C   0  0  0  0  0  0  0  0  0  0  0  0
    0.5578    0.7284    0.3244 C   0  0  0  0  0  0  0  0  0  0  0  0
    1.3172   -0.4775    0.5603 N   0  0  0  0  0  0  0  0  0  0  0  0
    1.7937   -1.3656    1.5979 C   0  0  0  0  0  0  0  0  0  0  0  0
    3.2976   -1.4128    1.6627 C   0  0  0  0  0  0  0  0  0  0  0  0
    3.9164   -1.7602    0.3276 C   0  0  0  0  0  0  0  0  0  0  0  0
    3.3340   -0.8084   -0.6717 C   0  0  1  0  0  0  0  0  0  0  0  0
    3.9117   -0.9665   -1.9910 N   0  0  0  0  0  0  0  0  0  0  0  0
    1.8300   -1.0409   -0.6952 C   0  0  0  0  0  0  0  0  0  0  0  0
   -0.5429    0.6647   -0.4210 N   0  0  0  0  0  0  0  0  0  0  0  0
   -1.3058   -0.4335   -0.9203 C   0  0  0  0  0  0  0  0  0  0  0  0
   -2.5795   -0.7382   -0.2652 C   0  0  0  0  0  0  0  0  0  0  0  0
   -3.0052   -1.3205    0.8848 C   0  0  0  0  0  0  0  0  0  0  0  0
   -4.2977   -1.5008    1.2982 C   0  0  0  0  0  0  0  0  0  0  0  0
   -5.3285   -1.0677    0.5073 C   0  0  0  0  0  0  0  0  0  0  0  0
   -5.0168   -0.4682   -0.6725 C   0  0  0  0  0  0  0  0  0  0  0  0
   -3.6879   -0.3186   -1.0277 C   0  0  0  0  0  0  0  0  0  0  0  0
   -1.9540   -1.8002    1.7153 C   0  0  0  0  0  0  0  0  0  0  0  0
   -1.1211   -2.1967    2.3951 N   0  0  0  0  0  0  0  0  0  0  0  0
   -1.0307    1.9150   -0.6458 C   0  0  0  0  0  0  0  0  0  0  0  0
   -2.0588    2.2114   -1.3173 O   0  0  0  0  0  0  0  0  0  0  0  0
   -1.7470    4.4019   -1.2446 H   0  0  0  0  0  0  0  0  0  0  0  0
   -0.1937    5.0717   -0.7018 H   0  0  0  0  0  0  0  0  0  0  0  0
   -1.4208    4.7876    0.5319 H   0  0  0  0  0  0  0  0  0  0  0  0
    2.0637    1.7975    1.4357 H   0  0  0  0  0  0  0  0  0  0  0  0
    1.4456   -2.3965    1.3987 H   0  0  0  0  0  0  0  0  0  0  0  0
    1.4305   -1.0850    2.6072 H   0  0  0  0  0  0  0  0  0  0  0  0
    3.6859   -0.4075    1.9537 H   0  0  0  0  0  0  0  0  0  0  0  0
    3.6074   -2.1406    2.4386 H   0  0  0  0  0  0  0  0  0  0  0  0
    3.6626   -2.7833    0.0437 H   0  0  0  0  0  0  0  0  0  0  0  0
    5.0134   -1.6349    0.4637 H   0  0  0  0  0  0  0  0  0  0  0  0
    3.4985    0.2296   -0.2873 H   0  0  0  0  0  0  0  0  0  0  0  0
    3.7273   -1.9444   -2.3082 H   0  0  0  0  0  0  0  0  0  0  0  0
    4.9450   -0.7935   -1.8587 H   0  0  0  0  0  0  0  0  0  0  0  0
    1.6454   -2.1189   -0.7607 H   0  0  0  0  0  0  0  0  0  0  0  0
    1.4735   -0.4881   -1.5887 H   0  0  0  0  0  0  0  0  0  0  0  0
   -0.6179   -1.3499   -0.8492 H   0  0  0  0  0  0  0  0  0  0  0  0
   -1.4250   -0.2968   -2.0172 H   0  0  0  0  0  0  0  0  0  0  0  0
   -4.4841   -1.9800    2.2360 H   0  0  0  0  0  0  0  0  0  0  0  0
   -6.3232   -1.2356    0.8835 H   0  0  0  0  0  0  0  0  0  0  0  0
   -5.8551   -0.1411   -1.2676 H   0  0  0  0  0  0  0  0  0  0  0  0
   -3.6194    0.1655   -2.0054 H   0  0  0  0  0  0  0  0  0  0  0  0
  1  2  1  0
  2  3  1  0
  3  4  2  0
  3  5  1  0
  5  6  2  0
  6  7  1  0
  7  8  1  0
  8  9  1  0
  9 10  1  0
 10 11  1  0
 11 12  1  0
 11 13  1  0
  6 14  1  0
 14 15  1  0
 15 16  1  0
 16 17  2  0
 17 18  1  0
 18 19  2  0
 19 20  1  0
 20 21  2  0
 17 22  1  0
 22 23  3  0
 14 24  1  0
 24 25  2  0
 24  2  1  0
 13  7  1  0
 21 16  1  0
  1 26  1  0
  1 27  1  0
  1 28  1  0
  5 29  1  0
  8 30  1  0
  8 31  1  0
  9 32  1  0
  9 33  1  0
 10 34  1  0
 10 35  1  0
 11 36  1  1
 12 37  1  0
 12 38  1  0
 13 39  1  0
 13 40  1  0
 15 41  1  0
 15 42  1  0
 18 43  1  0
 19 44  1  0
 20 45  1  0
 21 46  1  0
M  END
$$$$
