@<TRIPOS>MOLECULE
*****
 32 33 0 0 0
SMALL
GASTEIGER

@<TRIPOS>ATOM
      1 N           6.1047    0.7155    0.1246 N.3     1  UNL1       -0.2035
      2 S           5.3752   -0.6926   -0.5838 S.O2    1  UNL1        0.0559
      3 O           5.7723   -0.8164   -2.0447 O.2     1  UNL1       -0.1533
      4 O           5.8840   -1.8754    0.2138 O.2     1  UNL1       -0.1533
      5 C           3.6539   -0.5744   -0.3882 C.ar    1  UNL1        0.1051
      6 C           2.9492   -1.0774    0.6738 C.ar    1  UNL1       -0.0336
      7 C           1.5928   -1.0084    0.8761 C.ar    1  UNL1       -0.0386
      8 C           0.8303   -0.3715   -0.0788 C.ar    1  UNL1        0.0338
      9 N          -0.5642   -0.3280    0.1648 N.am    1  UNL1       -0.2815
     10 C          -1.5441    0.2924   -0.6570 C.2     1  UNL1        0.2493
     11 O          -1.3066    0.8882   -1.7041 O.2     1  UNL1       -0.2698
     12 C          -2.9804    0.2767   -0.3157 C.ar    1  UNL1        0.0501
     13 C          -3.6700   -0.5641   -1.1920 C.ar    1  UNL1       -0.0486
     14 C          -5.0432   -0.7228   -1.0480 C.ar    1  UNL1       -0.0610
     15 C          -5.6610   -0.0217   -0.0190 C.ar    1  UNL1       -0.0607
     16 C          -4.9893    0.8126    0.8516 C.ar    1  UNL1       -0.0478
     17 C          -3.6270    0.9594    0.6946 C.ar    1  UNL1        0.0169
     18 S          -2.5624    1.9789    1.7084 S.3     1  UNL1       -0.1419
     19 C           1.4782    0.1551   -1.1714 C.ar    1  UNL1       -0.0386
     20 C           2.8625    0.0581   -1.3263 C.ar    1  UNL1       -0.0336
     21 H           6.2411    1.4205   -0.6380 H       1  UNL1        0.1442
     22 H           5.4587    1.0825    0.8728 H       1  UNL1        0.1442
     23 H           3.5317   -1.5878    1.4516 H       1  UNL1        0.0638
     24 H           1.1388   -1.4377    1.7508 H       1  UNL1        0.0637
     25 H          -0.9942   -0.7725    1.0044 H       1  UNL1        0.1551
     26 H          -3.2531   -1.1367   -2.0018 H       1  UNL1        0.0625
     27 H          -5.6273   -1.3605   -1.7032 H       1  UNL1        0.0618
     28 H          -6.7436   -0.0948    0.1595 H       1  UNL1        0.0618
     29 H          -5.4289    1.3692    1.6573 H       1  UNL1        0.0629
     30 H          -3.1012    3.2722    1.6898 H       1  UNL1        0.1071
     31 H           0.9257    0.6632   -1.9443 H       1  UNL1        0.0637
     32 H           3.2974    0.4981   -2.2128 H       1  UNL1        0.0638
@<TRIPOS>BOND
     1     1     2    1
     2     2     3    2
     3     2     4    2
     4     2     5    1
     5     5     6   ar
     6     6     7   ar
     7     7     8   ar
     8     8     9    1
     9     9    10   am
    10    10    11    2
    11    10    12    1
    12    12    13   ar
    13    13    14   ar
    14    14    15   ar
    15    15    16   ar
    16    16    17   ar
    17    17    18    1
    18     8    19   ar
    19    19    20   ar
    20    20     5   ar
    21    17    12   ar
    22     1    21    1
    23     1    22    1
    24     6    23    1
    25     7    24    1
    26     9    25    1
    27    13    26    1
    28    14    27    1
    29    15    28    1
    30    16    29    1
    31    18    30    1
    32    19    31    1
    33    20    32    1
