
     RDKit          3D

 32 33  0  0  0  0  0  0  0  0999 V2000
    6.1047    0.7155    0.1246 N   0  0  0  0  0  0  0  0  0  0  0  0
    5.3752   -0.6926   -0.5838 S   0  0  0  0  0  0  0  0  0  0  0  0
    5.7723   -0.8164   -2.0447 O   0  0  0  0  0  0  0  0  0  0  0  0
    5.8840   -1.8754    0.2138 O   0  0  0  0  0  0  0  0  0  0  0  0
    3.6539   -0.5744   -0.3882 C   0  0  0  0  0  0  0  0  0  0  0  0
    2.9492   -1.0774    0.6738 C   0  0  0  0  0  0  0  0  0  0  0  0
    1.5928   -1.0084    0.8761 C   0  0  0  0  0  0  0  0  0  0  0  0
    0.8303   -0.3715   -0.0788 C   0  0  0  0  0  0  0  0  0  0  0  0
   -0.5642   -0.3280    0.1648 N   0  0  0  0  0  0  0  0  0  0  0  0
   -1.5441    0.2924   -0.6570 C   0  0  0  0  0  0  0  0  0  0  0  0
   -1.3066    0.8882   -1.7041 O   0  0  0  0  0  0  0  0  0  0  0  0
   -2.9804    0.2767   -0.3157 C   0  0  0  0  0  0  0  0  0  0  0  0
   -3.6700   -0.5641   -1.1920 C   0  0  0  0  0  0  0  0  0  0  0  0
   -5.0432   -0.7228   -1.0480 C   0  0  0  0  0  0  0  0  0  0  0  0
   -5.6610   -0.0217   -0.0190 C   0  0  0  0  0  0  0  0  0  0  0  0
   -4.9893    0.8126    0.8516 C   0  0  0  0  0  0  0  0  0  0  0  0
   -3.6270    0.9594    0.6946 C   0  0  0  0  0  0  0  0  0  0  0  0
   -2.5624    1.9789    1.7084 S   0  0  0  0  0  0  0  0  0  0  0  0
    1.4782    0.1551   -1.1714 C   0  0  0  0  0  0  0  0  0  0  0  0
    2.8625    0.0581   -1.3263 C   0  0  0  0  0  0  0  0  0  0  0  0
    6.2411    1.4205   -0.6380 H   0  0  0  0  0  0  0  0  0  0  0  0
    5.4587    1.0825    0.8728 H   0  0  0  0  0  0  0  0  0  0  0  0
    3.5317   -1.5878    1.4516 H   0  0  0  0  0  0  0  0  0  0  0  0
    1.1388   -1.4377    1.7508 H   0  0  0  0  0  0  0  0  0  0  0  0
   -0.9942   -0.7725    1.0044 H   0  0  0  0  0  0  0  0  0  0  0  0
   -3.2531   -1.1367   -2.0018 H   0  0  0  0  0  0  0  0  0  0  0  0
   -5.6273   -1.3605   -1.7032 H   0  0  0  0  0  0  0  0  0  0  0  0
   -6.7436   -0.0948    0.1595 H   0  0  0  0  0  0  0  0  0  0  0  0
   -5.4289    1.3692    1.6573 H   0  0  0  0  0  0  0  0  0  0  0  0
   -3.1012    3.2722    1.6898 H   0  0  0  0  0  0  0  0  0  0  0  0
    0.9257    0.6632   -1.9443 H   0  0  0  0  0  0  0  0  0  0  0  0
    3.2974    0.4981   -2.2128 H   0  0  0  0  0  0  0  0  0  0  0  0
  1  2  1  0
  2  3  2  0
  2  4  2  0
  2  5  1  0
  5  6  2  0
  6  7  1  0
  7  8  2  0
  8  9  1  0
  9 10  1  0
 10 11  2  0
 10 12  1  0
 12 13  2  0
 13 14  1  0
 14 15  2  0
 15 16  1  0
 16 17  2  0
 17 18  1  0
  8 19  1  0
 19 20  2  0
 20  5  1  0
 17 12  1  0
  1 21  1  0
  1 22  1  0
  6 23  1  0
  7 24  1  0
  9 25  1  0
 13 26  1  0
 14 27  1  0
 15 28  1  0
 16 29  1  0
 18 30  1  0
 19 31  1  0
 20 32  1  0
M  END
$$$$
