@<TRIPOS>MOLECULE
*****
 47 49 0 0 0
SMALL
GASTEIGER

@<TRIPOS>ATOM
      1 C           6.3079    1.7815    1.0926 C.3     1  UNL1       -0.0652
      2 C           5.1298    0.8064    1.1384 C.3     1  UNL1       -0.0544
      3 C           5.2897   -0.1865    0.0276 C.3     1  UNL1       -0.0338
      4 C           4.2472   -1.2298   -0.0695 C.3     1  UNL1        0.0658
      5 S           2.6242   -0.5614   -0.3301 S.O2    1  UNL1       -0.0307
      6 O           2.6153    0.1705   -1.6298 O.2     1  UNL1       -0.1743
      7 O           2.2982    0.3041    0.8521 O.2     1  UNL1       -0.1743
      8 C           1.5355   -1.9441   -0.4486 C.3     1  UNL1        0.0687
      9 C           0.1236   -1.6761   -0.6537 C.3     1  UNL1       -0.0183
     10 C          -0.6052   -0.8490    0.4175 C.3     1  UNL1       -0.0300
     11 C          -1.5596   -0.5212   -0.7034 C.3     1  UNL1        0.0251
     12 N          -2.2467    0.7047   -0.7122 N.pl3   1  UNL1       -0.3146
     13 C          -1.6336    2.0173   -0.6742 C.3     1  UNL1        0.0023
     14 C          -3.6696    0.7144   -0.7775 C.ar    1  UNL1        0.1337
     15 N          -4.3062    1.2510   -1.8617 N.ar    1  UNL1       -0.2200
     16 C          -5.6453    1.2507   -1.9252 C.ar    1  UNL1        0.1204
     17 N          -6.4245    0.7361   -0.9519 N.ar    1  UNL1       -0.2178
     18 C          -5.8533    0.2010    0.1269 C.ar    1  UNL1        0.1432
     19 N          -6.3519   -0.3675    1.2264 N.ar    1  UNL1       -0.3457
     20 C          -5.3255   -0.7397    2.0119 C.ar    1  UNL1        0.0042
     21 C          -4.1347   -0.4028    1.4036 C.ar    1  UNL1       -0.0318
     22 C          -4.4777    0.1949    0.2048 C.ar    1  UNL1        0.0585
     23 C          -0.3184   -0.5981   -1.6156 C.3     1  UNL1       -0.0300
     24 H           6.5383    1.9783    0.0301 H       1  UNL1        0.0230
     25 H           7.1469    1.2471    1.6007 H       1  UNL1        0.0230
     26 H           6.0469    2.7256    1.5968 H       1  UNL1        0.0230
     27 H           5.0312    0.2989    2.1081 H       1  UNL1        0.0263
     28 H           4.2332    1.4591    0.9897 H       1  UNL1        0.0263
     29 H           6.2674   -0.7110    0.2017 H       1  UNL1        0.0281
     30 H           5.3167    0.3416   -0.9677 H       1  UNL1        0.0281
     31 H           4.5228   -1.9242   -0.8943 H       1  UNL1        0.0500
     32 H           4.2196   -1.8949    0.8435 H       1  UNL1        0.0500
     33 H           1.6556   -2.5209    0.5148 H       1  UNL1        0.0502
     34 H           1.9146   -2.6091   -1.2344 H       1  UNL1        0.0502
     35 H          -0.5206   -2.5773   -0.8393 H       1  UNL1        0.0318
     36 H          -0.9878   -1.4415    1.2473 H       1  UNL1        0.0286
     37 H          -0.0215    0.0532    0.6829 H       1  UNL1        0.0286
     38 H          -2.1858   -1.3950   -0.9267 H       1  UNL1        0.0500
     39 H          -2.2359    2.6490    0.0341 H       1  UNL1        0.0428
     40 H          -0.6104    2.0210   -0.3042 H       1  UNL1        0.0428
     41 H          -1.6758    2.5189   -1.6523 H       1  UNL1        0.0428
     42 H          -6.1462    1.6823   -2.7967 H       1  UNL1        0.1048
     43 H          -7.3610   -0.5323    1.5034 H       1  UNL1        0.1668
     44 H          -5.4044   -1.2270    2.9715 H       1  UNL1        0.0807
     45 H          -3.1313   -0.5613    1.7716 H       1  UNL1        0.0640
     46 H           0.3203    0.2984   -1.5283 H       1  UNL1        0.0286
     47 H          -0.5520   -0.9353   -2.6388 H       1  UNL1        0.0286
@<TRIPOS>BOND
     1     1     2    1
     2     2     3    1
     3     3     4    1
     4     4     5    1
     5     5     6    2
     6     5     7    2
     7     5     8    1
     8     8     9    1
     9     9    10    1
    10    10    11    1
    11    11    12    1
    12    12    13    1
    13    12    14    1
    14    14    15   ar
    15    15    16   ar
    16    16    17   ar
    17    17    18   ar
    18    18    19   ar
    19    19    20   ar
    20    20    21   ar
    21    21    22   ar
    22    11    23    1
    23    23     9    1
    24    22    14   ar
    25    22    18   ar
    26     1    24    1
    27     1    25    1
    28     1    26    1
    29     2    27    1
    30     2    28    1
    31     3    29    1
    32     3    30    1
    33     4    31    1
    34     4    32    1
    35     8    33    1
    36     8    34    1
    37     9    35    1
    38    10    36    1
    39    10    37    1
    40    11    38    1
    41    13    39    1
    42    13    40    1
    43    13    41    1
    44    16    42    1
    45    19    43    1
    46    20    44    1
    47    21    45    1
    48    23    46    1
    49    23    47    1
