
     RDKit          3D

 36 38  0  0  0  0  0  0  0  0999 V2000
   -0.0787    3.5288    0.6804 C   0  0  0  0  0  0  0  0  0  0  0  0
   -0.0607    2.4405   -0.2976 C   0  0  0  0  0  0  0  0  0  0  0  0
   -0.1647    1.1889    0.0388 C   0  0  0  0  0  0  0  0  0  0  0  0
   -0.3087    0.7549    1.4245 C   0  0  1  0  0  0  0  0  0  0  0  0
   -1.4990   -0.1748    1.4390 C   0  0  0  0  0  0  0  0  0  0  0  0
   -2.1240   -0.4717    0.3103 C   0  0  0  0  0  0  0  0  0  0  0  0
   -3.6354   -0.5585    0.2656 C   0  0  0  0  0  0  0  0  0  0  0  0
   -1.3867   -0.7303   -0.9368 C   0  0  0  0  0  0  0  0  0  0  0  0
   -0.1409    0.1310   -0.9907 C   0  0  1  0  0  0  0  0  0  0  0  0
    0.0522    0.6893   -2.2954 N   0  0  0  0  0  0  0  0  0  0  0  0
    0.9965   -0.7728   -0.5903 C   0  0  0  0  0  0  0  0  0  0  0  0
    1.5197   -1.5587   -1.6119 C   0  0  0  0  0  0  0  0  0  0  0  0
    2.5612   -2.4027   -1.2925 C   0  0  0  0  0  0  0  0  0  0  0  0
    3.0383   -2.4406   -0.0069 C   0  0  0  0  0  0  0  0  0  0  0  0
    3.9981   -3.2231    0.2726 O   0  0  0  0  0  0  0  0  0  0  0  0
    2.4902   -1.6526    0.9480 N   0  0  0  0  0  0  0  0  0  0  0  0
    1.4695   -0.8100    0.6857 C   0  0  0  0  0  0  0  0  0  0  0  0
    0.9496   -0.0015    1.7850 C   0  0  0  0  0  0  0  0  0  0  0  0
   -0.7787    3.4156    1.5148 H   0  0  0  0  0  0  0  0  0  0  0  0
   -0.3726    4.4677    0.1700 H   0  0  0  0  0  0  0  0  0  0  0  0
    0.9338    3.6812    1.0856 H   0  0  0  0  0  0  0  0  0  0  0  0
    0.0509    2.7495   -1.3610 H   0  0  0  0  0  0  0  0  0  0  0  0
   -0.5249    1.5165    2.1680 H   0  0  0  0  0  0  0  0  0  0  0  0
   -1.8767   -0.6172    2.3506 H   0  0  0  0  0  0  0  0  0  0  0  0
   -3.9540   -1.5070   -0.2054 H   0  0  0  0  0  0  0  0  0  0  0  0
   -4.0730   -0.4763    1.2601 H   0  0  0  0  0  0  0  0  0  0  0  0
   -4.0107    0.2623   -0.3914 H   0  0  0  0  0  0  0  0  0  0  0  0
   -2.0325   -0.4383   -1.8005 H   0  0  0  0  0  0  0  0  0  0  0  0
   -1.1448   -1.8040   -0.9860 H   0  0  0  0  0  0  0  0  0  0  0  0
    1.0368    0.7307   -2.6005 H   0  0  0  0  0  0  0  0  0  0  0  0
   -0.5217    0.1566   -2.9822 H   0  0  0  0  0  0  0  0  0  0  0  0
    1.1481   -1.5319   -2.6224 H   0  0  0  0  0  0  0  0  0  0  0  0
    3.0012   -3.0368   -2.0642 H   0  0  0  0  0  0  0  0  0  0  0  0
    2.8808   -1.7129    1.9053 H   0  0  0  0  0  0  0  0  0  0  0  0
    0.8375   -0.5814    2.7220 H   0  0  0  0  0  0  0  0  0  0  0  0
    1.7237    0.7892    2.0094 H   0  0  0  0  0  0  0  0  0  0  0  0
  1  2  1  0
  2  3  2  0
  3  4  1  0
  4  5  1  0
  5  6  2  0
  6  7  1  0
  6  8  1  0
  8  9  1  0
  9 10  1  6
  9 11  1  0
 11 12  1  0
 12 13  2  0
 13 14  1  0
 14 15  2  0
 14 16  1  0
 16 17  1  0
 17 18  1  0
  9  3  1  0
 17 11  2  0
 18  4  1  0
  1 19  1  0
  1 20  1  0
  1 21  1  0
  2 22  1  0
  4 23  1  1
  5 24  1  0
  7 25  1  0
  7 26  1  0
  7 27  1  0
  8 28  1  0
  8 29  1  0
 10 30  1  0
 10 31  1  0
 12 32  1  0
 13 33  1  0
 16 34  1  0
 18 35  1  0
 18 36  1  0
M  END
$$$$
