@<TRIPOS>MOLECULE
*****
 36 38 0 0 0
SMALL
GASTEIGER

@<TRIPOS>ATOM
      1 C          -0.0787    3.5288    0.6804 C.3     1  UNL1       -0.0465
      2 C          -0.0607    2.4405   -0.2976 C.2     1  UNL1       -0.0852
      3 C          -0.1647    1.1889    0.0388 C.2     1  UNL1       -0.0422
      4 C          -0.3087    0.7549    1.4245 C.3     1  UNL1        0.0058
      5 C          -1.4990   -0.1748    1.4390 C.2     1  UNL1       -0.0774
      6 C          -2.1240   -0.4717    0.3103 C.2     1  UNL1       -0.0736
      7 C          -3.6354   -0.5585    0.2656 C.3     1  UNL1       -0.0437
      8 C          -1.3867   -0.7303   -0.9368 C.3     1  UNL1       -0.0057
      9 C          -0.1409    0.1310   -0.9907 C.3     1  UNL1        0.0694
     10 N           0.0522    0.6893   -2.2954 N.3     1  UNL1       -0.3174
     11 C           0.9965   -0.7728   -0.5903 C.ar    1  UNL1       -0.0038
     12 C           1.5197   -1.5587   -1.6119 C.ar    1  UNL1       -0.0497
     13 C           2.5612   -2.4027   -1.2925 C.ar    1  UNL1        0.0031
     14 C           3.0383   -2.4406   -0.0069 C.ar    1  UNL1        0.2489
     15 O           3.9981   -3.2231    0.2726 O.2     1  UNL1       -0.2679
     16 N           2.4902   -1.6526    0.9480 N.ar    1  UNL1       -0.3259
     17 C           1.4695   -0.8100    0.6857 C.ar    1  UNL1        0.0252
     18 C           0.9496   -0.0015    1.7850 C.3     1  UNL1       -0.0020
     19 H          -0.7787    3.4156    1.5148 H       1  UNL1        0.0272
     20 H          -0.3726    4.4677    0.1700 H       1  UNL1        0.0272
     21 H           0.9338    3.6812    1.0856 H       1  UNL1        0.0272
     22 H           0.0509    2.7495   -1.3610 H       1  UNL1        0.0570
     23 H          -0.5249    1.5165    2.1680 H       1  UNL1        0.0392
     24 H          -1.8767   -0.6172    2.3506 H       1  UNL1        0.0578
     25 H          -3.9540   -1.5070   -0.2054 H       1  UNL1        0.0274
     26 H          -4.0730   -0.4763    1.2601 H       1  UNL1        0.0274
     27 H          -4.0107    0.2623   -0.3914 H       1  UNL1        0.0274
     28 H          -2.0325   -0.4383   -1.8005 H       1  UNL1        0.0334
     29 H          -1.1448   -1.8040   -0.9860 H       1  UNL1        0.0334
     30 H           1.0368    0.7307   -2.6005 H       1  UNL1        0.1193
     31 H          -0.5217    0.1566   -2.9822 H       1  UNL1        0.1193
     32 H           1.1481   -1.5319   -2.6224 H       1  UNL1        0.0623
     33 H           3.0012   -3.0368   -2.0642 H       1  UNL1        0.0672
     34 H           2.8808   -1.7129    1.9053 H       1  UNL1        0.1686
     35 H           0.8375   -0.5814    2.7220 H       1  UNL1        0.0336
     36 H           1.7237    0.7892    2.0094 H       1  UNL1        0.0336
@<TRIPOS>BOND
     1     1     2    1
     2     2     3    2
     3     3     4    1
     4     4     5    1
     5     5     6    2
     6     6     7    1
     7     6     8    1
     8     8     9    1
     9     9    10    1
    10     9    11    1
    11    11    12   ar
    12    12    13   ar
    13    13    14   ar
    14    14    15    2
    15    14    16   ar
    16    16    17   ar
    17    17    18    1
    18     9     3    1
    19    17    11   ar
    20    18     4    1
    21     1    19    1
    22     1    20    1
    23     1    21    1
    24     2    22    1
    25     4    23    1
    26     5    24    1
    27     7    25    1
    28     7    26    1
    29     7    27    1
    30     8    28    1
    31     8    29    1
    32    10    30    1
    33    10    31    1
    34    12    32    1
    35    13    33    1
    36    16    34    1
    37    18    35    1
    38    18    36    1
