@<TRIPOS>MOLECULE
*****
 49 54 0 0 0
SMALL
GASTEIGER

@<TRIPOS>ATOM
      1 C           7.4379    1.9202   -1.0706 C.ar    1  UNL1       -0.0597
      2 C           6.2429    1.5445   -1.6505 C.ar    1  UNL1       -0.0611
      3 C           5.4088    0.5938   -1.0948 C.ar    1  UNL1       -0.0520
      4 C           5.7923    0.0035    0.0828 C.ar    1  UNL1        0.0082
      5 C           4.9694   -0.9522    0.6557 C.ar    1  UNL1       -0.0022
      6 C           3.7124   -1.3281    0.0188 C.ar    1  UNL1        0.0467
      7 C           3.4918   -2.3271   -0.9128 C.ar    1  UNL1        0.0597
      8 N           2.1969   -2.3162   -1.2191 N.ar    1  UNL1       -0.1727
      9 N           1.5502   -1.3730   -0.5481 N.ar    1  UNL1       -0.2205
     10 C           0.2523   -1.0176   -0.5524 C.ar    1  UNL1        0.0426
     11 C          -0.1513    0.0128    0.2546 C.ar    1  UNL1        0.0434
     12 C          -1.5754    0.4674    0.3067 C.ar    1  UNL1        0.1128
     13 N          -2.2545    1.2729    0.8487 N.ar    1  UNL1       -0.2453
     14 C          -3.5433    1.4677    0.7056 C.ar    1  UNL1        0.0567
     15 C          -4.1820    0.6653   -0.1551 C.ar    1  UNL1        0.0884
     16 N          -5.5419    0.5404   -0.5965 N.pl3   1  UNL1       -0.3209
     17 C          -6.5884    1.3932   -0.1023 C.3     1  UNL1        0.0252
     18 C          -7.9071    0.8512   -0.6267 C.3     1  UNL1        0.0117
     19 N          -7.9633   -0.5622   -0.3723 N.3     1  UNL1       -0.3130
     20 C          -7.0632   -1.2947   -1.2081 C.3     1  UNL1        0.0117
     21 C          -5.8458   -0.4782   -1.5655 C.3     1  UNL1        0.0252
     22 S          -2.8204   -0.3927   -0.7525 S.2     1  UNL1       -0.0524
     23 C           0.7770    0.6477    1.0388 C.ar    1  UNL1        0.0411
     24 N           2.0631    0.2580    1.0101 N.ar    1  UNL1       -0.2349
     25 C           2.4672   -0.7538    0.2196 C.ar    1  UNL1        0.1632
     26 C           5.4099   -1.5087    1.8387 C.ar    1  UNL1       -0.0351
     27 C           6.5962   -1.1592    2.4471 C.ar    1  UNL1        0.0288
     28 N           7.3839   -0.2204    1.8652 N.ar    1  UNL1       -0.2549
     29 C           6.9800    0.3478    0.6997 C.ar    1  UNL1        0.0715
     30 C           7.7927    1.3007    0.1213 C.ar    1  UNL1       -0.0357
     31 H           8.0667    2.6576   -1.5183 H       1  UNL1        0.0618
     32 H           5.9429    2.0112   -2.5785 H       1  UNL1        0.0618
     33 H           4.4719    0.2891   -1.5351 H       1  UNL1        0.0624
     34 H           4.2295   -3.0046   -1.3282 H       1  UNL1        0.0855
     35 H          -0.4830   -1.5141   -1.1680 H       1  UNL1        0.0838
     36 H          -4.0923    2.2601    1.2677 H       1  UNL1        0.0854
     37 H          -6.4409    2.4093   -0.5327 H       1  UNL1        0.0476
     38 H          -6.5770    1.4314    1.0122 H       1  UNL1        0.0476
     39 H          -7.9667    1.1138   -1.7027 H       1  UNL1        0.0439
     40 H          -8.7824    1.3279   -0.1174 H       1  UNL1        0.0439
     41 H          -8.9539   -0.8648   -0.5571 H       1  UNL1        0.1220
     42 H          -6.7384   -2.2642   -0.7557 H       1  UNL1        0.0439
     43 H          -7.5968   -1.5904   -2.1557 H       1  UNL1        0.0439
     44 H          -6.1117    0.0666   -2.5174 H       1  UNL1        0.0476
     45 H          -4.9671   -1.1411   -1.7543 H       1  UNL1        0.0476
     46 H           0.4285    1.4624    1.6697 H       1  UNL1        0.0837
     47 H           4.8016   -2.2591    2.3234 H       1  UNL1        0.0639
     48 H           6.9502   -1.5894    3.3741 H       1  UNL1        0.0830
     49 H           8.7307    1.5952    0.5770 H       1  UNL1        0.0639
@<TRIPOS>BOND
     1     1     2   ar
     2     2     3   ar
     3     3     4   ar
     4     4     5   ar
     5     5     6    1
     6     6     7   ar
     7     7     8   ar
     8     8     9   ar
     9     9    10   ar
    10    10    11   ar
    11    11    12    1
    12    12    13   ar
    13    13    14   ar
    14    14    15   ar
    15    15    16    1
    16    16    17    1
    17    17    18    1
    18    18    19    1
    19    19    20    1
    20    20    21    1
    21    15    22   ar
    22    11    23   ar
    23    23    24   ar
    24    24    25   ar
    25     5    26   ar
    26    26    27   ar
    27    27    28   ar
    28    28    29   ar
    29    29    30   ar
    30    30     1   ar
    31    29     4   ar
    32    25     6   ar
    33    25     9   ar
    34    22    12   ar
    35    21    16    1
    36     1    31    1
    37     2    32    1
    38     3    33    1
    39     7    34    1
    40    10    35    1
    41    14    36    1
    42    17    37    1
    43    17    38    1
    44    18    39    1
    45    18    40    1
    46    19    41    1
    47    20    42    1
    48    20    43    1
    49    21    44    1
    50    21    45    1
    51    23    46    1
    52    26    47    1
    53    27    48    1
    54    30    49    1
