@<TRIPOS>MOLECULE
*****
 75 80 0 0 0
SMALL
GASTEIGER

@<TRIPOS>ATOM
      1 C          -2.1323    6.4392    1.9530 C.3     1  UNL1       -0.0151
      2 N          -2.7998    6.7607    0.7186 N.3     1  UNL1       -0.3089
      3 C          -3.7350    5.7060    0.3114 C.3     1  UNL1        0.0820
      4 C          -4.5111    6.1510   -0.9036 C.3     1  UNL1       -0.0411
      5 C          -3.0236    4.4215    0.0406 C.2     1  UNL1        0.2350
      6 O          -1.7882    4.2692    0.1755 O.2     1  UNL1       -0.2737
      7 N          -3.7789    3.2967   -0.3957 N.am    1  UNL1       -0.2691
      8 C          -3.1538    2.0379   -0.6629 C.ar    1  UNL1        0.1263
      9 C          -3.8850    0.9719   -1.1157 C.ar    1  UNL1       -0.0208
     10 C          -3.2654   -0.2546   -1.3396 C.ar    1  UNL1       -0.0466
     11 C          -1.9272   -0.4200   -1.1143 C.ar    1  UNL1        0.0349
     12 C          -1.2771   -1.6610   -1.3563 C.ar    1  UNL1        0.0837
     13 C          -1.0969   -2.7115   -0.5114 C.ar    1  UNL1        0.0992
     14 C          -1.5543   -2.9450    0.8514 C.ar    1  UNL1        0.0208
     15 C          -2.1182   -2.0107    1.6579 C.ar    1  UNL1       -0.0460
     16 C          -2.5193   -2.2750    2.9624 C.ar    1  UNL1        0.0006
     17 C          -2.3406   -3.5662    3.4928 C.ar    1  UNL1        0.2144
     18 O          -2.7232   -3.7931    4.7106 O.3     1  UNL1       -0.4796
     19 C          -2.7731   -4.7468    5.6342 C.3     1  UNL1        0.0804
     20 N          -1.7820   -4.4694    2.6774 N.ar    1  UNL1       -0.2207
     21 C          -1.3966   -4.2088    1.4170 C.ar    1  UNL1        0.0406
     22 N          -0.3900   -3.6262   -1.2494 N.ar    1  UNL1       -0.2271
     23 C          -0.1459   -3.1747   -2.4822 C.ar    1  UNL1        0.1390
     24 C           0.5098   -3.7240   -3.5938 C.ar    1  UNL1       -0.0158
     25 C           0.6075   -3.0382   -4.7749 C.ar    1  UNL1       -0.0456
     26 C           1.3030   -3.6263   -5.9706 C.3     1  UNL1       -0.0395
     27 C           0.0432   -1.7842   -4.8454 C.ar    1  UNL1       -0.0421
     28 C          -0.5958   -1.2758   -3.7260 C.ar    1  UNL1        0.0120
     29 N          -0.6895   -1.9600   -2.5616 N.ar    1  UNL1       -0.2986
     30 C          -1.2261    0.6834   -0.6558 C.ar    1  UNL1        0.1250
     31 C           0.1909    0.5964   -0.3142 C.1     1  UNL1       -0.0404
     32 C           1.3483    0.5256   -0.0501 C.1     1  UNL1       -0.0595
     33 C           2.7395    0.4221    0.2668 C.ar    1  UNL1        0.0259
     34 C           3.6143    1.4686    0.1683 C.ar    1  UNL1       -0.0457
     35 C           4.9554    1.3472    0.4761 C.ar    1  UNL1       -0.0512
     36 C           5.4728    0.1618    0.8974 C.ar    1  UNL1        0.0032
     37 C           6.7832    0.0429    1.2181 C.ar    1  UNL1        0.0459
     38 C           7.7913    1.1432    1.1655 C.3     1  UNL1       -0.0218
     39 N           7.2264   -1.1882    1.6570 N.ar    1  UNL1       -0.2595
     40 C           6.4379   -2.2451    1.7773 C.ar    1  UNL1        0.0285
     41 C           5.1079   -2.1188    1.4496 C.ar    1  UNL1       -0.0358
     42 C           4.6133   -0.9376    1.0135 C.ar    1  UNL1       -0.0136
     43 C           3.2823   -0.7776    0.6969 C.ar    1  UNL1       -0.0385
     44 N          -1.8265    1.8638   -0.4423 N.ar    1  UNL1       -0.2229
     45 H          -2.7832    6.8492    2.7792 H       1  UNL1        0.0388
     46 H          -1.1077    6.8720    2.0250 H       1  UNL1        0.0388
     47 H          -2.0811    5.3514    2.1706 H       1  UNL1        0.0388
     48 H          -2.0981    6.8594   -0.0295 H       1  UNL1        0.1223
     49 H          -4.4397    5.5739    1.1434 H       1  UNL1        0.0554
     50 H          -4.8646    7.2049   -0.8298 H       1  UNL1        0.0249
     51 H          -3.8572    6.0021   -1.7687 H       1  UNL1        0.0249
     52 H          -5.4183    5.4895   -1.0141 H       1  UNL1        0.0249
     53 H          -4.7956    3.3888   -0.5244 H       1  UNL1        0.1563
     54 H          -4.9565    1.0982   -1.2955 H       1  UNL1        0.0652
     55 H          -3.9134   -1.0706   -1.7030 H       1  UNL1        0.0626
     56 H          -2.2620   -1.0245    1.2485 H       1  UNL1        0.0626
     57 H          -2.9588   -1.4965    3.5629 H       1  UNL1        0.0671
     58 H          -3.7158   -4.7940    6.2562 H       1  UNL1        0.0660
     59 H          -2.6815   -5.7956    5.2196 H       1  UNL1        0.0660
     60 H          -1.9582   -4.6181    6.4191 H       1  UNL1        0.0660
     61 H          -0.9609   -5.0245    0.8597 H       1  UNL1        0.0837
     62 H           0.9479   -4.7067   -3.5154 H       1  UNL1        0.0657
     63 H           2.2984   -4.0142   -5.7157 H       1  UNL1        0.0278
     64 H           1.3451   -2.8782   -6.7796 H       1  UNL1        0.0278
     65 H           0.6942   -4.4773   -6.4028 H       1  UNL1        0.0278
     66 H           0.0909   -1.2049   -5.7528 H       1  UNL1        0.0635
     67 H          -1.0571   -0.2739   -3.7631 H       1  UNL1        0.0813
     68 H           3.1978    2.4266   -0.1687 H       1  UNL1        0.0630
     69 H           5.6090    2.2168    0.3777 H       1  UNL1        0.0625
     70 H           8.3756    1.1628    2.1380 H       1  UNL1        0.0293
     71 H           7.4188    2.1120    0.8959 H       1  UNL1        0.0293
     72 H           8.5571    0.8493    0.3868 H       1  UNL1        0.0293
     73 H           6.7369   -3.2300    2.1224 H       1  UNL1        0.0830
     74 H           4.4084   -2.9580    1.5326 H       1  UNL1        0.0639
     75 H           2.6577   -1.6603    0.8018 H       1  UNL1        0.0636
@<TRIPOS>BOND
     1     1     2    1
     2     2     3    1
     3     3     4    1
     4     3     5    1
     5     5     6    2
     6     5     7   am
     7     7     8    1
     8     8     9   ar
     9     9    10   ar
    10    10    11   ar
    11    11    12    1
    12    12    13   ar
    13    13    14    1
    14    14    15   ar
    15    15    16   ar
    16    16    17   ar
    17    17    18    1
    18    18    19    1
    19    17    20   ar
    20    20    21   ar
    21    13    22   ar
    22    22    23   ar
    23    23    24   ar
    24    24    25   ar
    25    25    26    1
    26    25    27   ar
    27    27    28   ar
    28    28    29   ar
    29    11    30   ar
    30    30    31    1
    31    31    32    3
    32    32    33    1
    33    33    34   ar
    34    34    35   ar
    35    35    36   ar
    36    36    37   ar
    37    37    38    1
    38    37    39   ar
    39    39    40   ar
    40    40    41   ar
    41    41    42   ar
    42    42    43   ar
    43    30    44   ar
    44    44     8   ar
    45    29    12   ar
    46    43    33   ar
    47    21    14   ar
    48    29    23   ar
    49    42    36   ar
    50     1    45    1
    51     1    46    1
    52     1    47    1
    53     2    48    1
    54     3    49    1
    55     4    50    1
    56     4    51    1
    57     4    52    1
    58     7    53    1
    59     9    54    1
    60    10    55    1
    61    15    56    1
    62    16    57    1
    63    19    58    1
    64    19    59    1
    65    19    60    1
    66    21    61    1
    67    24    62    1
    68    26    63    1
    69    26    64    1
    70    26    65    1
    71    27    66    1
    72    28    67    1
    73    34    68    1
    74    35    69    1
    75    38    70    1
    76    38    71    1
    77    38    72    1
    78    40    73    1
    79    41    74    1
    80    43    75    1
