@<TRIPOS>MOLECULE
*****
 63 65 0 0 0
SMALL
GASTEIGER

@<TRIPOS>ATOM
      1 C          -0.3687    3.4636    1.5783 C.3     1  UNL1       -0.0609
      2 C           0.4927    2.5913    0.6716 C.3     1  UNL1       -0.0254
      3 C           1.8927    3.0746    0.7533 C.3     1  UNL1       -0.0609
      4 C           0.2782    1.1635    1.0824 C.3     1  UNL1        0.0601
      5 N          -1.1831    0.9312    0.8926 N.am    1  UNL1       -0.3078
      6 C          -2.0012    0.5750    1.9960 C.2     1  UNL1        0.2333
      7 O          -1.3721    0.4850    3.0939 O.2     1  UNL1       -0.2738
      8 C          -3.4687    0.3395    1.8182 C.3     1  UNL1        0.1043
      9 N          -3.8696    0.5201    0.4518 N.ar    1  UNL1       -0.2823
     10 C          -4.1636    1.7899    0.1092 C.ar    1  UNL1        0.2755
     11 O          -4.0372    2.7443    0.9269 O.2     1  UNL1       -0.2656
     12 C          -4.6164    2.1281   -1.1408 C.ar    1  UNL1        0.1084
     13 N          -4.9304    3.4454   -1.5260 N.pl3   1  UNL1       -0.3526
     14 C          -4.7472    1.0847   -2.0108 C.ar    1  UNL1        0.0558
     15 N          -4.4349   -0.1304   -1.5880 N.ar    1  UNL1       -0.2352
     16 C          -3.9927   -0.4947   -0.3854 C.ar    1  UNL1        0.1439
     17 C          -3.6678   -1.8826   -0.1880 C.ar    1  UNL1        0.0175
     18 C          -2.9246   -2.5332    0.7255 C.ar    1  UNL1       -0.0511
     19 C          -2.6632   -3.8682    0.7876 C.ar    1  UNL1       -0.0611
     20 C          -3.1904   -4.7052   -0.1665 C.ar    1  UNL1       -0.0617
     21 C          -3.9616   -4.1346   -1.1413 C.ar    1  UNL1       -0.0611
     22 C          -4.1691   -2.7854   -1.1222 C.ar    1  UNL1       -0.0511
     23 C           0.9765    0.1822    0.1650 C.3     1  UNL1        0.1507
     24 O           0.6329    0.4908   -1.1276 O.3     1  UNL1       -0.3805
     25 C           2.4169    0.0780    0.4272 C.ar    1  UNL1        0.2473
     26 N           3.3522    0.4076    1.3557 N.ar    1  UNL1       -0.1096
     27 N           4.4963   -0.0263    0.8950 N.ar    1  UNL1       -0.1118
     28 C           4.3235   -0.6208   -0.2943 C.ar    1  UNL1        0.2227
     29 O           3.0455   -0.5430   -0.5558 O.2     1  UNL1       -0.4213
     30 C           5.4945   -1.1938   -1.0117 C.3     1  UNL1        0.0401
     31 C           5.6256   -2.6355   -0.5577 C.3     1  UNL1       -0.0516
     32 C           6.7546   -0.4205   -0.7187 C.3     1  UNL1       -0.0516
     33 C           5.1675   -1.1492   -2.4912 C.3     1  UNL1       -0.0516
     34 H          -1.3650    3.0159    1.5720 H       1  UNL1        0.0233
     35 H           0.0310    3.4487    2.6259 H       1  UNL1        0.0233
     36 H          -0.4500    4.5014    1.2373 H       1  UNL1        0.0233
     37 H           0.0763    2.7257   -0.3461 H       1  UNL1        0.0314
     38 H           2.3105    2.9175    1.7572 H       1  UNL1        0.0233
     39 H           2.5449    2.6481   -0.0166 H       1  UNL1        0.0233
     40 H           1.9071    4.1963    0.5968 H       1  UNL1        0.0233
     41 H           0.5574    1.0176    2.1316 H       1  UNL1        0.0531
     42 H          -1.5556    1.0418   -0.0641 H       1  UNL1        0.1491
     43 H          -3.8502   -0.5481    2.3240 H       1  UNL1        0.0589
     44 H          -3.9339    1.2012    2.4215 H       1  UNL1        0.0589
     45 H          -5.9768    3.5959   -1.4145 H       1  UNL1        0.1425
     46 H          -4.3051    4.1985   -1.8700 H       1  UNL1        0.1425
     47 H          -5.0896    1.2188   -3.0102 H       1  UNL1        0.0851
     48 H          -2.4466   -2.0012    1.4886 H       1  UNL1        0.0625
     49 H          -2.0554   -4.3301    1.5525 H       1  UNL1        0.0618
     50 H          -3.0293   -5.7719   -0.1853 H       1  UNL1        0.0618
     51 H          -4.3811   -4.7601   -1.8890 H       1  UNL1        0.0618
     52 H          -4.8035   -2.4365   -1.9508 H       1  UNL1        0.0625
     53 H           0.5659   -0.8567    0.4076 H       1  UNL1        0.0711
     54 H           0.7094   -0.2564   -1.7649 H       1  UNL1        0.2105
     55 H           4.9383   -3.2356   -1.1722 H       1  UNL1        0.0240
     56 H           5.3326   -2.6962    0.5117 H       1  UNL1        0.0240
     57 H           6.6887   -2.9765   -0.6885 H       1  UNL1        0.0240
     58 H           6.8133    0.4199   -1.4529 H       1  UNL1        0.0240
     59 H           6.7825   -0.0373    0.3117 H       1  UNL1        0.0240
     60 H           7.5972   -1.1413   -0.8607 H       1  UNL1        0.0240
     61 H           4.7077   -2.1370   -2.7561 H       1  UNL1        0.0240
     62 H           6.0671   -0.9554   -3.0792 H       1  UNL1        0.0240
     63 H           4.4248   -0.3782   -2.6904 H       1  UNL1        0.0240
@<TRIPOS>BOND
     1     1     2    1
     2     2     3    1
     3     2     4    1
     4     4     5    1
     5     5     6   am
     6     6     7    2
     7     6     8    1
     8     8     9    1
     9     9    10   ar
    10    10    11    2
    11    10    12   ar
    12    12    13    1
    13    12    14   ar
    14    14    15   ar
    15    15    16   ar
    16    16    17    1
    17    17    18   ar
    18    18    19   ar
    19    19    20   ar
    20    20    21   ar
    21    21    22   ar
    22     4    23    1
    23    23    24    1
    24    23    25    1
    25    25    26   ar
    26    26    27   ar
    27    27    28   ar
    28    28    29   ar
    29    28    30    1
    30    30    31    1
    31    30    32    1
    32    30    33    1
    33    16     9   ar
    34    22    17   ar
    35    29    25   ar
    36     1    34    1
    37     1    35    1
    38     1    36    1
    39     2    37    1
    40     3    38    1
    41     3    39    1
    42     3    40    1
    43     4    41    1
    44     5    42    1
    45     8    43    1
    46     8    44    1
    47    13    45    1
    48    13    46    1
    49    14    47    1
    50    18    48    1
    51    19    49    1
    52    20    50    1
    53    21    51    1
    54    22    52    1
    55    23    53    1
    56    24    54    1
    57    31    55    1
    58    31    56    1
    59    31    57    1
    60    32    58    1
    61    32    59    1
    62    32    60    1
    63    33    61    1
    64    33    62    1
    65    33    63    1
