
     RDKit          3D

 63 65  0  0  0  0  0  0  0  0999 V2000
   -0.3687    3.4636    1.5783 C   0  0  0  0  0  0  0  0  0  0  0  0
    0.4927    2.5913    0.6716 C   0  0  0  0  0  0  0  0  0  0  0  0
    1.8927    3.0746    0.7533 C   0  0  0  0  0  0  0  0  0  0  0  0
    0.2782    1.1635    1.0824 C   0  0  1  0  0  0  0  0  0  0  0  0
   -1.1831    0.9312    0.8926 N   0  0  0  0  0  0  0  0  0  0  0  0
   -2.0012    0.5750    1.9960 C   0  0  0  0  0  0  0  0  0  0  0  0
   -1.3721    0.4850    3.0939 O   0  0  0  0  0  0  0  0  0  0  0  0
   -3.4687    0.3395    1.8182 C   0  0  0  0  0  0  0  0  0  0  0  0
   -3.8696    0.5201    0.4518 N   0  0  0  0  0  0  0  0  0  0  0  0
   -4.1636    1.7899    0.1092 C   0  0  0  0  0  0  0  0  0  0  0  0
   -4.0372    2.7443    0.9269 O   0  0  0  0  0  0  0  0  0  0  0  0
   -4.6164    2.1281   -1.1408 C   0  0  0  0  0  0  0  0  0  0  0  0
   -4.9304    3.4454   -1.5260 N   0  0  0  0  0  0  0  0  0  0  0  0
   -4.7472    1.0847   -2.0108 C   0  0  0  0  0  0  0  0  0  0  0  0
   -4.4349   -0.1304   -1.5880 N   0  0  0  0  0  0  0  0  0  0  0  0
   -3.9927   -0.4947   -0.3854 C   0  0  0  0  0  0  0  0  0  0  0  0
   -3.6678   -1.8826   -0.1880 C   0  0  0  0  0  0  0  0  0  0  0  0
   -2.9246   -2.5332    0.7255 C   0  0  0  0  0  0  0  0  0  0  0  0
   -2.6632   -3.8682    0.7876 C   0  0  0  0  0  0  0  0  0  0  0  0
   -3.1904   -4.7052   -0.1665 C   0  0  0  0  0  0  0  0  0  0  0  0
   -3.9616   -4.1346   -1.1413 C   0  0  0  0  0  0  0  0  0  0  0  0
   -4.1691   -2.7854   -1.1222 C   0  0  0  0  0  0  0  0  0  0  0  0
    0.9765    0.1822    0.1650 C   0  0  1  0  0  0  0  0  0  0  0  0
    0.6329    0.4908   -1.1276 O   0  0  0  0  0  0  0  0  0  0  0  0
    2.4169    0.0780    0.4272 C   0  0  0  0  0  0  0  0  0  0  0  0
    3.3522    0.4076    1.3557 N   0  0  0  0  0  0  0  0  0  0  0  0
    4.4963   -0.0263    0.8950 N   0  0  0  0  0  0  0  0  0  0  0  0
    4.3235   -0.6208   -0.2943 C   0  0  0  0  0  0  0  0  0  0  0  0
    3.0455   -0.5430   -0.5558 O   0  0  0  0  0  0  0  0  0  0  0  0
    5.4945   -1.1938   -1.0117 C   0  0  0  0  0  0  0  0  0  0  0  0
    5.6256   -2.6355   -0.5577 C   0  0  0  0  0  0  0  0  0  0  0  0
    6.7546   -0.4205   -0.7187 C   0  0  0  0  0  0  0  0  0  0  0  0
    5.1675   -1.1492   -2.4912 C   0  0  0  0  0  0  0  0  0  0  0  0
   -1.3650    3.0159    1.5720 H   0  0  0  0  0  0  0  0  0  0  0  0
    0.0310    3.4487    2.6259 H   0  0  0  0  0  0  0  0  0  0  0  0
   -0.4500    4.5014    1.2373 H   0  0  0  0  0  0  0  0  0  0  0  0
    0.0763    2.7257   -0.3461 H   0  0  0  0  0  0  0  0  0  0  0  0
    2.3105    2.9175    1.7572 H   0  0  0  0  0  0  0  0  0  0  0  0
    2.5449    2.6481   -0.0166 H   0  0  0  0  0  0  0  0  0  0  0  0
    1.9071    4.1963    0.5968 H   0  0  0  0  0  0  0  0  0  0  0  0
    0.5574    1.0176    2.1316 H   0  0  0  0  0  0  0  0  0  0  0  0
   -1.5556    1.0418   -0.0641 H   0  0  0  0  0  0  0  0  0  0  0  0
   -3.8502   -0.5481    2.3240 H   0  0  0  0  0  0  0  0  0  0  0  0
   -3.9339    1.2012    2.4215 H   0  0  0  0  0  0  0  0  0  0  0  0
   -5.9768    3.5959   -1.4145 H   0  0  0  0  0  0  0  0  0  0  0  0
   -4.3051    4.1985   -1.8700 H   0  0  0  0  0  0  0  0  0  0  0  0
   -5.0896    1.2188   -3.0102 H   0  0  0  0  0  0  0  0  0  0  0  0
   -2.4466   -2.0012    1.4886 H   0  0  0  0  0  0  0  0  0  0  0  0
   -2.0554   -4.3301    1.5525 H   0  0  0  0  0  0  0  0  0  0  0  0
   -3.0293   -5.7719   -0.1853 H   0  0  0  0  0  0  0  0  0  0  0  0
   -4.3811   -4.7601   -1.8890 H   0  0  0  0  0  0  0  0  0  0  0  0
   -4.8035   -2.4365   -1.9508 H   0  0  0  0  0  0  0  0  0  0  0  0
    0.5659   -0.8567    0.4076 H   0  0  0  0  0  0  0  0  0  0  0  0
    0.7094   -0.2564   -1.7649 H   0  0  0  0  0  0  0  0  0  0  0  0
    4.9383   -3.2356   -1.1722 H   0  0  0  0  0  0  0  0  0  0  0  0
    5.3326   -2.6962    0.5117 H   0  0  0  0  0  0  0  0  0  0  0  0
    6.6887   -2.9765   -0.6885 H   0  0  0  0  0  0  0  0  0  0  0  0
    6.8133    0.4199   -1.4529 H   0  0  0  0  0  0  0  0  0  0  0  0
    6.7825   -0.0373    0.3117 H   0  0  0  0  0  0  0  0  0  0  0  0
    7.5972   -1.1413   -0.8607 H   0  0  0  0  0  0  0  0  0  0  0  0
    4.7077   -2.1370   -2.7561 H   0  0  0  0  0  0  0  0  0  0  0  0
    6.0671   -0.9554   -3.0792 H   0  0  0  0  0  0  0  0  0  0  0  0
    4.4248   -0.3782   -2.6904 H   0  0  0  0  0  0  0  0  0  0  0  0
  1  2  1  0
  2  3  1  0
  2  4  1  0
  4  5  1  0
  5  6  1  0
  6  7  2  0
  6  8  1  0
  8  9  1  0
  9 10  1  0
 10 11  2  0
 10 12  1  0
 12 13  1  0
 12 14  2  0
 14 15  1  0
 15 16  2  0
 16 17  1  0
 17 18  2  0
 18 19  1  0
 19 20  2  0
 20 21  1  0
 21 22  2  0
  4 23  1  0
 23 24  1  0
 23 25  1  0
 25 26  2  0
 26 27  1  0
 27 28  2  0
 28 29  1  0
 28 30  1  0
 30 31  1  0
 30 32  1  0
 30 33  1  0
 16  9  1  0
 22 17  1  0
 29 25  1  0
  1 34  1  0
  1 35  1  0
  1 36  1  0
  2 37  1  0
  3 38  1  0
  3 39  1  0
  3 40  1  0
  4 41  1  1
  5 42  1  0
  8 43  1  0
  8 44  1  0
 13 45  1  0
 13 46  1  0
 14 47  1  0
 18 48  1  0
 19 49  1  0
 20 50  1  0
 21 51  1  0
 22 52  1  0
 23 53  1  1
 24 54  1  0
 31 55  1  0
 31 56  1  0
 31 57  1  0
 32 58  1  0
 32 59  1  0
 32 60  1  0
 33 61  1  0
 33 62  1  0
 33 63  1  0
M  END
$$$$
