@<TRIPOS>MOLECULE
*****
 58 62 0 0 0
SMALL
GASTEIGER

@<TRIPOS>ATOM
      1 C           7.3844    0.6988    0.0224 C.3     1  UNL1       -0.0524
      2 C           6.9390   -0.7576    0.0443 C.3     1  UNL1       -0.0039
      3 N           5.4950   -0.8396    0.1395 N.3     1  UNL1       -0.3025
      4 C           5.1056   -2.2208    0.1560 C.3     1  UNL1        0.0006
      5 C           3.5949   -2.4124    0.1067 C.3     1  UNL1       -0.0217
      6 C           2.9946   -1.0155    0.1727 C.3     1  UNL1        0.0230
      7 N           1.5519   -1.0648    0.1090 N.pl3   1  UNL1       -0.3409
      8 C           0.7662    0.1027    0.3049 C.ar    1  UNL1        0.0280
      9 C           1.3128    1.3172    0.5997 C.ar    1  UNL1       -0.0391
     10 C           0.5617    2.4518    0.7796 C.ar    1  UNL1       -0.0381
     11 C          -0.8165    2.3304    0.6511 C.ar    1  UNL1        0.0417
     12 C          -1.4351    1.1042    0.3502 C.ar    1  UNL1        0.0107
     13 C          -0.6183    0.0116    0.1819 C.ar    1  UNL1       -0.0312
     14 C          -2.8887    1.3058    0.2646 C.2     1  UNL1        0.0571
     15 C          -3.8083    0.3912    0.0271 C.2     1  UNL1        0.0372
     16 C          -5.2259    0.8493   -0.0164 C.ar    1  UNL1       -0.0109
     17 C          -5.8606    1.3526    1.0803 C.ar    1  UNL1       -0.0537
     18 C          -7.1867    1.7995    0.9983 C.ar    1  UNL1       -0.0585
     19 C          -7.8740    1.7378   -0.1936 C.ar    1  UNL1       -0.0264
     20 C          -7.2337    1.2301   -1.2976 C.ar    1  UNL1        0.1240
     21 F          -7.9077    1.1684   -2.4754 F       1  UNL1       -0.2055
     22 C          -5.9025    0.7856   -1.2012 C.ar    1  UNL1       -0.0186
     23 C          -3.6124   -1.0414   -0.0676 C.ar    1  UNL1        0.1394
     24 N          -3.1903   -1.8374    0.9188 N.ar    1  UNL1       -0.2360
     25 C          -3.1126   -3.1219    0.4651 C.ar    1  UNL1        0.0458
     26 C          -3.5040   -3.0967   -0.8486 C.ar    1  UNL1        0.0216
     27 N          -3.8037   -1.7991   -1.1405 N.ar    1  UNL1       -0.3444
     28 C          -3.0844    2.7311    0.5290 C.2     1  UNL1        0.2496
     29 O          -4.2017    3.3072    0.5399 O.2     1  UNL1       -0.2698
     30 N          -1.8162    3.3214    0.7597 N.am    1  UNL1       -0.2809
     31 C           3.4636   -0.3546   -1.1380 C.3     1  UNL1       -0.0217
     32 C           4.9449   -0.1012   -0.9843 C.3     1  UNL1        0.0006
     33 H           6.6151    1.3511    0.5124 H       1  UNL1        0.0242
     34 H           7.4036    1.0314   -1.0381 H       1  UNL1        0.0242
     35 H           8.3810    0.7961    0.4535 H       1  UNL1        0.0242
     36 H           7.2845   -1.2208   -0.9014 H       1  UNL1        0.0424
     37 H           7.4448   -1.3094    0.8716 H       1  UNL1        0.0424
     38 H           5.5460   -2.6714    1.0736 H       1  UNL1        0.0427
     39 H           5.6097   -2.7344   -0.7098 H       1  UNL1        0.0427
     40 H           3.2227   -3.0821    0.8805 H       1  UNL1        0.0295
     41 H           3.3600   -2.8060   -0.9086 H       1  UNL1        0.0295
     42 H           3.3656   -0.4677    1.0586 H       1  UNL1        0.0498
     43 H           1.1040   -1.9614   -0.0810 H       1  UNL1        0.1463
     44 H           2.4054    1.3780    0.7035 H       1  UNL1        0.0637
     45 H           0.9858    3.4111    1.0110 H       1  UNL1        0.0637
     46 H          -1.0536   -0.9371   -0.0798 H       1  UNL1        0.0643
     47 H          -5.3673    1.4091    2.0359 H       1  UNL1        0.0624
     48 H          -7.7046    2.2000    1.8503 H       1  UNL1        0.0619
     49 H          -8.9091    2.0909   -0.2395 H       1  UNL1        0.0646
     50 H          -5.4307    0.4036   -2.0725 H       1  UNL1        0.0652
     51 H          -2.8017   -3.9775    1.0437 H       1  UNL1        0.0845
     52 H          -3.5643   -3.9306   -1.5188 H       1  UNL1        0.0823
     53 H          -4.1293   -1.5500   -2.1175 H       1  UNL1        0.1668
     54 H          -1.6427    4.3229    0.9756 H       1  UNL1        0.1552
     55 H           2.8785    0.5059   -1.4286 H       1  UNL1        0.0295
     56 H           3.3605   -1.1632   -1.9182 H       1  UNL1        0.0295
     57 H           5.5171   -0.3890   -1.8939 H       1  UNL1        0.0427
     58 H           5.0879    0.9669   -0.7842 H       1  UNL1        0.0427
@<TRIPOS>BOND
     1     1     2    1
     2     2     3    1
     3     3     4    1
     4     4     5    1
     5     5     6    1
     6     6     7    1
     7     7     8    1
     8     8     9   ar
     9     9    10   ar
    10    10    11   ar
    11    11    12   ar
    12    12    13   ar
    13    12    14    1
    14    14    15    2
    15    15    16    1
    16    16    17   ar
    17    17    18   ar
    18    18    19   ar
    19    19    20   ar
    20    20    21    1
    21    20    22   ar
    22    15    23    1
    23    23    24   ar
    24    24    25   ar
    25    25    26   ar
    26    26    27   ar
    27    14    28    1
    28    28    29    2
    29    28    30   am
    30     6    31    1
    31    31    32    1
    32    32     3    1
    33    13     8   ar
    34    22    16   ar
    35    27    23   ar
    36    30    11    1
    37     1    33    1
    38     1    34    1
    39     1    35    1
    40     2    36    1
    41     2    37    1
    42     4    38    1
    43     4    39    1
    44     5    40    1
    45     5    41    1
    46     6    42    1
    47     7    43    1
    48     9    44    1
    49    10    45    1
    50    13    46    1
    51    17    47    1
    52    18    48    1
    53    19    49    1
    54    22    50    1
    55    25    51    1
    56    26    52    1
    57    27    53    1
    58    30    54    1
    59    31    55    1
    60    31    56    1
    61    32    57    1
    62    32    58    1
