
     RDKit          3D

 58 62  0  0  0  0  0  0  0  0999 V2000
    7.3844    0.6988    0.0224 C   0  0  0  0  0  0  0  0  0  0  0  0
    6.9390   -0.7576    0.0443 C   0  0  0  0  0  0  0  0  0  0  0  0
    5.4950   -0.8396    0.1395 N   0  0  0  0  0  0  0  0  0  0  0  0
    5.1056   -2.2208    0.1560 C   0  0  0  0  0  0  0  0  0  0  0  0
    3.5949   -2.4124    0.1067 C   0  0  0  0  0  0  0  0  0  0  0  0
    2.9946   -1.0155    0.1727 C   0  0  0  0  0  0  0  0  0  0  0  0
    1.5519   -1.0648    0.1090 N   0  0  0  0  0  0  0  0  0  0  0  0
    0.7662    0.1027    0.3049 C   0  0  0  0  0  0  0  0  0  0  0  0
    1.3128    1.3172    0.5997 C   0  0  0  0  0  0  0  0  0  0  0  0
    0.5617    2.4518    0.7796 C   0  0  0  0  0  0  0  0  0  0  0  0
   -0.8165    2.3304    0.6511 C   0  0  0  0  0  0  0  0  0  0  0  0
   -1.4351    1.1042    0.3502 C   0  0  0  0  0  0  0  0  0  0  0  0
   -0.6183    0.0116    0.1819 C   0  0  0  0  0  0  0  0  0  0  0  0
   -2.8887    1.3058    0.2646 C   0  0  0  0  0  0  0  0  0  0  0  0
   -3.8083    0.3912    0.0271 C   0  0  0  0  0  0  0  0  0  0  0  0
   -5.2259    0.8493   -0.0164 C   0  0  0  0  0  0  0  0  0  0  0  0
   -5.8606    1.3526    1.0803 C   0  0  0  0  0  0  0  0  0  0  0  0
   -7.1867    1.7995    0.9983 C   0  0  0  0  0  0  0  0  0  0  0  0
   -7.8740    1.7378   -0.1936 C   0  0  0  0  0  0  0  0  0  0  0  0
   -7.2337    1.2301   -1.2976 C   0  0  0  0  0  0  0  0  0  0  0  0
   -7.9077    1.1684   -2.4754 F   0  0  0  0  0  0  0  0  0  0  0  0
   -5.9025    0.7856   -1.2012 C   0  0  0  0  0  0  0  0  0  0  0  0
   -3.6124   -1.0414   -0.0676 C   0  0  0  0  0  0  0  0  0  0  0  0
   -3.1903   -1.8374    0.9188 N   0  0  0  0  0  0  0  0  0  0  0  0
   -3.1126   -3.1219    0.4651 C   0  0  0  0  0  0  0  0  0  0  0  0
   -3.5040   -3.0967   -0.8486 C   0  0  0  0  0  0  0  0  0  0  0  0
   -3.8037   -1.7991   -1.1405 N   0  0  0  0  0  0  0  0  0  0  0  0
   -3.0844    2.7311    0.5290 C   0  0  0  0  0  0  0  0  0  0  0  0
   -4.2017    3.3072    0.5399 O   0  0  0  0  0  0  0  0  0  0  0  0
   -1.8162    3.3214    0.7597 N   0  0  0  0  0  0  0  0  0  0  0  0
    3.4636   -0.3546   -1.1380 C   0  0  0  0  0  0  0  0  0  0  0  0
    4.9449   -0.1012   -0.9843 C   0  0  0  0  0  0  0  0  0  0  0  0
    6.6151    1.3511    0.5124 H   0  0  0  0  0  0  0  0  0  0  0  0
    7.4036    1.0314   -1.0381 H   0  0  0  0  0  0  0  0  0  0  0  0
    8.3810    0.7961    0.4535 H   0  0  0  0  0  0  0  0  0  0  0  0
    7.2845   -1.2208   -0.9014 H   0  0  0  0  0  0  0  0  0  0  0  0
    7.4448   -1.3094    0.8716 H   0  0  0  0  0  0  0  0  0  0  0  0
    5.5460   -2.6714    1.0736 H   0  0  0  0  0  0  0  0  0  0  0  0
    5.6097   -2.7344   -0.7098 H   0  0  0  0  0  0  0  0  0  0  0  0
    3.2227   -3.0821    0.8805 H   0  0  0  0  0  0  0  0  0  0  0  0
    3.3600   -2.8060   -0.9086 H   0  0  0  0  0  0  0  0  0  0  0  0
    3.3656   -0.4677    1.0586 H   0  0  0  0  0  0  0  0  0  0  0  0
    1.1040   -1.9614   -0.0810 H   0  0  0  0  0  0  0  0  0  0  0  0
    2.4054    1.3780    0.7035 H   0  0  0  0  0  0  0  0  0  0  0  0
    0.9858    3.4111    1.0110 H   0  0  0  0  0  0  0  0  0  0  0  0
   -1.0536   -0.9371   -0.0798 H   0  0  0  0  0  0  0  0  0  0  0  0
   -5.3673    1.4091    2.0359 H   0  0  0  0  0  0  0  0  0  0  0  0
   -7.7046    2.2000    1.8503 H   0  0  0  0  0  0  0  0  0  0  0  0
   -8.9091    2.0909   -0.2395 H   0  0  0  0  0  0  0  0  0  0  0  0
   -5.4307    0.4036   -2.0725 H   0  0  0  0  0  0  0  0  0  0  0  0
   -2.8017   -3.9775    1.0437 H   0  0  0  0  0  0  0  0  0  0  0  0
   -3.5643   -3.9306   -1.5188 H   0  0  0  0  0  0  0  0  0  0  0  0
   -4.1293   -1.5500   -2.1175 H   0  0  0  0  0  0  0  0  0  0  0  0
   -1.6427    4.3229    0.9756 H   0  0  0  0  0  0  0  0  0  0  0  0
    2.8785    0.5059   -1.4286 H   0  0  0  0  0  0  0  0  0  0  0  0
    3.3605   -1.1632   -1.9182 H   0  0  0  0  0  0  0  0  0  0  0  0
    5.5171   -0.3890   -1.8939 H   0  0  0  0  0  0  0  0  0  0  0  0
    5.0879    0.9669   -0.7842 H   0  0  0  0  0  0  0  0  0  0  0  0
  1  2  1  0
  2  3  1  0
  3  4  1  0
  4  5  1  0
  5  6  1  0
  6  7  1  0
  7  8  1  0
  8  9  2  0
  9 10  1  0
 10 11  2  0
 11 12  1  0
 12 13  2  0
 12 14  1  0
 14 15  2  3
 15 16  1  0
 16 17  2  0
 17 18  1  0
 18 19  2  0
 19 20  1  0
 20 21  1  0
 20 22  2  0
 15 23  1  0
 23 24  2  0
 24 25  1  0
 25 26  2  0
 26 27  1  0
 14 28  1  0
 28 29  2  0
 28 30  1  0
  6 31  1  0
 31 32  1  0
 32  3  1  0
 13  8  1  0
 22 16  1  0
 27 23  1  0
 30 11  1  0
  1 33  1  0
  1 34  1  0
  1 35  1  0
  2 36  1  0
  2 37  1  0
  4 38  1  0
  4 39  1  0
  5 40  1  0
  5 41  1  0
  6 42  1  0
  7 43  1  0
  9 44  1  0
 10 45  1  0
 13 46  1  0
 17 47  1  0
 18 48  1  0
 19 49  1  0
 22 50  1  0
 25 51  1  0
 26 52  1  0
 27 53  1  0
 30 54  1  0
 31 55  1  0
 31 56  1  0
 32 57  1  0
 32 58  1  0
M  END
$$$$
