@<TRIPOS>MOLECULE
*****
 45 48 0 0 0
SMALL
GASTEIGER

@<TRIPOS>ATOM
      1 C          -2.6281   -3.1058    0.3276 C.3     1  UNL1       -0.0529
      2 C          -2.8568   -1.9473   -0.6060 C.3     1  UNL1        0.0254
      3 C          -3.6522   -0.8694   -0.0451 C.ar    1  UNL1       -0.0375
      4 C          -3.6445   -0.5046    1.2828 C.ar    1  UNL1       -0.0559
      5 C          -4.3871    0.5050    1.8177 C.ar    1  UNL1       -0.0369
      6 C          -5.2540    1.2779    1.0002 C.ar    1  UNL1        0.0564
      7 N          -6.0100    2.2630    1.3931 N.ar    1  UNL1       -0.3158
      8 C          -6.7871    2.9292    0.5656 C.ar    1  UNL1        0.2890
      9 O          -7.5680    3.8570    0.6523 O.2     1  UNL1       -0.2596
     10 S          -6.4240    2.0560   -1.0448 S.2     1  UNL1       -0.0268
     11 C          -5.2515    0.9059   -0.3115 C.ar    1  UNL1        0.0408
     12 C          -4.5033   -0.1150   -0.8637 C.ar    1  UNL1       -0.0421
     13 C          -1.5133   -1.4430   -1.0700 C.ar    1  UNL1        0.0706
     14 C          -1.2039   -0.9609   -2.3232 C.ar    1  UNL1       -0.0199
     15 C           0.1284   -0.6210   -2.2816 C.ar    1  UNL1        0.0332
     16 N           0.6273   -0.8841   -1.0432 N.ar    1  UNL1       -0.2216
     17 C           1.9623   -0.6606   -0.6345 C.ar    1  UNL1        0.1541
     18 C           2.4767   -1.3210    0.4515 C.ar    1  UNL1       -0.0140
     19 C           3.7598   -1.1355    0.8824 C.ar    1  UNL1       -0.0149
     20 C           4.6275   -0.2311    0.2057 C.ar    1  UNL1        0.1388
     21 O           5.8831   -0.0749    0.6501 O.3     1  UNL1       -0.4882
     22 C           6.9503    0.6877    0.3286 C.3     1  UNL1        0.1126
     23 C           6.7801    2.1449    0.6101 C.3     1  UNL1        0.0783
     24 O           5.7607    2.7914   -0.0229 O.3     1  UNL1       -0.3917
     25 C           4.0647    0.4005   -0.8724 C.ar    1  UNL1        0.0716
     26 N           2.7710    0.1851   -1.2702 N.ar    1  UNL1       -0.2325
     27 N          -0.3922   -1.3733   -0.3573 N.ar    1  UNL1       -0.1694
     28 H          -1.6643   -2.9542    0.8797 H       1  UNL1        0.0239
     29 H          -3.4059   -3.2308    1.0832 H       1  UNL1        0.0239
     30 H          -2.4885   -4.0671   -0.2382 H       1  UNL1        0.0239
     31 H          -3.3575   -2.3323   -1.5192 H       1  UNL1        0.0410
     32 H          -2.9684   -1.1118    1.9048 H       1  UNL1        0.0621
     33 H          -4.2775    0.6748    2.8720 H       1  UNL1        0.0638
     34 H          -6.0559    2.6127    2.4473 H       1  UNL1        0.1694
     35 H          -4.5871   -0.3124   -1.9096 H       1  UNL1        0.0632
     36 H          -1.8299   -0.8513   -3.1861 H       1  UNL1        0.0651
     37 H           0.7361   -0.2084   -3.0694 H       1  UNL1        0.0831
     38 H           1.8767   -2.0384    1.0339 H       1  UNL1        0.0656
     39 H           4.1903   -1.6425    1.7344 H       1  UNL1        0.0656
     40 H           7.2058    0.6414   -0.7962 H       1  UNL1        0.0720
     41 H           7.9092    0.3339    0.8153 H       1  UNL1        0.0720
     42 H           6.5424    2.2131    1.7247 H       1  UNL1        0.0591
     43 H           7.7455    2.7095    0.4825 H       1  UNL1        0.0591
     44 H           6.0363    3.7277   -0.1937 H       1  UNL1        0.2095
     45 H           4.6772    1.0802   -1.4726 H       1  UNL1        0.0868
@<TRIPOS>BOND
     1     1     2    1
     2     2     3    1
     3     3     4   ar
     4     4     5   ar
     5     5     6   ar
     6     6     7   ar
     7     7     8   ar
     8     8     9    2
     9     8    10   ar
    10    10    11   ar
    11    11    12   ar
    12     2    13    1
    13    13    14   ar
    14    14    15   ar
    15    15    16   ar
    16    16    17    1
    17    17    18   ar
    18    18    19   ar
    19    19    20   ar
    20    20    21    1
    21    21    22    1
    22    22    23    1
    23    23    24    1
    24    20    25   ar
    25    25    26   ar
    26    16    27   ar
    27    12     3   ar
    28    27    13   ar
    29    11     6   ar
    30    26    17   ar
    31     1    28    1
    32     1    29    1
    33     1    30    1
    34     2    31    1
    35     4    32    1
    36     5    33    1
    37     7    34    1
    38    12    35    1
    39    14    36    1
    40    15    37    1
    41    18    38    1
    42    19    39    1
    43    22    40    1
    44    22    41    1
    45    23    42    1
    46    23    43    1
    47    24    44    1
    48    25    45    1
