@<TRIPOS>MOLECULE
*****
 39 40 0 0 0
SMALL
GASTEIGER

@<TRIPOS>ATOM
      1 C          -1.6009   -3.4199    1.7052 C.3     1  UNL1        0.0790
      2 O          -2.4050   -2.3258    1.3253 O.3     1  UNL1       -0.4913
      3 C          -1.9254   -1.3875    0.4381 C.ar    1  UNL1        0.1654
      4 C          -0.6475   -1.4990   -0.1018 C.ar    1  UNL1       -0.0126
      5 C          -0.1090   -0.6052   -0.9855 C.ar    1  UNL1       -0.0358
      6 C           1.2615   -0.7714   -1.5118 C.3     1  UNL1        0.0025
      7 C           2.2901    0.0339   -0.8480 C.ar    1  UNL1        0.0146
      8 C           2.7789    1.2180   -1.3743 C.ar    1  UNL1        0.0379
      9 N           3.7074    1.9620   -0.7606 N.ar    1  UNL1       -0.2227
     10 C           4.2064    1.5613    0.4278 C.ar    1  UNL1        0.2142
     11 N           5.1992    2.3517    1.0888 N.pl3   1  UNL1       -0.3274
     12 N           3.7524    0.4297    0.9514 N.ar    1  UNL1       -0.1999
     13 C           2.8043   -0.3663    0.3630 C.ar    1  UNL1        0.1247
     14 N           2.3976   -1.5673    1.0246 N.pl3   1  UNL1       -0.3428
     15 C          -0.8651    0.4729   -1.3733 C.ar    1  UNL1       -0.0126
     16 C          -2.1297    0.6113   -0.8589 C.ar    1  UNL1        0.1654
     17 O          -2.9290    1.7072   -1.2380 O.3     1  UNL1       -0.4913
     18 C          -2.3827    2.6290   -2.1554 C.3     1  UNL1        0.0790
     19 C          -2.6604   -0.3007    0.0347 C.ar    1  UNL1        0.2035
     20 O          -3.9400   -0.1701    0.5632 O.3     1  UNL1       -0.4885
     21 C          -4.0339    0.5746    1.7785 C.3     1  UNL1        0.0791
     22 H          -1.4466   -4.0649    0.8073 H       1  UNL1        0.0660
     23 H          -0.6353   -3.0839    2.1591 H       1  UNL1        0.0660
     24 H          -2.0904   -4.0465    2.4814 H       1  UNL1        0.0660
     25 H          -0.0872   -2.3917    0.2363 H       1  UNL1        0.0658
     26 H           1.2457   -0.4793   -2.5927 H       1  UNL1        0.0363
     27 H           1.5587   -1.8384   -1.4485 H       1  UNL1        0.0363
     28 H           2.3736    1.5347   -2.3250 H       1  UNL1        0.0834
     29 H           5.9860    2.7540    0.5542 H       1  UNL1        0.1452
     30 H           5.1236    2.5183    2.1113 H       1  UNL1        0.1452
     31 H           1.8571   -1.5910    1.9114 H       1  UNL1        0.1437
     32 H           2.6545   -2.4773    0.5987 H       1  UNL1        0.1437
     33 H          -0.4696    1.2216   -2.0873 H       1  UNL1        0.0658
     34 H          -2.1431    2.0760   -3.0918 H       1  UNL1        0.0660
     35 H          -3.1766    3.3664   -2.3738 H       1  UNL1        0.0660
     36 H          -1.4631    3.0793   -1.7591 H       1  UNL1        0.0660
     37 H          -3.4113    1.4799    1.6500 H       1  UNL1        0.0660
     38 H          -3.5682   -0.0069    2.6197 H       1  UNL1        0.0660
     39 H          -5.0769    0.8112    2.0559 H       1  UNL1        0.0660
@<TRIPOS>BOND
     1     1     2    1
     2     2     3    1
     3     3     4   ar
     4     4     5   ar
     5     5     6    1
     6     6     7    1
     7     7     8   ar
     8     8     9   ar
     9     9    10   ar
    10    10    11    1
    11    10    12   ar
    12    12    13   ar
    13    13    14    1
    14     5    15   ar
    15    15    16   ar
    16    16    17    1
    17    17    18    1
    18    16    19   ar
    19    19    20    1
    20    20    21    1
    21    19     3   ar
    22    13     7   ar
    23     1    22    1
    24     1    23    1
    25     1    24    1
    26     4    25    1
    27     6    26    1
    28     6    27    1
    29     8    28    1
    30    11    29    1
    31    11    30    1
    32    14    31    1
    33    14    32    1
    34    15    33    1
    35    18    34    1
    36    18    35    1
    37    18    36    1
    38    21    37    1
    39    21    38    1
    40    21    39    1
