
     RDKit          3D

 39 40  0  0  0  0  0  0  0  0999 V2000
   -1.6009   -3.4199    1.7052 C   0  0  0  0  0  0  0  0  0  0  0  0
   -2.4050   -2.3258    1.3253 O   0  0  0  0  0  0  0  0  0  0  0  0
   -1.9254   -1.3875    0.4381 C   0  0  0  0  0  0  0  0  0  0  0  0
   -0.6475   -1.4990   -0.1018 C   0  0  0  0  0  0  0  0  0  0  0  0
   -0.1090   -0.6052   -0.9855 C   0  0  0  0  0  0  0  0  0  0  0  0
    1.2615   -0.7714   -1.5118 C   0  0  0  0  0  0  0  0  0  0  0  0
    2.2901    0.0339   -0.8480 C   0  0  0  0  0  0  0  0  0  0  0  0
    2.7789    1.2180   -1.3743 C   0  0  0  0  0  0  0  0  0  0  0  0
    3.7074    1.9620   -0.7606 N   0  0  0  0  0  0  0  0  0  0  0  0
    4.2064    1.5613    0.4278 C   0  0  0  0  0  0  0  0  0  0  0  0
    5.1992    2.3517    1.0888 N   0  0  0  0  0  0  0  0  0  0  0  0
    3.7524    0.4297    0.9514 N   0  0  0  0  0  0  0  0  0  0  0  0
    2.8043   -0.3663    0.3630 C   0  0  0  0  0  0  0  0  0  0  0  0
    2.3976   -1.5673    1.0246 N   0  0  0  0  0  0  0  0  0  0  0  0
   -0.8651    0.4729   -1.3733 C   0  0  0  0  0  0  0  0  0  0  0  0
   -2.1297    0.6113   -0.8589 C   0  0  0  0  0  0  0  0  0  0  0  0
   -2.9290    1.7072   -1.2380 O   0  0  0  0  0  0  0  0  0  0  0  0
   -2.3827    2.6290   -2.1554 C   0  0  0  0  0  0  0  0  0  0  0  0
   -2.6604   -0.3007    0.0347 C   0  0  0  0  0  0  0  0  0  0  0  0
   -3.9400   -0.1701    0.5632 O   0  0  0  0  0  0  0  0  0  0  0  0
   -4.0339    0.5746    1.7785 C   0  0  0  0  0  0  0  0  0  0  0  0
   -1.4466   -4.0649    0.8073 H   0  0  0  0  0  0  0  0  0  0  0  0
   -0.6353   -3.0839    2.1591 H   0  0  0  0  0  0  0  0  0  0  0  0
   -2.0904   -4.0465    2.4814 H   0  0  0  0  0  0  0  0  0  0  0  0
   -0.0872   -2.3917    0.2363 H   0  0  0  0  0  0  0  0  0  0  0  0
    1.2457   -0.4793   -2.5927 H   0  0  0  0  0  0  0  0  0  0  0  0
    1.5587   -1.8384   -1.4485 H   0  0  0  0  0  0  0  0  0  0  0  0
    2.3736    1.5347   -2.3250 H   0  0  0  0  0  0  0  0  0  0  0  0
    5.9860    2.7540    0.5542 H   0  0  0  0  0  0  0  0  0  0  0  0
    5.1236    2.5183    2.1113 H   0  0  0  0  0  0  0  0  0  0  0  0
    1.8571   -1.5910    1.9114 H   0  0  0  0  0  0  0  0  0  0  0  0
    2.6545   -2.4773    0.5987 H   0  0  0  0  0  0  0  0  0  0  0  0
   -0.4696    1.2216   -2.0873 H   0  0  0  0  0  0  0  0  0  0  0  0
   -2.1431    2.0760   -3.0918 H   0  0  0  0  0  0  0  0  0  0  0  0
   -3.1766    3.3664   -2.3738 H   0  0  0  0  0  0  0  0  0  0  0  0
   -1.4631    3.0793   -1.7591 H   0  0  0  0  0  0  0  0  0  0  0  0
   -3.4113    1.4799    1.6500 H   0  0  0  0  0  0  0  0  0  0  0  0
   -3.5682   -0.0069    2.6197 H   0  0  0  0  0  0  0  0  0  0  0  0
   -5.0769    0.8112    2.0559 H   0  0  0  0  0  0  0  0  0  0  0  0
  1  2  1  0
  2  3  1  0
  3  4  2  0
  4  5  1  0
  5  6  1  0
  6  7  1  0
  7  8  2  0
  8  9  1  0
  9 10  2  0
 10 11  1  0
 10 12  1  0
 12 13  2  0
 13 14  1  0
  5 15  2  0
 15 16  1  0
 16 17  1  0
 17 18  1  0
 16 19  2  0
 19 20  1  0
 20 21  1  0
 19  3  1  0
 13  7  1  0
  1 22  1  0
  1 23  1  0
  1 24  1  0
  4 25  1  0
  6 26  1  0
  6 27  1  0
  8 28  1  0
 11 29  1  0
 11 30  1  0
 14 31  1  0
 14 32  1  0
 15 33  1  0
 18 34  1  0
 18 35  1  0
 18 36  1  0
 21 37  1  0
 21 38  1  0
 21 39  1  0
M  END
$$$$
