@<TRIPOS>MOLECULE
*****
 58 62 0 0 0
SMALL
GASTEIGER

@<TRIPOS>ATOM
      1 C           7.5718    0.3093    1.1906 C.3     1  UNL1       -0.0524
      2 C           6.4464    1.0017    0.4753 C.3     1  UNL1       -0.0039
      3 N           5.4142    1.4591    1.3823 N.3     1  UNL1       -0.3025
      4 C           4.6832    0.3742    1.9963 C.3     1  UNL1        0.0006
      5 C           4.0261   -0.4424    0.9410 C.3     1  UNL1       -0.0217
      6 C           3.1726    0.4199    0.0292 C.3     1  UNL1        0.0230
      7 N           1.8024   -0.0377    0.0468 N.pl3   1  UNL1       -0.3409
      8 C           0.7962    0.3105   -0.8715 C.ar    1  UNL1        0.0280
      9 C           1.0639    1.0943   -1.9653 C.ar    1  UNL1       -0.0391
     10 C           0.0374    1.4240   -2.8161 C.ar    1  UNL1       -0.0381
     11 C          -1.2541    0.9802   -2.5875 C.ar    1  UNL1        0.0417
     12 C          -1.5605    0.1777   -1.4768 C.ar    1  UNL1        0.0107
     13 C          -0.5126   -0.1348   -0.6479 C.ar    1  UNL1       -0.0312
     14 C          -2.9857   -0.1434   -1.5146 C.2     1  UNL1        0.0571
     15 C          -3.6569   -0.8383   -0.6491 C.2     1  UNL1        0.0371
     16 C          -5.1097   -1.1059   -0.7953 C.ar    1  UNL1       -0.0136
     17 C          -6.0458   -0.1107   -0.8639 C.ar    1  UNL1       -0.0525
     18 C          -7.4020   -0.3743   -1.0345 C.ar    1  UNL1       -0.0428
     19 C          -7.7684   -1.6988   -1.1315 C.ar    1  UNL1        0.0410
     20 CL         -9.4805   -2.0709   -1.3486 Cl      1  UNL1       -0.0835
     21 C          -6.8678   -2.7425   -1.0678 C.ar    1  UNL1       -0.0428
     22 C          -5.5163   -2.4167   -0.8960 C.ar    1  UNL1       -0.0525
     23 C          -3.1462   -1.3337    0.6292 C.ar    1  UNL1        0.1394
     24 N          -3.0475   -2.5560    1.1255 N.ar    1  UNL1       -0.2360
     25 C          -2.6075   -2.5586    2.3855 C.ar    1  UNL1        0.0458
     26 C          -2.4098   -1.2309    2.7191 C.ar    1  UNL1        0.0216
     27 N          -2.7438   -0.5080    1.6365 N.ar    1  UNL1       -0.3444
     28 C          -3.4834    0.5220   -2.7260 C.2     1  UNL1        0.2496
     29 O          -4.6787    0.4710   -3.1076 O.2     1  UNL1       -0.2698
     30 N          -2.4188    1.2046   -3.3699 N.am    1  UNL1       -0.2809
     31 C           3.1553    1.8489    0.5119 C.3     1  UNL1       -0.0217
     32 C           4.5370    2.4059    0.7314 C.3     1  UNL1        0.0006
     33 H           8.4454    0.3148    0.5043 H       1  UNL1        0.0242
     34 H           7.8608    0.8506    2.1025 H       1  UNL1        0.0242
     35 H           7.3396   -0.7641    1.3846 H       1  UNL1        0.0242
     36 H           6.0779    0.4162   -0.3665 H       1  UNL1        0.0424
     37 H           6.8878    1.9388    0.0317 H       1  UNL1        0.0424
     38 H           3.9453    0.8300    2.6811 H       1  UNL1        0.0427
     39 H           5.3994   -0.2053    2.5938 H       1  UNL1        0.0427
     40 H           3.3713   -1.2025    1.4133 H       1  UNL1        0.0295
     41 H           4.8067   -0.9970    0.3687 H       1  UNL1        0.0295
     42 H           3.5599    0.3389   -0.9907 H       1  UNL1        0.0498
     43 H           1.5344   -0.7037    0.8346 H       1  UNL1        0.1463
     44 H           2.0744    1.4579   -2.1994 H       1  UNL1        0.0637
     45 H           0.2435    2.0493   -3.6906 H       1  UNL1        0.0637
     46 H          -0.6874   -0.7854    0.2115 H       1  UNL1        0.0643
     47 H          -5.7460    0.9382   -0.7591 H       1  UNL1        0.0624
     48 H          -8.1329    0.4151   -1.0883 H       1  UNL1        0.0632
     49 H          -7.1733   -3.7825   -1.1454 H       1  UNL1        0.0632
     50 H          -4.7629   -3.1895   -0.8387 H       1  UNL1        0.0624
     51 H          -2.4487   -3.4346    2.9941 H       1  UNL1        0.0845
     52 H          -2.0512   -0.8951    3.6870 H       1  UNL1        0.0823
     53 H          -2.6886    0.5322    1.6119 H       1  UNL1        0.1668
     54 H          -2.5208    1.7511   -4.2450 H       1  UNL1        0.1552
     55 H           2.5655    1.9052    1.4481 H       1  UNL1        0.0295
     56 H           2.6515    2.4775   -0.2260 H       1  UNL1        0.0295
     57 H           4.4309    3.2754    1.4170 H       1  UNL1        0.0427
     58 H           5.0072    2.7686   -0.1888 H       1  UNL1        0.0427
@<TRIPOS>BOND
     1     1     2    1
     2     2     3    1
     3     3     4    1
     4     4     5    1
     5     5     6    1
     6     6     7    1
     7     7     8    1
     8     8     9   ar
     9     9    10   ar
    10    10    11   ar
    11    11    12   ar
    12    12    13   ar
    13    12    14    1
    14    14    15    2
    15    15    16    1
    16    16    17   ar
    17    17    18   ar
    18    18    19   ar
    19    19    20    1
    20    19    21   ar
    21    21    22   ar
    22    15    23    1
    23    23    24   ar
    24    24    25   ar
    25    25    26   ar
    26    26    27   ar
    27    14    28    1
    28    28    29    2
    29    28    30   am
    30     6    31    1
    31    31    32    1
    32    32     3    1
    33    13     8   ar
    34    22    16   ar
    35    27    23   ar
    36    30    11    1
    37     1    33    1
    38     1    34    1
    39     1    35    1
    40     2    36    1
    41     2    37    1
    42     4    38    1
    43     4    39    1
    44     5    40    1
    45     5    41    1
    46     6    42    1
    47     7    43    1
    48     9    44    1
    49    10    45    1
    50    13    46    1
    51    17    47    1
    52    18    48    1
    53    21    49    1
    54    22    50    1
    55    25    51    1
    56    26    52    1
    57    27    53    1
    58    30    54    1
    59    31    55    1
    60    31    56    1
    61    32    57    1
    62    32    58    1
