
     RDKit          3D

 58 62  0  0  0  0  0  0  0  0999 V2000
    7.5718    0.3093    1.1906 C   0  0  0  0  0  0  0  0  0  0  0  0
    6.4464    1.0017    0.4753 C   0  0  0  0  0  0  0  0  0  0  0  0
    5.4142    1.4591    1.3823 N   0  0  0  0  0  0  0  0  0  0  0  0
    4.6832    0.3742    1.9963 C   0  0  0  0  0  0  0  0  0  0  0  0
    4.0261   -0.4424    0.9410 C   0  0  0  0  0  0  0  0  0  0  0  0
    3.1726    0.4199    0.0292 C   0  0  0  0  0  0  0  0  0  0  0  0
    1.8024   -0.0377    0.0468 N   0  0  0  0  0  0  0  0  0  0  0  0
    0.7962    0.3105   -0.8715 C   0  0  0  0  0  0  0  0  0  0  0  0
    1.0639    1.0943   -1.9653 C   0  0  0  0  0  0  0  0  0  0  0  0
    0.0374    1.4240   -2.8161 C   0  0  0  0  0  0  0  0  0  0  0  0
   -1.2541    0.9802   -2.5875 C   0  0  0  0  0  0  0  0  0  0  0  0
   -1.5605    0.1777   -1.4768 C   0  0  0  0  0  0  0  0  0  0  0  0
   -0.5126   -0.1348   -0.6479 C   0  0  0  0  0  0  0  0  0  0  0  0
   -2.9857   -0.1434   -1.5146 C   0  0  0  0  0  0  0  0  0  0  0  0
   -3.6569   -0.8383   -0.6491 C   0  0  0  0  0  0  0  0  0  0  0  0
   -5.1097   -1.1059   -0.7953 C   0  0  0  0  0  0  0  0  0  0  0  0
   -6.0458   -0.1107   -0.8639 C   0  0  0  0  0  0  0  0  0  0  0  0
   -7.4020   -0.3743   -1.0345 C   0  0  0  0  0  0  0  0  0  0  0  0
   -7.7684   -1.6988   -1.1315 C   0  0  0  0  0  0  0  0  0  0  0  0
   -9.4805   -2.0709   -1.3486 Cl  0  0  0  0  0  0  0  0  0  0  0  0
   -6.8678   -2.7425   -1.0678 C   0  0  0  0  0  0  0  0  0  0  0  0
   -5.5163   -2.4167   -0.8960 C   0  0  0  0  0  0  0  0  0  0  0  0
   -3.1462   -1.3337    0.6292 C   0  0  0  0  0  0  0  0  0  0  0  0
   -3.0475   -2.5560    1.1255 N   0  0  0  0  0  0  0  0  0  0  0  0
   -2.6075   -2.5586    2.3855 C   0  0  0  0  0  0  0  0  0  0  0  0
   -2.4098   -1.2309    2.7191 C   0  0  0  0  0  0  0  0  0  0  0  0
   -2.7438   -0.5080    1.6365 N   0  0  0  0  0  0  0  0  0  0  0  0
   -3.4834    0.5220   -2.7260 C   0  0  0  0  0  0  0  0  0  0  0  0
   -4.6787    0.4710   -3.1076 O   0  0  0  0  0  0  0  0  0  0  0  0
   -2.4188    1.2046   -3.3699 N   0  0  0  0  0  0  0  0  0  0  0  0
    3.1553    1.8489    0.5119 C   0  0  0  0  0  0  0  0  0  0  0  0
    4.5370    2.4059    0.7314 C   0  0  0  0  0  0  0  0  0  0  0  0
    8.4454    0.3148    0.5043 H   0  0  0  0  0  0  0  0  0  0  0  0
    7.8608    0.8506    2.1025 H   0  0  0  0  0  0  0  0  0  0  0  0
    7.3396   -0.7641    1.3846 H   0  0  0  0  0  0  0  0  0  0  0  0
    6.0779    0.4162   -0.3665 H   0  0  0  0  0  0  0  0  0  0  0  0
    6.8878    1.9388    0.0317 H   0  0  0  0  0  0  0  0  0  0  0  0
    3.9453    0.8300    2.6811 H   0  0  0  0  0  0  0  0  0  0  0  0
    5.3994   -0.2053    2.5938 H   0  0  0  0  0  0  0  0  0  0  0  0
    3.3713   -1.2025    1.4133 H   0  0  0  0  0  0  0  0  0  0  0  0
    4.8067   -0.9970    0.3687 H   0  0  0  0  0  0  0  0  0  0  0  0
    3.5599    0.3389   -0.9907 H   0  0  0  0  0  0  0  0  0  0  0  0
    1.5344   -0.7037    0.8346 H   0  0  0  0  0  0  0  0  0  0  0  0
    2.0744    1.4579   -2.1994 H   0  0  0  0  0  0  0  0  0  0  0  0
    0.2435    2.0493   -3.6906 H   0  0  0  0  0  0  0  0  0  0  0  0
   -0.6874   -0.7854    0.2115 H   0  0  0  0  0  0  0  0  0  0  0  0
   -5.7460    0.9382   -0.7591 H   0  0  0  0  0  0  0  0  0  0  0  0
   -8.1329    0.4151   -1.0883 H   0  0  0  0  0  0  0  0  0  0  0  0
   -7.1733   -3.7825   -1.1454 H   0  0  0  0  0  0  0  0  0  0  0  0
   -4.7629   -3.1895   -0.8387 H   0  0  0  0  0  0  0  0  0  0  0  0
   -2.4487   -3.4346    2.9941 H   0  0  0  0  0  0  0  0  0  0  0  0
   -2.0512   -0.8951    3.6870 H   0  0  0  0  0  0  0  0  0  0  0  0
   -2.6886    0.5322    1.6119 H   0  0  0  0  0  0  0  0  0  0  0  0
   -2.5208    1.7511   -4.2450 H   0  0  0  0  0  0  0  0  0  0  0  0
    2.5655    1.9052    1.4481 H   0  0  0  0  0  0  0  0  0  0  0  0
    2.6515    2.4775   -0.2260 H   0  0  0  0  0  0  0  0  0  0  0  0
    4.4309    3.2754    1.4170 H   0  0  0  0  0  0  0  0  0  0  0  0
    5.0072    2.7686   -0.1888 H   0  0  0  0  0  0  0  0  0  0  0  0
  1  2  1  0
  2  3  1  0
  3  4  1  0
  4  5  1  0
  5  6  1  0
  6  7  1  0
  7  8  1  0
  8  9  2  0
  9 10  1  0
 10 11  2  0
 11 12  1  0
 12 13  2  0
 12 14  1  0
 14 15  2  3
 15 16  1  0
 16 17  2  0
 17 18  1  0
 18 19  2  0
 19 20  1  0
 19 21  1  0
 21 22  2  0
 15 23  1  0
 23 24  2  0
 24 25  1  0
 25 26  2  0
 26 27  1  0
 14 28  1  0
 28 29  2  0
 28 30  1  0
  6 31  1  0
 31 32  1  0
 32  3  1  0
 13  8  1  0
 22 16  1  0
 27 23  1  0
 30 11  1  0
  1 33  1  0
  1 34  1  0
  1 35  1  0
  2 36  1  0
  2 37  1  0
  4 38  1  0
  4 39  1  0
  5 40  1  0
  5 41  1  0
  6 42  1  0
  7 43  1  0
  9 44  1  0
 10 45  1  0
 13 46  1  0
 17 47  1  0
 18 48  1  0
 21 49  1  0
 22 50  1  0
 25 51  1  0
 26 52  1  0
 27 53  1  0
 30 54  1  0
 31 55  1  0
 31 56  1  0
 32 57  1  0
 32 58  1  0
M  END
$$$$
