@<TRIPOS>MOLECULE
*****
 80 84 0 0 0
SMALL
GASTEIGER

@<TRIPOS>ATOM
      1 C          -8.2875    1.8095    1.1837 C.3     1  UNL1        0.0000
      2 C          -8.4417    0.3218    1.3403 C.3     1  UNL1        0.0000
      3 C          -9.1560   -0.2191    0.1068 C.3     1  UNL1        0.0000
      4 C          -9.3508    0.0088    2.5243 C.3     1  UNL1        0.0000
      5 SI         -6.8061   -0.5206    1.6024 Si      1  UNL1        0.0000
      6 C          -6.8695   -2.1891    0.7476 C.3     1  UNL1        0.0000
      7 C          -6.5296   -0.7836    3.4368 C.3     1  UNL1        0.0000
      8 O          -5.4866    0.3767    0.9662 O.3     1  UNL1        0.0000
      9 C          -4.4069   -0.1695    0.3030 C.ar    1  UNL1        0.0000
     10 C          -4.4676   -0.6296   -0.9948 C.ar    1  UNL1        0.0000
     11 C          -3.3578   -1.1715   -1.6246 C.ar    1  UNL1        0.0000
     12 C          -2.1509   -1.2657   -0.9625 C.ar    1  UNL1        0.0000
     13 C          -0.9459   -1.8404   -1.6131 C.3     1  UNL1        0.0000
     14 N          -0.1857   -0.8149   -2.2998 N.am    1  UNL1        0.0000
     15 C          -0.4273   -0.4458   -3.6641 C.2     1  UNL1        0.0000
     16 O          -1.2992   -0.9401   -4.4309 O.2     1  UNL1        0.0000
     17 C           0.5387    0.6001   -3.9490 C.2     1  UNL1        0.0000
     18 O           0.6473    1.1875   -5.0496 O.2     1  UNL1        0.0000
     19 C           1.3400    0.8372   -2.7502 C.ar    1  UNL1        0.0000
     20 C           2.3765    1.6972   -2.4595 C.ar    1  UNL1        0.0000
     21 C           2.9903    1.7406   -1.2284 C.ar    1  UNL1        0.0000
     22 S           4.3065    2.8715   -0.9110 S.O2    1  UNL1        0.0000
     23 O           3.9959    4.1004   -1.7391 O.2     1  UNL1        0.0000
     24 O           4.2366    3.2641    0.5332 O.2     1  UNL1        0.0000
     25 N           5.8306    2.2803   -1.3500 N.3     1  UNL1        0.0000
     26 C           6.0213    1.9765   -2.7241 C.3     1  UNL1        0.0000
     27 C           5.8824    0.4936   -2.8737 C.3     1  UNL1        0.0000
     28 C           5.8029   -0.0892   -1.5078 C.3     1  UNL1        0.0000
     29 C           6.2078    1.1077   -0.6219 C.3     1  UNL1        0.0000
     30 C           7.7186    0.9818   -0.5027 C.3     1  UNL1        0.0000
     31 O           8.0557   -0.1386    0.2122 O.3     1  UNL1        0.0000
     32 C           7.8651   -0.5133    1.5060 C.ar    1  UNL1        0.0000
     33 C           7.2662    0.2287    2.4862 C.ar    1  UNL1        0.0000
     34 C           7.0930   -0.2155    3.8042 C.ar    1  UNL1        0.0000
     35 C           7.5430   -1.4670    4.1625 C.ar    1  UNL1        0.0000
     36 C           8.1505   -2.2284    3.1871 C.ar    1  UNL1        0.0000
     37 C           8.3162   -1.7891    1.9011 C.ar    1  UNL1        0.0000
     38 C           2.5359    0.8794   -0.2560 C.ar    1  UNL1        0.0000
     39 C           1.5034    0.0186   -0.5354 C.ar    1  UNL1        0.0000
     40 C           0.8773   -0.0378   -1.7629 C.ar    1  UNL1        0.0000
     41 C          -2.0885   -0.8068    0.3336 C.ar    1  UNL1        0.0000
     42 C          -3.2059   -0.2629    0.9631 C.ar    1  UNL1        0.0000
     43 H          -8.1700    2.2790    2.1670 H       1  UNL1        0.0000
     44 H          -7.4117    1.9894    0.5165 H       1  UNL1        0.0000
     45 H          -9.2181    2.1917    0.7198 H       1  UNL1        0.0000
     46 H          -9.7264   -1.1427    0.3571 H       1  UNL1        0.0000
     47 H          -8.4562   -0.4343   -0.7097 H       1  UNL1        0.0000
     48 H          -9.8929    0.5407   -0.1936 H       1  UNL1        0.0000
     49 H          -8.9969    0.5068    3.4479 H       1  UNL1        0.0000
     50 H          -9.4498   -1.0825    2.6075 H       1  UNL1        0.0000
     51 H         -10.3438    0.4332    2.2692 H       1  UNL1        0.0000
     52 H          -7.1889   -2.0237   -0.3112 H       1  UNL1        0.0000
     53 H          -7.6453   -2.7925    1.2395 H       1  UNL1        0.0000
     54 H          -5.8910   -2.7141    0.8006 H       1  UNL1        0.0000
     55 H          -5.4811   -1.0710    3.6010 H       1  UNL1        0.0000
     56 H          -7.1924   -1.5896    3.8041 H       1  UNL1        0.0000
     57 H          -6.7040    0.1723    3.9630 H       1  UNL1        0.0000
     58 H          -5.4130   -0.5614   -1.5286 H       1  UNL1        0.0000
     59 H          -3.4047   -1.5326   -2.6433 H       1  UNL1        0.0000
     60 H          -0.3159   -2.4103   -0.9004 H       1  UNL1        0.0000
     61 H          -1.2917   -2.5671   -2.3712 H       1  UNL1        0.0000
     62 H           2.7460    2.3878   -3.2273 H       1  UNL1        0.0000
     63 H           7.0255    2.3414   -3.0830 H       1  UNL1        0.0000
     64 H           5.2857    2.5446   -3.3331 H       1  UNL1        0.0000
     65 H           5.0474    0.1959   -3.5406 H       1  UNL1        0.0000
     66 H           6.8146    0.1183   -3.3753 H       1  UNL1        0.0000
     67 H           6.5594   -0.9198   -1.3880 H       1  UNL1        0.0000
     68 H           4.8514   -0.5271   -1.2193 H       1  UNL1        0.0000
     69 H           5.7510    1.0198    0.3583 H       1  UNL1        0.0000
     70 H           8.1548    1.9082   -0.0508 H       1  UNL1        0.0000
     71 H           8.1761    0.8570   -1.5311 H       1  UNL1        0.0000
     72 H           6.9212    1.2408    2.2409 H       1  UNL1        0.0000
     73 H           6.6040    0.4301    4.5402 H       1  UNL1        0.0000
     74 H           7.4273   -1.8425    5.1670 H       1  UNL1        0.0000
     75 H           8.5213   -3.2240    3.4285 H       1  UNL1        0.0000
     76 H           8.7940   -2.3889    1.1351 H       1  UNL1        0.0000
     77 H           3.0054    0.8948    0.7260 H       1  UNL1        0.0000
     78 H           1.1241   -0.6796    0.2265 H       1  UNL1        0.0000
     79 H          -1.1713   -0.8673    0.8699 H       1  UNL1        0.0000
     80 H          -3.0824    0.0758    1.9786 H       1  UNL1        0.0000
@<TRIPOS>BOND
     1     1     2    1
     2     2     3    1
     3     2     4    1
     4     2     5    1
     5     5     6    1
     6     5     7    1
     7     5     8    1
     8     8     9    1
     9     9    10   ar
    10    10    11   ar
    11    11    12   ar
    12    12    13    1
    13    13    14    1
    14    14    15   am
    15    15    16    2
    16    15    17    1
    17    17    18    2
    18    17    19    1
    19    19    20   ar
    20    20    21   ar
    21    21    22    1
    22    22    23    2
    23    22    24    2
    24    22    25    1
    25    25    26    1
    26    26    27    1
    27    27    28    1
    28    28    29    1
    29    29    30    1
    30    30    31    1
    31    31    32    1
    32    32    33   ar
    33    33    34   ar
    34    34    35   ar
    35    35    36   ar
    36    36    37   ar
    37    21    38   ar
    38    38    39   ar
    39    39    40   ar
    40    12    41   ar
    41    41    42   ar
    42    42     9   ar
    43    40    14    1
    44    40    19   ar
    45    29    25    1
    46    37    32   ar
    47     1    43    1
    48     1    44    1
    49     1    45    1
    50     3    46    1
    51     3    47    1
    52     3    48    1
    53     4    49    1
    54     4    50    1
    55     4    51    1
    56     6    52    1
    57     6    53    1
    58     6    54    1
    59     7    55    1
    60     7    56    1
    61     7    57    1
    62    10    58    1
    63    11    59    1
    64    13    60    1
    65    13    61    1
    66    20    62    1
    67    26    63    1
    68    26    64    1
    69    27    65    1
    70    27    66    1
    71    28    67    1
    72    28    68    1
    73    29    69    1
    74    30    70    1
    75    30    71    1
    76    33    72    1
    77    34    73    1
    78    35    74    1
    79    36    75    1
    80    37    76    1
    81    38    77    1
    82    39    78    1
    83    41    79    1
    84    42    80    1
