
     RDKit          3D

 80 84  0  0  0  0  0  0  0  0999 V2000
   -8.2875    1.8095    1.1837 C   0  0  0  0  0  0  0  0  0  0  0  0
   -8.4417    0.3218    1.3403 C   0  0  0  0  0  0  0  0  0  0  0  0
   -9.1560   -0.2191    0.1068 C   0  0  0  0  0  0  0  0  0  0  0  0
   -9.3508    0.0088    2.5243 C   0  0  0  0  0  0  0  0  0  0  0  0
   -6.8061   -0.5206    1.6024 Si  0  0  0  0  0  4  0  0  0  0  0  0
   -6.8695   -2.1891    0.7476 C   0  0  0  0  0  0  0  0  0  0  0  0
   -6.5296   -0.7836    3.4368 C   0  0  0  0  0  0  0  0  0  0  0  0
   -5.4866    0.3767    0.9662 O   0  0  0  0  0  0  0  0  0  0  0  0
   -4.4069   -0.1695    0.3030 C   0  0  0  0  0  0  0  0  0  0  0  0
   -4.4676   -0.6296   -0.9948 C   0  0  0  0  0  0  0  0  0  0  0  0
   -3.3578   -1.1715   -1.6246 C   0  0  0  0  0  0  0  0  0  0  0  0
   -2.1509   -1.2657   -0.9625 C   0  0  0  0  0  0  0  0  0  0  0  0
   -0.9459   -1.8404   -1.6131 C   0  0  0  0  0  0  0  0  0  0  0  0
   -0.1857   -0.8149   -2.2998 N   0  0  0  0  0  0  0  0  0  0  0  0
   -0.4273   -0.4458   -3.6641 C   0  0  0  0  0  0  0  0  0  0  0  0
   -1.2992   -0.9401   -4.4309 O   0  0  0  0  0  0  0  0  0  0  0  0
    0.5387    0.6001   -3.9490 C   0  0  0  0  0  0  0  0  0  0  0  0
    0.6473    1.1875   -5.0496 O   0  0  0  0  0  0  0  0  0  0  0  0
    1.3400    0.8372   -2.7502 C   0  0  0  0  0  0  0  0  0  0  0  0
    2.3765    1.6972   -2.4595 C   0  0  0  0  0  0  0  0  0  0  0  0
    2.9903    1.7406   -1.2284 C   0  0  0  0  0  0  0  0  0  0  0  0
    4.3065    2.8715   -0.9110 S   0  0  0  0  0  6  0  0  0  0  0  0
    3.9959    4.1004   -1.7391 O   0  0  0  0  0  0  0  0  0  0  0  0
    4.2366    3.2641    0.5332 O   0  0  0  0  0  0  0  0  0  0  0  0
    5.8306    2.2803   -1.3500 N   0  0  0  0  0  0  0  0  0  0  0  0
    6.0213    1.9765   -2.7241 C   0  0  0  0  0  0  0  0  0  0  0  0
    5.8824    0.4936   -2.8737 C   0  0  0  0  0  0  0  0  0  0  0  0
    5.8029   -0.0892   -1.5078 C   0  0  0  0  0  0  0  0  0  0  0  0
    6.2078    1.1077   -0.6219 C   0  0  1  0  0  0  0  0  0  0  0  0
    7.7186    0.9818   -0.5027 C   0  0  0  0  0  0  0  0  0  0  0  0
    8.0557   -0.1386    0.2122 O   0  0  0  0  0  0  0  0  0  0  0  0
    7.8651   -0.5133    1.5060 C   0  0  0  0  0  0  0  0  0  0  0  0
    7.2662    0.2287    2.4862 C   0  0  0  0  0  0  0  0  0  0  0  0
    7.0930   -0.2155    3.8042 C   0  0  0  0  0  0  0  0  0  0  0  0
    7.5430   -1.4670    4.1625 C   0  0  0  0  0  0  0  0  0  0  0  0
    8.1505   -2.2284    3.1871 C   0  0  0  0  0  0  0  0  0  0  0  0
    8.3162   -1.7891    1.9011 C   0  0  0  0  0  0  0  0  0  0  0  0
    2.5359    0.8794   -0.2560 C   0  0  0  0  0  0  0  0  0  0  0  0
    1.5034    0.0186   -0.5354 C   0  0  0  0  0  0  0  0  0  0  0  0
    0.8773   -0.0378   -1.7629 C   0  0  0  0  0  0  0  0  0  0  0  0
   -2.0885   -0.8068    0.3336 C   0  0  0  0  0  0  0  0  0  0  0  0
   -3.2059   -0.2629    0.9631 C   0  0  0  0  0  0  0  0  0  0  0  0
   -8.1700    2.2790    2.1670 H   0  0  0  0  0  0  0  0  0  0  0  0
   -7.4117    1.9894    0.5165 H   0  0  0  0  0  0  0  0  0  0  0  0
   -9.2181    2.1917    0.7198 H   0  0  0  0  0  0  0  0  0  0  0  0
   -9.7264   -1.1427    0.3571 H   0  0  0  0  0  0  0  0  0  0  0  0
   -8.4562   -0.4343   -0.7097 H   0  0  0  0  0  0  0  0  0  0  0  0
   -9.8929    0.5407   -0.1936 H   0  0  0  0  0  0  0  0  0  0  0  0
   -8.9969    0.5068    3.4479 H   0  0  0  0  0  0  0  0  0  0  0  0
   -9.4498   -1.0825    2.6075 H   0  0  0  0  0  0  0  0  0  0  0  0
  -10.3438    0.4332    2.2692 H   0  0  0  0  0  0  0  0  0  0  0  0
   -7.1889   -2.0237   -0.3112 H   0  0  0  0  0  0  0  0  0  0  0  0
   -7.6453   -2.7925    1.2395 H   0  0  0  0  0  0  0  0  0  0  0  0
   -5.8910   -2.7141    0.8006 H   0  0  0  0  0  0  0  0  0  0  0  0
   -5.4811   -1.0710    3.6010 H   0  0  0  0  0  0  0  0  0  0  0  0
   -7.1924   -1.5896    3.8041 H   0  0  0  0  0  0  0  0  0  0  0  0
   -6.7040    0.1723    3.9630 H   0  0  0  0  0  0  0  0  0  0  0  0
   -5.4130   -0.5614   -1.5286 H   0  0  0  0  0  0  0  0  0  0  0  0
   -3.4047   -1.5326   -2.6433 H   0  0  0  0  0  0  0  0  0  0  0  0
   -0.3159   -2.4103   -0.9004 H   0  0  0  0  0  0  0  0  0  0  0  0
   -1.2917   -2.5671   -2.3712 H   0  0  0  0  0  0  0  0  0  0  0  0
    2.7460    2.3878   -3.2273 H   0  0  0  0  0  0  0  0  0  0  0  0
    7.0255    2.3414   -3.0830 H   0  0  0  0  0  0  0  0  0  0  0  0
    5.2857    2.5446   -3.3331 H   0  0  0  0  0  0  0  0  0  0  0  0
    5.0474    0.1959   -3.5406 H   0  0  0  0  0  0  0  0  0  0  0  0
    6.8146    0.1183   -3.3753 H   0  0  0  0  0  0  0  0  0  0  0  0
    6.5594   -0.9198   -1.3880 H   0  0  0  0  0  0  0  0  0  0  0  0
    4.8514   -0.5271   -1.2193 H   0  0  0  0  0  0  0  0  0  0  0  0
    5.7510    1.0198    0.3583 H   0  0  0  0  0  0  0  0  0  0  0  0
    8.1548    1.9082   -0.0508 H   0  0  0  0  0  0  0  0  0  0  0  0
    8.1761    0.8570   -1.5311 H   0  0  0  0  0  0  0  0  0  0  0  0
    6.9212    1.2408    2.2409 H   0  0  0  0  0  0  0  0  0  0  0  0
    6.6040    0.4301    4.5402 H   0  0  0  0  0  0  0  0  0  0  0  0
    7.4273   -1.8425    5.1670 H   0  0  0  0  0  0  0  0  0  0  0  0
    8.5213   -3.2240    3.4285 H   0  0  0  0  0  0  0  0  0  0  0  0
    8.7940   -2.3889    1.1351 H   0  0  0  0  0  0  0  0  0  0  0  0
    3.0054    0.8948    0.7260 H   0  0  0  0  0  0  0  0  0  0  0  0
    1.1241   -0.6796    0.2265 H   0  0  0  0  0  0  0  0  0  0  0  0
   -1.1713   -0.8673    0.8699 H   0  0  0  0  0  0  0  0  0  0  0  0
   -3.0824    0.0758    1.9786 H   0  0  0  0  0  0  0  0  0  0  0  0
  1  2  1  0
  2  3  1  0
  2  4  1  0
  2  5  1  0
  5  6  1  0
  5  7  1  0
  5  8  1  0
  8  9  1  0
  9 10  2  0
 10 11  1  0
 11 12  2  0
 12 13  1  0
 13 14  1  0
 14 15  1  0
 15 16  2  0
 15 17  1  0
 17 18  2  0
 17 19  1  0
 19 20  2  0
 20 21  1  0
 21 22  1  0
 22 23  2  0
 22 24  2  0
 22 25  1  0
 25 26  1  0
 26 27  1  0
 27 28  1  0
 28 29  1  0
 29 30  1  0
 30 31  1  0
 31 32  1  0
 32 33  2  0
 33 34  1  0
 34 35  2  0
 35 36  1  0
 36 37  2  0
 21 38  2  0
 38 39  1  0
 39 40  2  0
 12 41  1  0
 41 42  2  0
 42  9  1  0
 40 14  1  0
 40 19  1  0
 29 25  1  0
 37 32  1  0
  1 43  1  0
  1 44  1  0
  1 45  1  0
  3 46  1  0
  3 47  1  0
  3 48  1  0
  4 49  1  0
  4 50  1  0
  4 51  1  0
  6 52  1  0
  6 53  1  0
  6 54  1  0
  7 55  1  0
  7 56  1  0
  7 57  1  0
 10 58  1  0
 11 59  1  0
 13 60  1  0
 13 61  1  0
 20 62  1  0
 26 63  1  0
 26 64  1  0
 27 65  1  0
 27 66  1  0
 28 67  1  0
 28 68  1  0
 29 69  1  1
 30 70  1  0
 30 71  1  0
 33 72  1  0
 34 73  1  0
 35 74  1  0
 36 75  1  0
 37 76  1  0
 38 77  1  0
 39 78  1  0
 41 79  1  0
 42 80  1  0
M  END
$$$$
