@<TRIPOS>MOLECULE
*****
 71 72 0 0 0
SMALL
GASTEIGER

@<TRIPOS>ATOM
      1 C          -8.2539   -1.0077    2.6241 C.3     1  UNL1        0.0790
      2 O          -7.2294   -0.0863    2.4076 O.3     1  UNL1       -0.4915
      3 C          -6.4198   -0.0282    1.2998 C.ar    1  UNL1        0.1615
      4 C          -6.4705   -0.8446    0.2350 C.ar    1  UNL1       -0.0160
      5 C          -5.6132   -0.7253   -0.8544 C.ar    1  UNL1       -0.0548
      6 C          -4.6667    0.2404   -0.8961 C.ar    1  UNL1       -0.0425
      7 C          -3.6692    0.4880   -1.9417 C.3     1  UNL1       -0.0148
      8 C          -2.3791   -0.2372   -1.7577 C.3     1  UNL1        0.0026
      9 N          -1.6769   -0.0573   -0.5556 N.3     1  UNL1       -0.3050
     10 C          -2.2094   -0.6848    0.6260 C.3     1  UNL1       -0.0128
     11 C          -1.0155    1.1594   -0.3094 C.3     1  UNL1       -0.0013
     12 C           0.2588    1.4870   -1.0340 C.3     1  UNL1       -0.0385
     13 C           1.3443    0.5259   -0.7151 C.3     1  UNL1       -0.0290
     14 C           2.6901    0.7605   -1.2753 C.3     1  UNL1        0.0846
     15 C           2.5424    0.7221   -2.7699 C.1     1  UNL1        0.0742
     16 N           2.4188    0.7107   -3.9949 N.1     1  UNL1       -0.1956
     17 C           3.5308   -0.4257   -0.9874 C.ar    1  UNL1       -0.0236
     18 C           3.9400   -1.2776   -1.9852 C.ar    1  UNL1       -0.0534
     19 C           4.7358   -2.3940   -1.6588 C.ar    1  UNL1       -0.0160
     20 C           5.1307   -2.6776   -0.3854 C.ar    1  UNL1        0.1615
     21 O           5.9326   -3.7703   -0.0696 O.3     1  UNL1       -0.4915
     22 C           6.3997   -4.6465   -1.0454 C.3     1  UNL1        0.0790
     23 C           4.7094   -1.8105    0.6402 C.ar    1  UNL1        0.1618
     24 O           5.0710   -2.0286    1.9714 O.3     1  UNL1       -0.4914
     25 C           4.7090   -1.0682    2.8859 C.3     1  UNL1        0.0790
     26 C           3.9228   -0.7249    0.2685 C.ar    1  UNL1       -0.0116
     27 C           3.3367    2.0609   -0.9755 C.3     1  UNL1       -0.0242
     28 C           4.7151    2.1608   -1.6056 C.3     1  UNL1       -0.0609
     29 C           3.3607    2.3326    0.5060 C.3     1  UNL1       -0.0609
     30 C          -4.5914    1.1396    0.2452 C.ar    1  UNL1       -0.0131
     31 C          -5.4421    0.9718    1.2597 C.ar    1  UNL1        0.1617
     32 O          -5.3848    1.8215    2.3811 O.3     1  UNL1       -0.4914
     33 C          -4.4067    2.8355    2.4196 C.3     1  UNL1        0.0790
     34 H          -7.9824   -1.9423    3.1160 H       1  UNL1        0.0660
     35 H          -8.9960   -0.4903    3.2917 H       1  UNL1        0.0660
     36 H          -8.8162   -1.2049    1.6844 H       1  UNL1        0.0660
     37 H          -7.2004   -1.6684    0.1760 H       1  UNL1        0.0655
     38 H          -5.6716   -1.4045   -1.7246 H       1  UNL1        0.0621
     39 H          -4.1691    0.2218   -2.9238 H       1  UNL1        0.0326
     40 H          -3.5268    1.5960   -2.0189 H       1  UNL1        0.0326
     41 H          -1.7222   -0.0025   -2.6247 H       1  UNL1        0.0430
     42 H          -2.6127   -1.3373   -1.8670 H       1  UNL1        0.0430
     43 H          -3.1017   -1.2789    0.4548 H       1  UNL1        0.0391
     44 H          -1.4041   -1.4210    0.9644 H       1  UNL1        0.0391
     45 H          -2.3618    0.0244    1.4477 H       1  UNL1        0.0391
     46 H          -0.7292    1.1469    0.7989 H       1  UNL1        0.0426
     47 H          -1.6821    2.0727   -0.3507 H       1  UNL1        0.0426
     48 H           0.0704    1.6644   -2.1059 H       1  UNL1        0.0278
     49 H           0.5432    2.5288   -0.6531 H       1  UNL1        0.0278
     50 H           1.4327    0.2960    0.3649 H       1  UNL1        0.0284
     51 H           1.0040   -0.4698   -1.1741 H       1  UNL1        0.0284
     52 H           3.6503   -1.0848   -2.9966 H       1  UNL1        0.0622
     53 H           5.0025   -3.0255   -2.4951 H       1  UNL1        0.0655
     54 H           6.0627   -4.3737   -2.0491 H       1  UNL1        0.0660
     55 H           6.0980   -5.7180   -0.8134 H       1  UNL1        0.0660
     56 H           7.5212   -4.6735   -1.1019 H       1  UNL1        0.0660
     57 H           4.5418   -0.0524    2.5531 H       1  UNL1        0.0660
     58 H           3.7930   -1.3677    3.4872 H       1  UNL1        0.0660
     59 H           5.5475   -1.0056    3.6556 H       1  UNL1        0.0660
     60 H           3.5363   -0.0747    1.0537 H       1  UNL1        0.0658
     61 H           2.7767    2.9135   -1.4198 H       1  UNL1        0.0314
     62 H           5.3461    2.8469   -1.0405 H       1  UNL1        0.0233
     63 H           5.1658    1.1299   -1.7068 H       1  UNL1        0.0233
     64 H           4.6841    2.5612   -2.6442 H       1  UNL1        0.0233
     65 H           4.2811    1.9886    1.0045 H       1  UNL1        0.0233
     66 H           3.3943    3.4559    0.7003 H       1  UNL1        0.0233
     67 H           2.4336    2.0295    1.0118 H       1  UNL1        0.0233
     68 H          -3.8526    1.9012    0.1735 H       1  UNL1        0.0658
     69 H          -3.4220    2.4451    2.0379 H       1  UNL1        0.0660
     70 H          -4.2303    3.1792    3.4840 H       1  UNL1        0.0660
     71 H          -4.7242    3.6723    1.8027 H       1  UNL1        0.0660
@<TRIPOS>BOND
     1     1     2    1
     2     2     3    1
     3     3     4   ar
     4     4     5   ar
     5     5     6   ar
     6     6     7    1
     7     7     8    1
     8     8     9    1
     9     9    10    1
    10     9    11    1
    11    11    12    1
    12    12    13    1
    13    13    14    1
    14    14    15    1
    15    15    16    3
    16    14    17    1
    17    17    18   ar
    18    18    19   ar
    19    19    20   ar
    20    20    21    1
    21    21    22    1
    22    20    23   ar
    23    23    24    1
    24    24    25    1
    25    23    26   ar
    26    14    27    1
    27    27    28    1
    28    27    29    1
    29     6    30   ar
    30    30    31   ar
    31    31    32    1
    32    32    33    1
    33    31     3   ar
    34    26    17   ar
    35     1    34    1
    36     1    35    1
    37     1    36    1
    38     4    37    1
    39     5    38    1
    40     7    39    1
    41     7    40    1
    42     8    41    1
    43     8    42    1
    44    10    43    1
    45    10    44    1
    46    10    45    1
    47    11    46    1
    48    11    47    1
    49    12    48    1
    50    12    49    1
    51    13    50    1
    52    13    51    1
    53    18    52    1
    54    19    53    1
    55    22    54    1
    56    22    55    1
    57    22    56    1
    58    25    57    1
    59    25    58    1
    60    25    59    1
    61    26    60    1
    62    27    61    1
    63    28    62    1
    64    28    63    1
    65    28    64    1
    66    29    65    1
    67    29    66    1
    68    29    67    1
    69    30    68    1
    70    33    69    1
    71    33    70    1
    72    33    71    1
