
     RDKit          3D

 71 72  0  0  0  0  0  0  0  0999 V2000
   -8.2539   -1.0077    2.6241 C   0  0  0  0  0  0  0  0  0  0  0  0
   -7.2294   -0.0863    2.4076 O   0  0  0  0  0  0  0  0  0  0  0  0
   -6.4198   -0.0282    1.2998 C   0  0  0  0  0  0  0  0  0  0  0  0
   -6.4705   -0.8446    0.2350 C   0  0  0  0  0  0  0  0  0  0  0  0
   -5.6132   -0.7253   -0.8544 C   0  0  0  0  0  0  0  0  0  0  0  0
   -4.6667    0.2404   -0.8961 C   0  0  0  0  0  0  0  0  0  0  0  0
   -3.6692    0.4880   -1.9417 C   0  0  0  0  0  0  0  0  0  0  0  0
   -2.3791   -0.2372   -1.7577 C   0  0  0  0  0  0  0  0  0  0  0  0
   -1.6769   -0.0573   -0.5556 N   0  0  0  0  0  0  0  0  0  0  0  0
   -2.2094   -0.6848    0.6260 C   0  0  0  0  0  0  0  0  0  0  0  0
   -1.0155    1.1594   -0.3094 C   0  0  0  0  0  0  0  0  0  0  0  0
    0.2588    1.4870   -1.0340 C   0  0  0  0  0  0  0  0  0  0  0  0
    1.3443    0.5259   -0.7151 C   0  0  0  0  0  0  0  0  0  0  0  0
    2.6901    0.7605   -1.2753 C   0  0  0  0  0  0  0  0  0  0  0  0
    2.5424    0.7221   -2.7699 C   0  0  0  0  0  0  0  0  0  0  0  0
    2.4188    0.7107   -3.9949 N   0  0  0  0  0  0  0  0  0  0  0  0
    3.5308   -0.4257   -0.9874 C   0  0  0  0  0  0  0  0  0  0  0  0
    3.9400   -1.2776   -1.9852 C   0  0  0  0  0  0  0  0  0  0  0  0
    4.7358   -2.3940   -1.6588 C   0  0  0  0  0  0  0  0  0  0  0  0
    5.1307   -2.6776   -0.3854 C   0  0  0  0  0  0  0  0  0  0  0  0
    5.9326   -3.7703   -0.0696 O   0  0  0  0  0  0  0  0  0  0  0  0
    6.3997   -4.6465   -1.0454 C   0  0  0  0  0  0  0  0  0  0  0  0
    4.7094   -1.8105    0.6402 C   0  0  0  0  0  0  0  0  0  0  0  0
    5.0710   -2.0286    1.9714 O   0  0  0  0  0  0  0  0  0  0  0  0
    4.7090   -1.0682    2.8859 C   0  0  0  0  0  0  0  0  0  0  0  0
    3.9228   -0.7249    0.2685 C   0  0  0  0  0  0  0  0  0  0  0  0
    3.3367    2.0609   -0.9755 C   0  0  0  0  0  0  0  0  0  0  0  0
    4.7151    2.1608   -1.6056 C   0  0  0  0  0  0  0  0  0  0  0  0
    3.3607    2.3326    0.5060 C   0  0  0  0  0  0  0  0  0  0  0  0
   -4.5914    1.1396    0.2452 C   0  0  0  0  0  0  0  0  0  0  0  0
   -5.4421    0.9718    1.2597 C   0  0  0  0  0  0  0  0  0  0  0  0
   -5.3848    1.8215    2.3811 O   0  0  0  0  0  0  0  0  0  0  0  0
   -4.4067    2.8355    2.4196 C   0  0  0  0  0  0  0  0  0  0  0  0
   -7.9824   -1.9423    3.1160 H   0  0  0  0  0  0  0  0  0  0  0  0
   -8.9960   -0.4903    3.2917 H   0  0  0  0  0  0  0  0  0  0  0  0
   -8.8162   -1.2049    1.6844 H   0  0  0  0  0  0  0  0  0  0  0  0
   -7.2004   -1.6684    0.1760 H   0  0  0  0  0  0  0  0  0  0  0  0
   -5.6716   -1.4045   -1.7246 H   0  0  0  0  0  0  0  0  0  0  0  0
   -4.1691    0.2218   -2.9238 H   0  0  0  0  0  0  0  0  0  0  0  0
   -3.5268    1.5960   -2.0189 H   0  0  0  0  0  0  0  0  0  0  0  0
   -1.7222   -0.0025   -2.6247 H   0  0  0  0  0  0  0  0  0  0  0  0
   -2.6127   -1.3373   -1.8670 H   0  0  0  0  0  0  0  0  0  0  0  0
   -3.1017   -1.2789    0.4548 H   0  0  0  0  0  0  0  0  0  0  0  0
   -1.4041   -1.4210    0.9644 H   0  0  0  0  0  0  0  0  0  0  0  0
   -2.3618    0.0244    1.4477 H   0  0  0  0  0  0  0  0  0  0  0  0
   -0.7292    1.1469    0.7989 H   0  0  0  0  0  0  0  0  0  0  0  0
   -1.6821    2.0727   -0.3507 H   0  0  0  0  0  0  0  0  0  0  0  0
    0.0704    1.6644   -2.1059 H   0  0  0  0  0  0  0  0  0  0  0  0
    0.5432    2.5288   -0.6531 H   0  0  0  0  0  0  0  0  0  0  0  0
    1.4327    0.2960    0.3649 H   0  0  0  0  0  0  0  0  0  0  0  0
    1.0040   -0.4698   -1.1741 H   0  0  0  0  0  0  0  0  0  0  0  0
    3.6503   -1.0848   -2.9966 H   0  0  0  0  0  0  0  0  0  0  0  0
    5.0025   -3.0255   -2.4951 H   0  0  0  0  0  0  0  0  0  0  0  0
    6.0627   -4.3737   -2.0491 H   0  0  0  0  0  0  0  0  0  0  0  0
    6.0980   -5.7180   -0.8134 H   0  0  0  0  0  0  0  0  0  0  0  0
    7.5212   -4.6735   -1.1019 H   0  0  0  0  0  0  0  0  0  0  0  0
    4.5418   -0.0524    2.5531 H   0  0  0  0  0  0  0  0  0  0  0  0
    3.7930   -1.3677    3.4872 H   0  0  0  0  0  0  0  0  0  0  0  0
    5.5475   -1.0056    3.6556 H   0  0  0  0  0  0  0  0  0  0  0  0
    3.5363   -0.0747    1.0537 H   0  0  0  0  0  0  0  0  0  0  0  0
    2.7767    2.9135   -1.4198 H   0  0  0  0  0  0  0  0  0  0  0  0
    5.3461    2.8469   -1.0405 H   0  0  0  0  0  0  0  0  0  0  0  0
    5.1658    1.1299   -1.7068 H   0  0  0  0  0  0  0  0  0  0  0  0
    4.6841    2.5612   -2.6442 H   0  0  0  0  0  0  0  0  0  0  0  0
    4.2811    1.9886    1.0045 H   0  0  0  0  0  0  0  0  0  0  0  0
    3.3943    3.4559    0.7003 H   0  0  0  0  0  0  0  0  0  0  0  0
    2.4336    2.0295    1.0118 H   0  0  0  0  0  0  0  0  0  0  0  0
   -3.8526    1.9012    0.1735 H   0  0  0  0  0  0  0  0  0  0  0  0
   -3.4220    2.4451    2.0379 H   0  0  0  0  0  0  0  0  0  0  0  0
   -4.2303    3.1792    3.4840 H   0  0  0  0  0  0  0  0  0  0  0  0
   -4.7242    3.6723    1.8027 H   0  0  0  0  0  0  0  0  0  0  0  0
  1  2  1  0
  2  3  1  0
  3  4  2  0
  4  5  1  0
  5  6  2  0
  6  7  1  0
  7  8  1  0
  8  9  1  0
  9 10  1  0
  9 11  1  0
 11 12  1  0
 12 13  1  0
 13 14  1  0
 14 15  1  0
 15 16  3  0
 14 17  1  0
 17 18  2  0
 18 19  1  0
 19 20  2  0
 20 21  1  0
 21 22  1  0
 20 23  1  0
 23 24  1  0
 24 25  1  0
 23 26  2  0
 14 27  1  0
 27 28  1  0
 27 29  1  0
  6 30  1  0
 30 31  2  0
 31 32  1  0
 32 33  1  0
 31  3  1  0
 26 17  1  0
  1 34  1  0
  1 35  1  0
  1 36  1  0
  4 37  1  0
  5 38  1  0
  7 39  1  0
  7 40  1  0
  8 41  1  0
  8 42  1  0
 10 43  1  0
 10 44  1  0
 10 45  1  0
 11 46  1  0
 11 47  1  0
 12 48  1  0
 12 49  1  0
 13 50  1  0
 13 51  1  0
 18 52  1  0
 19 53  1  0
 22 54  1  0
 22 55  1  0
 22 56  1  0
 25 57  1  0
 25 58  1  0
 25 59  1  0
 26 60  1  0
 27 61  1  0
 28 62  1  0
 28 63  1  0
 28 64  1  0
 29 65  1  0
 29 66  1  0
 29 67  1  0
 30 68  1  0
 33 69  1  0
 33 70  1  0
 33 71  1  0
M  END
$$$$
