
     RDKit          3D

 64 65  0  0  0  0  0  0  0  0999 V2000
   -1.7915    6.3922   -1.6557 C   0  0  0  0  0  0  0  0  0  0  0  0
   -1.4234    6.3699   -0.2415 N   0  0  0  0  0  0  0  0  0  0  0  0
   -1.7257    7.5148    0.5939 C   0  0  0  0  0  0  0  0  0  0  0  0
   -0.7613    5.2148    0.2721 C   0  0  0  0  0  0  0  0  0  0  0  0
   -0.4543    4.1600   -0.5615 C   0  0  0  0  0  0  0  0  0  0  0  0
    0.1858    3.0612   -0.0193 C   0  0  0  0  0  0  0  0  0  0  0  0
    0.5344    2.9544    1.2962 C   0  0  0  0  0  0  0  0  0  0  0  0
    1.2086    1.8045    1.8547 C   0  0  0  0  0  0  0  0  0  0  0  0
    2.4109    2.0078    2.2256 O   0  0  0  0  0  0  0  0  0  0  0  0
    0.6403    0.5061    2.0183 N   0  0  0  0  0  0  0  0  0  0  0  0
   -0.6914    0.1437    1.6035 C   0  0  0  0  0  0  0  0  0  0  0  0
   -0.8233   -0.4623    0.2616 C   0  0  0  0  0  0  0  0  0  0  0  0
   -2.2984   -0.7364   -0.0218 C   0  0  0  0  0  0  0  0  0  0  0  0
   -2.4757   -1.3778   -1.3590 C   0  0  0  0  0  0  0  0  0  0  0  0
   -1.8216   -2.7024   -1.5403 C   0  0  0  0  0  0  0  0  0  0  0  0
   -2.3095   -3.7615   -0.6380 C   0  0  0  0  0  0  0  0  0  0  0  0
   -3.1945   -3.5024    0.2195 O   0  0  0  0  0  0  0  0  0  0  0  0
   -1.8115   -5.0853   -0.7003 N   0  0  0  0  0  0  0  0  0  0  0  0
   -2.3407   -5.9879    0.1914 O   0  0  0  0  0  0  0  0  0  0  0  0
    1.4262   -0.4907    2.6740 C   0  0  0  0  0  0  0  0  0  0  0  0
    2.3416   -1.2631    1.8230 C   0  0  0  0  0  0  0  0  0  0  0  0
    3.0303   -2.1859    2.3924 O   0  0  0  0  0  0  0  0  0  0  0  0
    2.5517   -1.0966    0.4331 N   0  0  0  0  0  0  0  0  0  0  0  0
    3.4502   -1.8657   -0.3905 C   0  0  0  0  0  0  0  0  0  0  0  0
    2.9548   -3.2131   -0.7415 C   0  0  0  0  0  0  0  0  0  0  0  0
    2.1224   -3.4441   -1.8376 C   0  0  0  0  0  0  0  0  0  0  0  0
    1.6860   -4.7190   -2.1428 C   0  0  0  0  0  0  0  0  0  0  0  0
    2.0514   -5.8093   -1.3850 C   0  0  0  0  0  0  0  0  0  0  0  0
    2.8739   -5.5916   -0.3005 C   0  0  0  0  0  0  0  0  0  0  0  0
    3.3071   -4.3114   -0.0000 C   0  0  0  0  0  0  0  0  0  0  0  0
    0.2241    4.0233    2.1492 C   0  0  0  0  0  0  0  0  0  0  0  0
   -0.4131    5.1171    1.6058 C   0  0  0  0  0  0  0  0  0  0  0  0
   -0.9144    6.1522   -2.2877 H   0  0  0  0  0  0  0  0  0  0  0  0
   -2.1103    7.4314   -1.9395 H   0  0  0  0  0  0  0  0  0  0  0  0
   -2.6410    5.6850   -1.8107 H   0  0  0  0  0  0  0  0  0  0  0  0
   -2.5014    8.1177    0.0808 H   0  0  0  0  0  0  0  0  0  0  0  0
   -0.8233    8.1529    0.7110 H   0  0  0  0  0  0  0  0  0  0  0  0
   -2.1234    7.1664    1.5583 H   0  0  0  0  0  0  0  0  0  0  0  0
   -0.7257    4.2398   -1.6046 H   0  0  0  0  0  0  0  0  0  0  0  0
    0.4058    2.2705   -0.7332 H   0  0  0  0  0  0  0  0  0  0  0  0
   -1.2162   -0.5046    2.3392 H   0  0  0  0  0  0  0  0  0  0  0  0
   -1.2732    1.1125    1.5902 H   0  0  0  0  0  0  0  0  0  0  0  0
   -0.3353   -1.4688    0.2731 H   0  0  0  0  0  0  0  0  0  0  0  0
   -0.4297    0.0905   -0.5829 H   0  0  0  0  0  0  0  0  0  0  0  0
   -2.7558   -1.3590    0.7565 H   0  0  0  0  0  0  0  0  0  0  0  0
   -2.8585    0.2418   -0.0149 H   0  0  0  0  0  0  0  0  0  0  0  0
   -3.5816   -1.5016   -1.5120 H   0  0  0  0  0  0  0  0  0  0  0  0
   -2.1556   -0.6525   -2.1405 H   0  0  0  0  0  0  0  0  0  0  0  0
   -1.9002   -3.0600   -2.5879 H   0  0  0  0  0  0  0  0  0  0  0  0
   -0.7185   -2.5399   -1.3866 H   0  0  0  0  0  0  0  0  0  0  0  0
   -1.0784   -5.3862   -1.3861 H   0  0  0  0  0  0  0  0  0  0  0  0
   -3.3085   -6.1176   -0.0054 H   0  0  0  0  0  0  0  0  0  0  0  0
    0.8106   -1.2525    3.2356 H   0  0  0  0  0  0  0  0  0  0  0  0
    1.9744    0.0406    3.5100 H   0  0  0  0  0  0  0  0  0  0  0  0
    1.9758   -0.3063    0.0042 H   0  0  0  0  0  0  0  0  0  0  0  0
    4.4838   -1.9163    0.0662 H   0  0  0  0  0  0  0  0  0  0  0  0
    3.6352   -1.2574   -1.3277 H   0  0  0  0  0  0  0  0  0  0  0  0
    1.8137   -2.6222   -2.4548 H   0  0  0  0  0  0  0  0  0  0  0  0
    1.0305   -4.9307   -2.9976 H   0  0  0  0  0  0  0  0  0  0  0  0
    1.6837   -6.8132   -1.6535 H   0  0  0  0  0  0  0  0  0  0  0  0
    3.1857   -6.4124    0.3185 H   0  0  0  0  0  0  0  0  0  0  0  0
    3.9670   -4.2244    0.8812 H   0  0  0  0  0  0  0  0  0  0  0  0
    0.4691    4.0105    3.2025 H   0  0  0  0  0  0  0  0  0  0  0  0
   -0.6483    5.9502    2.2857 H   0  0  0  0  0  0  0  0  0  0  0  0
  1  2  1  0
  2  3  1  0
  2  4  1  0
  4  5  2  0
  5  6  1  0
  6  7  2  0
  7  8  1  0
  8  9  2  0
  8 10  1  0
 10 11  1  0
 11 12  1  0
 12 13  1  0
 13 14  1  0
 14 15  1  0
 15 16  1  0
 16 17  2  0
 16 18  1  0
 18 19  1  0
 10 20  1  0
 20 21  1  0
 21 22  2  0
 21 23  1  0
 23 24  1  0
 24 25  1  0
 25 26  2  0
 26 27  1  0
 27 28  2  0
 28 29  1  0
 29 30  2  0
  7 31  1  0
 31 32  2  0
 32  4  1  0
 30 25  1  0
  1 33  1  0
  1 34  1  0
  1 35  1  0
  3 36  1  0
  3 37  1  0
  3 38  1  0
  5 39  1  0
  6 40  1  0
 11 41  1  0
 11 42  1  0
 12 43  1  0
 12 44  1  0
 13 45  1  0
 13 46  1  0
 14 47  1  0
 14 48  1  0
 15 49  1  0
 15 50  1  0
 18 51  1  0
 19 52  1  0
 20 53  1  0
 20 54  1  0
 23 55  1  0
 24 56  1  0
 24 57  1  0
 26 58  1  0
 27 59  1  0
 28 60  1  0
 29 61  1  0
 30 62  1  0
 31 63  1  0
 32 64  1  0
M  END
$$$$
