@<TRIPOS>MOLECULE
*****
 64 65 0 0 0
SMALL
GASTEIGER

@<TRIPOS>ATOM
      1 C          -1.7915    6.3922   -1.6557 C.3     1  UNL1        0.0004
      2 N          -1.4234    6.3699   -0.2415 N.pl3   1  UNL1       -0.3360
      3 C          -1.7257    7.5148    0.5939 C.3     1  UNL1        0.0004
      4 C          -0.7613    5.2148    0.2721 C.ar    1  UNL1        0.0292
      5 C          -0.4543    4.1600   -0.5615 C.ar    1  UNL1       -0.0400
      6 C           0.1858    3.0612   -0.0193 C.ar    1  UNL1       -0.0479
      7 C           0.5344    2.9544    1.2962 C.ar    1  UNL1        0.0370
      8 C           1.2086    1.8045    1.8547 C.2     1  UNL1        0.2470
      9 O           2.4109    2.0078    2.2256 O.2     1  UNL1       -0.2700
     10 N           0.6403    0.5061    2.0183 N.am    1  UNL1       -0.2887
     11 C          -0.6914    0.1437    1.6035 C.3     1  UNL1        0.0155
     12 C          -0.8233   -0.4623    0.2616 C.3     1  UNL1       -0.0371
     13 C          -2.2984   -0.7364   -0.0218 C.3     1  UNL1       -0.0512
     14 C          -2.4757   -1.3778   -1.3590 C.3     1  UNL1       -0.0447
     15 C          -1.8216   -2.7024   -1.5403 C.3     1  UNL1        0.0259
     16 C          -2.3095   -3.7615   -0.6380 C.2     1  UNL1        0.2354
     17 O          -3.1945   -3.5024    0.2195 O.2     1  UNL1       -0.2737
     18 N          -1.8115   -5.0853   -0.7003 N.am    1  UNL1       -0.1975
     19 O          -2.3407   -5.9879    0.1914 O.3     1  UNL1       -0.2952
     20 C           1.4262   -0.4907    2.6740 C.3     1  UNL1        0.0913
     21 C           2.3416   -1.2631    1.8230 C.2     1  UNL1        0.2307
     22 O           3.0303   -2.1859    2.3924 O.2     1  UNL1       -0.2741
     23 N           2.5517   -1.0966    0.4331 N.am    1  UNL1       -0.3099
     24 C           3.4502   -1.8657   -0.3905 C.3     1  UNL1        0.0369
     25 C           2.9548   -3.2131   -0.7415 C.ar    1  UNL1       -0.0303
     26 C           2.1224   -3.4441   -1.8376 C.ar    1  UNL1       -0.0571
     27 C           1.6860   -4.7190   -2.1428 C.ar    1  UNL1       -0.0615
     28 C           2.0514   -5.8093   -1.3850 C.ar    1  UNL1       -0.0617
     29 C           2.8739   -5.5916   -0.3005 C.ar    1  UNL1       -0.0615
     30 C           3.3071   -4.3114   -0.0000 C.ar    1  UNL1       -0.0571
     31 C           0.2241    4.0233    2.1492 C.ar    1  UNL1       -0.0479
     32 C          -0.4131    5.1171    1.6058 C.ar    1  UNL1       -0.0400
     33 H          -0.9144    6.1522   -2.2877 H       1  UNL1        0.0428
     34 H          -2.1103    7.4314   -1.9395 H       1  UNL1        0.0428
     35 H          -2.6410    5.6850   -1.8107 H       1  UNL1        0.0428
     36 H          -2.5014    8.1177    0.0808 H       1  UNL1        0.0428
     37 H          -0.8233    8.1529    0.7110 H       1  UNL1        0.0428
     38 H          -2.1234    7.1664    1.5583 H       1  UNL1        0.0428
     39 H          -0.7257    4.2398   -1.6046 H       1  UNL1        0.0636
     40 H           0.4058    2.2705   -0.7332 H       1  UNL1        0.0626
     41 H          -1.2162   -0.5046    2.3392 H       1  UNL1        0.0465
     42 H          -1.2732    1.1125    1.5902 H       1  UNL1        0.0465
     43 H          -0.3353   -1.4688    0.2731 H       1  UNL1        0.0280
     44 H          -0.4297    0.0905   -0.5829 H       1  UNL1        0.0280
     45 H          -2.7558   -1.3590    0.7565 H       1  UNL1        0.0266
     46 H          -2.8585    0.2418   -0.0149 H       1  UNL1        0.0266
     47 H          -3.5816   -1.5016   -1.5120 H       1  UNL1        0.0270
     48 H          -2.1556   -0.6525   -2.1405 H       1  UNL1        0.0270
     49 H          -1.9002   -3.0600   -2.5879 H       1  UNL1        0.0359
     50 H          -0.7185   -2.5399   -1.3866 H       1  UNL1        0.0359
     51 H          -1.0784   -5.3862   -1.3861 H       1  UNL1        0.1822
     52 H          -3.3085   -6.1176   -0.0054 H       1  UNL1        0.2414
     53 H           0.8106   -1.2525    3.2356 H       1  UNL1        0.0560
     54 H           1.9744    0.0406    3.5100 H       1  UNL1        0.0560
     55 H           1.9758   -0.3063    0.0042 H       1  UNL1        0.1491
     56 H           4.4838   -1.9163    0.0662 H       1  UNL1        0.0512
     57 H           3.6352   -1.2574   -1.3277 H       1  UNL1        0.0512
     58 H           1.8137   -2.6222   -2.4548 H       1  UNL1        0.0621
     59 H           1.0305   -4.9307   -2.9976 H       1  UNL1        0.0618
     60 H           1.6837   -6.8132   -1.6535 H       1  UNL1        0.0618
     61 H           3.1857   -6.4124    0.3185 H       1  UNL1        0.0618
     62 H           3.9670   -4.2244    0.8812 H       1  UNL1        0.0621
     63 H           0.4691    4.0105    3.2025 H       1  UNL1        0.0626
     64 H          -0.6483    5.9502    2.2857 H       1  UNL1        0.0636
@<TRIPOS>BOND
     1     1     2    1
     2     2     3    1
     3     2     4    1
     4     4     5   ar
     5     5     6   ar
     6     6     7   ar
     7     7     8    1
     8     8     9    2
     9     8    10   am
    10    10    11    1
    11    11    12    1
    12    12    13    1
    13    13    14    1
    14    14    15    1
    15    15    16    1
    16    16    17    2
    17    16    18   am
    18    18    19    1
    19    10    20    1
    20    20    21    1
    21    21    22    2
    22    21    23   am
    23    23    24    1
    24    24    25    1
    25    25    26   ar
    26    26    27   ar
    27    27    28   ar
    28    28    29   ar
    29    29    30   ar
    30     7    31   ar
    31    31    32   ar
    32    32     4   ar
    33    30    25   ar
    34     1    33    1
    35     1    34    1
    36     1    35    1
    37     3    36    1
    38     3    37    1
    39     3    38    1
    40     5    39    1
    41     6    40    1
    42    11    41    1
    43    11    42    1
    44    12    43    1
    45    12    44    1
    46    13    45    1
    47    13    46    1
    48    14    47    1
    49    14    48    1
    50    15    49    1
    51    15    50    1
    52    18    51    1
    53    19    52    1
    54    20    53    1
    55    20    54    1
    56    23    55    1
    57    24    56    1
    58    24    57    1
    59    26    58    1
    60    27    59    1
    61    28    60    1
    62    29    61    1
    63    30    62    1
    64    31    63    1
    65    32    64    1
