@<TRIPOS>MOLECULE
*****
 38 39 0 0 0
SMALL
GASTEIGER

@<TRIPOS>ATOM
      1 C          -3.8325    1.0807    0.2489 C.3     1  UNL1        0.0401
      2 C          -4.8865    2.0745    0.6664 C.3     1  UNL1        0.1057
      3 F          -5.2083    2.8499   -0.4319 F       1  UNL1       -0.2474
      4 C          -2.6205    1.8757   -0.2369 C.3     1  UNL1       -0.0095
      5 C          -1.5237    0.9091   -0.5533 C.ar    1  UNL1       -0.0413
      6 C          -0.5218    1.1435   -1.4674 C.ar    1  UNL1       -0.0564
      7 C           0.4428    0.1924   -1.6889 C.ar    1  UNL1       -0.0351
      8 C           0.4747   -1.0216   -1.0347 C.ar    1  UNL1        0.1056
      9 C          -0.5478   -1.2342   -0.1168 C.ar    1  UNL1       -0.0307
     10 C          -1.5491   -0.3019    0.1440 C.ar    1  UNL1       -0.0285
     11 C          -2.5338   -0.7492    1.1633 C.3     1  UNL1        0.0219
     12 N          -3.4337    0.3381    1.3961 N.3     1  UNL1       -0.3065
     13 S           1.7116   -2.2239   -1.3285 S.O2    1  UNL1        0.0584
     14 O           1.1024   -3.5663   -1.1756 O.2     1  UNL1       -0.1531
     15 O           2.2222   -2.0952   -2.7478 O.2     1  UNL1       -0.1531
     16 N           3.0652   -1.9780   -0.2522 N.3     1  UNL1       -0.1897
     17 C           3.5820   -0.6707   -0.5602 C.3     1  UNL1        0.0256
     18 C           4.7560   -0.3031    0.2665 C.3     1  UNL1        0.0569
     19 C           4.5031   -0.2524    1.7375 C.3     1  UNL1        0.3914
     20 F           4.1056   -1.4449    2.2613 F       1  UNL1       -0.1707
     21 F           5.7156    0.1265    2.3269 F       1  UNL1       -0.1707
     22 F           3.5299    0.7007    2.0158 F       1  UNL1       -0.1707
     23 H          -4.2336    0.4842   -0.5837 H       1  UNL1        0.0489
     24 H          -5.7840    1.4678    0.9746 H       1  UNL1        0.0630
     25 H          -4.5228    2.6850    1.5122 H       1  UNL1        0.0630
     26 H          -2.8603    2.4025   -1.1833 H       1  UNL1        0.0329
     27 H          -2.2925    2.5967    0.5242 H       1  UNL1        0.0329
     28 H          -0.5595    2.0966   -1.9712 H       1  UNL1        0.0621
     29 H           1.1909    0.4315   -2.4074 H       1  UNL1        0.0637
     30 H          -0.4941   -2.2070    0.3856 H       1  UNL1        0.0640
     31 H          -1.9756   -0.9046    2.1302 H       1  UNL1        0.0474
     32 H          -3.0165   -1.6932    0.8799 H       1  UNL1        0.0474
     33 H          -4.2045    0.1131    2.0591 H       1  UNL1        0.1226
     34 H           2.7377   -2.0909    0.7165 H       1  UNL1        0.1480
     35 H           2.7777    0.1193   -0.4259 H       1  UNL1        0.0444
     36 H           3.8718   -0.6365   -1.6534 H       1  UNL1        0.0444
     37 H           5.1869    0.6966   -0.0373 H       1  UNL1        0.0365
     38 H           5.6251   -1.0106    0.1071 H       1  UNL1        0.0365
@<TRIPOS>BOND
     1     1     2    1
     2     2     3    1
     3     1     4    1
     4     4     5    1
     5     5     6   ar
     6     6     7   ar
     7     7     8   ar
     8     8     9   ar
     9     9    10   ar
    10    10    11    1
    11    11    12    1
    12     8    13    1
    13    13    14    2
    14    13    15    2
    15    13    16    1
    16    16    17    1
    17    17    18    1
    18    18    19    1
    19    19    20    1
    20    19    21    1
    21    19    22    1
    22    12     1    1
    23    10     5   ar
    24     1    23    1
    25     2    24    1
    26     2    25    1
    27     4    26    1
    28     4    27    1
    29     6    28    1
    30     7    29    1
    31     9    30    1
    32    11    31    1
    33    11    32    1
    34    12    33    1
    35    16    34    1
    36    17    35    1
    37    17    36    1
    38    18    37    1
    39    18    38    1
