
     RDKit          3D

 38 39  0  0  0  0  0  0  0  0999 V2000
   -3.8325    1.0807    0.2489 C   0  0  1  0  0  0  0  0  0  0  0  0
   -4.8865    2.0745    0.6664 C   0  0  0  0  0  0  0  0  0  0  0  0
   -5.2083    2.8499   -0.4319 F   0  0  0  0  0  0  0  0  0  0  0  0
   -2.6205    1.8757   -0.2369 C   0  0  0  0  0  0  0  0  0  0  0  0
   -1.5237    0.9091   -0.5533 C   0  0  0  0  0  0  0  0  0  0  0  0
   -0.5218    1.1435   -1.4674 C   0  0  0  0  0  0  0  0  0  0  0  0
    0.4428    0.1924   -1.6889 C   0  0  0  0  0  0  0  0  0  0  0  0
    0.4747   -1.0216   -1.0347 C   0  0  0  0  0  0  0  0  0  0  0  0
   -0.5478   -1.2342   -0.1168 C   0  0  0  0  0  0  0  0  0  0  0  0
   -1.5491   -0.3019    0.1440 C   0  0  0  0  0  0  0  0  0  0  0  0
   -2.5338   -0.7492    1.1633 C   0  0  0  0  0  0  0  0  0  0  0  0
   -3.4337    0.3381    1.3961 N   0  0  0  0  0  0  0  0  0  0  0  0
    1.7116   -2.2239   -1.3285 S   0  0  0  0  0  0  0  0  0  0  0  0
    1.1024   -3.5663   -1.1756 O   0  0  0  0  0  0  0  0  0  0  0  0
    2.2222   -2.0952   -2.7478 O   0  0  0  0  0  0  0  0  0  0  0  0
    3.0652   -1.9780   -0.2522 N   0  0  0  0  0  0  0  0  0  0  0  0
    3.5820   -0.6707   -0.5602 C   0  0  0  0  0  0  0  0  0  0  0  0
    4.7560   -0.3031    0.2665 C   0  0  0  0  0  0  0  0  0  0  0  0
    4.5031   -0.2524    1.7375 C   0  0  0  0  0  0  0  0  0  0  0  0
    4.1056   -1.4449    2.2613 F   0  0  0  0  0  0  0  0  0  0  0  0
    5.7156    0.1265    2.3269 F   0  0  0  0  0  0  0  0  0  0  0  0
    3.5299    0.7007    2.0158 F   0  0  0  0  0  0  0  0  0  0  0  0
   -4.2336    0.4842   -0.5837 H   0  0  0  0  0  0  0  0  0  0  0  0
   -5.7840    1.4678    0.9746 H   0  0  0  0  0  0  0  0  0  0  0  0
   -4.5228    2.6850    1.5122 H   0  0  0  0  0  0  0  0  0  0  0  0
   -2.8603    2.4025   -1.1833 H   0  0  0  0  0  0  0  0  0  0  0  0
   -2.2925    2.5967    0.5242 H   0  0  0  0  0  0  0  0  0  0  0  0
   -0.5595    2.0966   -1.9712 H   0  0  0  0  0  0  0  0  0  0  0  0
    1.1909    0.4315   -2.4074 H   0  0  0  0  0  0  0  0  0  0  0  0
   -0.4941   -2.2070    0.3856 H   0  0  0  0  0  0  0  0  0  0  0  0
   -1.9756   -0.9046    2.1302 H   0  0  0  0  0  0  0  0  0  0  0  0
   -3.0165   -1.6932    0.8799 H   0  0  0  0  0  0  0  0  0  0  0  0
   -4.2045    0.1131    2.0591 H   0  0  0  0  0  0  0  0  0  0  0  0
    2.7377   -2.0909    0.7165 H   0  0  0  0  0  0  0  0  0  0  0  0
    2.7777    0.1193   -0.4259 H   0  0  0  0  0  0  0  0  0  0  0  0
    3.8718   -0.6365   -1.6534 H   0  0  0  0  0  0  0  0  0  0  0  0
    5.1869    0.6966   -0.0373 H   0  0  0  0  0  0  0  0  0  0  0  0
    5.6251   -1.0106    0.1071 H   0  0  0  0  0  0  0  0  0  0  0  0
  1  2  1  0
  2  3  1  0
  1  4  1  0
  4  5  1  0
  5  6  2  0
  6  7  1  0
  7  8  2  0
  8  9  1  0
  9 10  2  0
 10 11  1  0
 11 12  1  0
  8 13  1  0
 13 14  2  0
 13 15  2  0
 13 16  1  0
 16 17  1  0
 17 18  1  0
 18 19  1  0
 19 20  1  0
 19 21  1  0
 19 22  1  0
 12  1  1  0
 10  5  1  0
  1 23  1  6
  2 24  1  0
  2 25  1  0
  4 26  1  0
  4 27  1  0
  6 28  1  0
  7 29  1  0
  9 30  1  0
 11 31  1  0
 11 32  1  0
 12 33  1  0
 16 34  1  0
 17 35  1  0
 17 36  1  0
 18 37  1  0
 18 38  1  0
M  END
$$$$
