
     RDKit          3D

 29 30  0  0  0  0  0  0  0  0999 V2000
   -0.9270    0.8929    0.2366 C   0  0  1  0  0  0  0  0  0  0  0  0
   -1.5130    2.2143    0.6721 C   0  0  0  0  0  0  0  0  0  0  0  0
   -0.6284    3.2363    0.3281 O   0  0  0  0  0  0  0  0  0  0  0  0
    0.2835    0.6916    0.8676 O   0  0  0  0  0  0  0  0  0  0  0  0
    1.0010   -0.2708    0.1690 C   0  0  2  0  0  0  0  0  0  0  0  0
    2.2110   -0.4834    0.9430 N   0  0  0  0  0  0  0  0  0  0  0  0
    3.2581   -0.1505    0.3071 C   0  0  0  0  0  0  0  0  0  0  0  0
    5.0155   -0.1822    0.7315 S   0  0  0  0  0  0  0  0  0  0  0  0
    2.8248    0.3125   -0.9472 N   0  0  0  0  0  0  0  0  0  0  0  0
    1.5398    0.2673   -1.0846 C   0  0  0  0  0  0  0  0  0  0  0  0
    0.9628    0.7011   -2.2935 O   0  0  0  0  0  0  0  0  0  0  0  0
    0.2890   -1.5789    0.0614 C   0  0  2  0  0  0  0  0  0  0  0  0
    0.8017   -2.3246   -1.0049 O   0  0  0  0  0  0  0  0  0  0  0  0
   -1.1912   -1.4894   -0.0346 C   0  0  1  0  0  0  0  0  0  0  0  0
   -1.8115   -2.6191    0.5453 O   0  0  0  0  0  0  0  0  0  0  0  0
   -1.7989   -0.2776    0.6423 C   0  0  2  0  0  0  0  0  0  0  0  0
   -3.0556   -0.0475    0.0723 O   0  0  0  0  0  0  0  0  0  0  0  0
   -0.8865    0.8418   -0.8709 H   0  0  0  0  0  0  0  0  0  0  0  0
   -2.4162    2.4027    0.0210 H   0  0  0  0  0  0  0  0  0  0  0  0
   -1.8041    2.2127    1.7248 H   0  0  0  0  0  0  0  0  0  0  0  0
    0.0338    2.8983   -0.3561 H   0  0  0  0  0  0  0  0  0  0  0  0
    5.5106    1.1146    0.3971 H   0  0  0  0  0  0  0  0  0  0  0  0
    1.2368    1.5815   -2.7235 H   0  0  0  0  0  0  0  0  0  0  0  0
    0.5209   -2.1944    0.9803 H   0  0  0  0  0  0  0  0  0  0  0  0
    0.0781   -2.5535   -1.6491 H   0  0  0  0  0  0  0  0  0  0  0  0
   -1.5068   -1.4930   -1.1032 H   0  0  0  0  0  0  0  0  0  0  0  0
   -2.7678   -2.5374    0.3682 H   0  0  0  0  0  0  0  0  0  0  0  0
   -1.8764   -0.3802    1.7370 H   0  0  0  0  0  0  0  0  0  0  0  0
   -3.3842   -0.7853   -0.4789 H   0  0  0  0  0  0  0  0  0  0  0  0
  1  2  1  0
  2  3  1  0
  1  4  1  0
  5  4  1  1
  5  6  1  0
  6  7  2  0
  7  8  1  0
  7  9  1  0
  9 10  2  0
 10 11  1  0
  5 12  1  0
 12 13  1  0
 12 14  1  0
 14 15  1  0
 14 16  1  0
 16 17  1  0
 16  1  1  0
 10  5  1  0
  1 18  1  6
  2 19  1  0
  2 20  1  0
  3 21  1  0
  8 22  1  0
 11 23  1  0
 12 24  1  1
 13 25  1  0
 14 26  1  6
 15 27  1  0
 16 28  1  1
 17 29  1  0
M  END
$$$$
