@<TRIPOS>MOLECULE
*****
 29 30 0 0 0
SMALL
GASTEIGER

@<TRIPOS>ATOM
      1 C          -0.9270    0.8929    0.2366 C.3     1  UNL1        0.1133
      2 C          -1.5130    2.2143    0.6721 C.3     1  UNL1        0.0730
      3 O          -0.6284    3.2363    0.3281 O.3     1  UNL1       -0.3924
      4 O           0.2835    0.6916    0.8676 O.3     1  UNL1       -0.3346
      5 C           1.0010   -0.2708    0.1690 C.3     1  UNL1        0.2683
      6 N           2.2110   -0.4834    0.9430 N.2     1  UNL1       -0.2136
      7 C           3.2581   -0.1505    0.3071 C.2     1  UNL1        0.1869
      8 S           5.0155   -0.1822    0.7315 S.3     1  UNL1       -0.1036
      9 N           2.8248    0.3125   -0.9472 N.2     1  UNL1       -0.1874
     10 C           1.5398    0.2673   -1.0846 C.2     1  UNL1        0.2489
     11 O           0.9628    0.7011   -2.2935 O.2     1  UNL1       -0.4920
     12 C           0.2890   -1.5789    0.0614 C.3     1  UNL1        0.1419
     13 O           0.8017   -2.3246   -1.0049 O.3     1  UNL1       -0.3837
     14 C          -1.1912   -1.4894   -0.0346 C.3     1  UNL1        0.1144
     15 O          -1.8115   -2.6191    0.5453 O.3     1  UNL1       -0.3864
     16 C          -1.7989   -0.2776    0.6423 C.3     1  UNL1        0.1119
     17 O          -3.0556   -0.0475    0.0723 O.3     1  UNL1       -0.3865
     18 H          -0.8865    0.8418   -0.8709 H       1  UNL1        0.0647
     19 H          -2.4162    2.4027    0.0210 H       1  UNL1        0.0584
     20 H          -1.8041    2.2127    1.7248 H       1  UNL1        0.0584
     21 H           0.0338    2.8983   -0.3561 H       1  UNL1        0.2095
     22 H           5.5106    1.1146    0.3971 H       1  UNL1        0.1101
     23 H           1.2368    1.5815   -2.7235 H       1  UNL1        0.2936
     24 H           0.5209   -2.1944    0.9803 H       1  UNL1        0.0674
     25 H           0.0781   -2.5535   -1.6491 H       1  UNL1        0.2101
     26 H          -1.5068   -1.4930   -1.1032 H       1  UNL1        0.0648
     27 H          -2.7678   -2.5374    0.3682 H       1  UNL1        0.2100
     28 H          -1.8764   -0.3802    1.7370 H       1  UNL1        0.0647
     29 H          -3.3842   -0.7853   -0.4789 H       1  UNL1        0.2100
@<TRIPOS>BOND
     1     1     2    1
     2     2     3    1
     3     1     4    1
     4     5     4    1
     5     5     6    1
     6     6     7    2
     7     7     8    1
     8     7     9    1
     9     9    10    2
    10    10    11    1
    11     5    12    1
    12    12    13    1
    13    12    14    1
    14    14    15    1
    15    14    16    1
    16    16    17    1
    17    16     1    1
    18    10     5    1
    19     1    18    1
    20     2    19    1
    21     2    20    1
    22     3    21    1
    23     8    22    1
    24    11    23    1
    25    12    24    1
    26    13    25    1
    27    14    26    1
    28    15    27    1
    29    16    28    1
    30    17    29    1
