@<TRIPOS>MOLECULE
*****
 56 60 0 0 0
SMALL
GASTEIGER

@<TRIPOS>ATOM
      1 C          -5.6409    2.0368    2.4069 C.3     1  UNL1       -0.0397
      2 C          -5.1320    0.9996    1.4513 C.ar    1  UNL1       -0.0496
      3 C          -5.9983    0.2649    0.6455 C.ar    1  UNL1       -0.0567
      4 C          -5.5162   -0.6885   -0.2312 C.ar    1  UNL1       -0.0336
      5 C          -4.1477   -0.8933   -0.2867 C.ar    1  UNL1        0.0982
      6 N          -3.6770   -1.8759   -1.1944 N.ar    1  UNL1       -0.1496
      7 N          -3.0161   -2.9641   -0.7978 N.ar    1  UNL1       -0.1556
      8 C          -2.7077   -3.6946   -1.8789 C.ar    1  UNL1        0.0697
      9 C          -3.1902   -3.0446   -2.9905 C.ar    1  UNL1        0.0697
     10 N          -3.7846   -1.9183   -2.5087 N.ar    1  UNL1       -0.1556
     11 C          -3.2841   -0.1728    0.5052 C.ar    1  UNL1        0.0642
     12 C          -1.8370   -0.3864    0.4494 C.2     1  UNL1        0.2491
     13 O          -1.3870   -1.2630    1.2436 O.2     1  UNL1       -0.2699
     14 N          -1.0507    0.3567   -0.4407 N.am    1  UNL1       -0.2897
     15 C          -1.7124    1.3387   -1.3036 C.3     1  UNL1        0.0388
     16 C          -0.5811    2.3152   -1.6837 C.3     1  UNL1        0.0635
     17 O           0.1964    2.6291   -0.6042 O.3     1  UNL1       -0.3764
     18 C           0.9401    1.5756   -0.1186 C.3     1  UNL1        0.0666
     19 C           0.3693    0.2864   -0.6319 C.3     1  UNL1        0.0537
     20 C           1.0304   -0.9265   -0.0484 C.3     1  UNL1       -0.0068
     21 C           2.4872   -0.8866   -0.3184 C.ar    1  UNL1       -0.0435
     22 C           3.0246   -1.4380   -1.4545 C.ar    1  UNL1       -0.0584
     23 C           4.3723   -1.4184   -1.7339 C.ar    1  UNL1       -0.0595
     24 C           5.2258   -0.8186   -0.8349 C.ar    1  UNL1       -0.0363
     25 C           4.7338   -0.2405    0.3397 C.ar    1  UNL1        0.0656
     26 N           5.6390    0.3671    1.2424 N.ar    1  UNL1       -0.2399
     27 C           6.7934   -0.1467    1.7009 C.ar    1  UNL1        0.0312
     28 C           7.3744    0.7572    2.5570 C.ar    1  UNL1       -0.0238
     29 C           6.5388    1.8441    2.6095 C.ar    1  UNL1        0.0498
     30 N           5.4944    1.5496    1.7862 N.ar    1  UNL1       -0.1748
     31 C           3.3693   -0.2897    0.5692 C.ar    1  UNL1       -0.0330
     32 C          -3.7676    0.7778    1.3791 C.ar    1  UNL1       -0.0446
     33 H          -5.2533    1.8281    3.4138 H       1  UNL1        0.0278
     34 H          -6.7340    1.9831    2.4011 H       1  UNL1        0.0278
     35 H          -5.3462    3.0580    2.0382 H       1  UNL1        0.0278
     36 H          -7.0603    0.4306    0.6954 H       1  UNL1        0.0621
     37 H          -6.1678   -1.2723   -0.8673 H       1  UNL1        0.0640
     38 H          -2.1782   -4.6250   -1.8897 H       1  UNL1        0.0864
     39 H          -3.1338   -3.3271   -4.0333 H       1  UNL1        0.0864
     40 H          -2.4538    1.9196   -0.7502 H       1  UNL1        0.0487
     41 H          -2.0583    0.8969   -2.2456 H       1  UNL1        0.0487
     42 H          -1.1130    3.2578   -1.9868 H       1  UNL1        0.0575
     43 H          -0.0326    1.9777   -2.5699 H       1  UNL1        0.0575
     44 H           0.8377    1.6039    1.0011 H       1  UNL1        0.0578
     45 H           2.0255    1.6796   -0.3051 H       1  UNL1        0.0578
     46 H           0.5124    0.1932   -1.7527 H       1  UNL1        0.0526
     47 H           0.6195   -1.8216   -0.5497 H       1  UNL1        0.0332
     48 H           0.8822   -1.0489    1.0326 H       1  UNL1        0.0332
     49 H           2.3909   -1.9223   -2.1927 H       1  UNL1        0.0620
     50 H           4.7763   -1.8572   -2.6321 H       1  UNL1        0.0618
     51 H           6.2933   -0.7765   -1.0083 H       1  UNL1        0.0639
     52 H           7.1854   -1.1372    1.4174 H       1  UNL1        0.0831
     53 H           8.3002    0.6281    3.0769 H       1  UNL1        0.0648
     54 H           6.6742    2.7627    3.1895 H       1  UNL1        0.0848
     55 H           3.0065    0.1639    1.4860 H       1  UNL1        0.0641
     56 H          -3.1315    1.3724    2.0240 H       1  UNL1        0.0628
@<TRIPOS>BOND
     1     1     2    1
     2     2     3   ar
     3     3     4   ar
     4     4     5   ar
     5     5     6    1
     6     6     7   ar
     7     7     8   ar
     8     8     9   ar
     9     9    10   ar
    10     5    11   ar
    11    11    12    1
    12    12    13    2
    13    12    14   am
    14    14    15    1
    15    15    16    1
    16    16    17    1
    17    17    18    1
    18    18    19    1
    19    19    20    1
    20    20    21    1
    21    21    22   ar
    22    22    23   ar
    23    23    24   ar
    24    24    25   ar
    25    25    26    1
    26    26    27   ar
    27    27    28   ar
    28    28    29   ar
    29    29    30   ar
    30    25    31   ar
    31    11    32   ar
    32    32     2   ar
    33    10     6   ar
    34    19    14    1
    35    31    21   ar
    36    30    26   ar
    37     1    33    1
    38     1    34    1
    39     1    35    1
    40     3    36    1
    41     4    37    1
    42     8    38    1
    43     9    39    1
    44    15    40    1
    45    15    41    1
    46    16    42    1
    47    16    43    1
    48    18    44    1
    49    18    45    1
    50    19    46    1
    51    20    47    1
    52    20    48    1
    53    22    49    1
    54    23    50    1
    55    24    51    1
    56    27    52    1
    57    28    53    1
    58    29    54    1
    59    31    55    1
    60    32    56    1
