
     RDKit          3D

 56 60  0  0  0  0  0  0  0  0999 V2000
   -5.6409    2.0368    2.4069 C   0  0  0  0  0  0  0  0  0  0  0  0
   -5.1320    0.9996    1.4513 C   0  0  0  0  0  0  0  0  0  0  0  0
   -5.9983    0.2649    0.6455 C   0  0  0  0  0  0  0  0  0  0  0  0
   -5.5162   -0.6885   -0.2312 C   0  0  0  0  0  0  0  0  0  0  0  0
   -4.1477   -0.8933   -0.2867 C   0  0  0  0  0  0  0  0  0  0  0  0
   -3.6770   -1.8759   -1.1944 N   0  0  0  0  0  0  0  0  0  0  0  0
   -3.0161   -2.9641   -0.7978 N   0  0  0  0  0  0  0  0  0  0  0  0
   -2.7077   -3.6946   -1.8789 C   0  0  0  0  0  0  0  0  0  0  0  0
   -3.1902   -3.0446   -2.9905 C   0  0  0  0  0  0  0  0  0  0  0  0
   -3.7846   -1.9183   -2.5087 N   0  0  0  0  0  0  0  0  0  0  0  0
   -3.2841   -0.1728    0.5052 C   0  0  0  0  0  0  0  0  0  0  0  0
   -1.8370   -0.3864    0.4494 C   0  0  0  0  0  0  0  0  0  0  0  0
   -1.3870   -1.2630    1.2436 O   0  0  0  0  0  0  0  0  0  0  0  0
   -1.0507    0.3567   -0.4407 N   0  0  0  0  0  0  0  0  0  0  0  0
   -1.7124    1.3387   -1.3036 C   0  0  0  0  0  0  0  0  0  0  0  0
   -0.5811    2.3152   -1.6837 C   0  0  0  0  0  0  0  0  0  0  0  0
    0.1964    2.6291   -0.6042 O   0  0  0  0  0  0  0  0  0  0  0  0
    0.9401    1.5756   -0.1186 C   0  0  0  0  0  0  0  0  0  0  0  0
    0.3693    0.2864   -0.6319 C   0  0  1  0  0  0  0  0  0  0  0  0
    1.0304   -0.9265   -0.0484 C   0  0  0  0  0  0  0  0  0  0  0  0
    2.4872   -0.8866   -0.3184 C   0  0  0  0  0  0  0  0  0  0  0  0
    3.0246   -1.4380   -1.4545 C   0  0  0  0  0  0  0  0  0  0  0  0
    4.3723   -1.4184   -1.7339 C   0  0  0  0  0  0  0  0  0  0  0  0
    5.2258   -0.8186   -0.8349 C   0  0  0  0  0  0  0  0  0  0  0  0
    4.7338   -0.2405    0.3397 C   0  0  0  0  0  0  0  0  0  0  0  0
    5.6390    0.3671    1.2424 N   0  0  0  0  0  0  0  0  0  0  0  0
    6.7934   -0.1467    1.7009 C   0  0  0  0  0  0  0  0  0  0  0  0
    7.3744    0.7572    2.5570 C   0  0  0  0  0  0  0  0  0  0  0  0
    6.5388    1.8441    2.6095 C   0  0  0  0  0  0  0  0  0  0  0  0
    5.4944    1.5496    1.7862 N   0  0  0  0  0  0  0  0  0  0  0  0
    3.3693   -0.2897    0.5692 C   0  0  0  0  0  0  0  0  0  0  0  0
   -3.7676    0.7778    1.3791 C   0  0  0  0  0  0  0  0  0  0  0  0
   -5.2533    1.8281    3.4138 H   0  0  0  0  0  0  0  0  0  0  0  0
   -6.7340    1.9831    2.4011 H   0  0  0  0  0  0  0  0  0  0  0  0
   -5.3462    3.0580    2.0382 H   0  0  0  0  0  0  0  0  0  0  0  0
   -7.0603    0.4306    0.6954 H   0  0  0  0  0  0  0  0  0  0  0  0
   -6.1678   -1.2723   -0.8673 H   0  0  0  0  0  0  0  0  0  0  0  0
   -2.1782   -4.6250   -1.8897 H   0  0  0  0  0  0  0  0  0  0  0  0
   -3.1338   -3.3271   -4.0333 H   0  0  0  0  0  0  0  0  0  0  0  0
   -2.4538    1.9196   -0.7502 H   0  0  0  0  0  0  0  0  0  0  0  0
   -2.0583    0.8969   -2.2456 H   0  0  0  0  0  0  0  0  0  0  0  0
   -1.1130    3.2578   -1.9868 H   0  0  0  0  0  0  0  0  0  0  0  0
   -0.0326    1.9777   -2.5699 H   0  0  0  0  0  0  0  0  0  0  0  0
    0.8377    1.6039    1.0011 H   0  0  0  0  0  0  0  0  0  0  0  0
    2.0255    1.6796   -0.3051 H   0  0  0  0  0  0  0  0  0  0  0  0
    0.5124    0.1932   -1.7527 H   0  0  0  0  0  0  0  0  0  0  0  0
    0.6195   -1.8216   -0.5497 H   0  0  0  0  0  0  0  0  0  0  0  0
    0.8822   -1.0489    1.0326 H   0  0  0  0  0  0  0  0  0  0  0  0
    2.3909   -1.9223   -2.1927 H   0  0  0  0  0  0  0  0  0  0  0  0
    4.7763   -1.8572   -2.6321 H   0  0  0  0  0  0  0  0  0  0  0  0
    6.2933   -0.7765   -1.0083 H   0  0  0  0  0  0  0  0  0  0  0  0
    7.1854   -1.1372    1.4174 H   0  0  0  0  0  0  0  0  0  0  0  0
    8.3002    0.6281    3.0769 H   0  0  0  0  0  0  0  0  0  0  0  0
    6.6742    2.7627    3.1895 H   0  0  0  0  0  0  0  0  0  0  0  0
    3.0065    0.1639    1.4860 H   0  0  0  0  0  0  0  0  0  0  0  0
   -3.1315    1.3724    2.0240 H   0  0  0  0  0  0  0  0  0  0  0  0
  1  2  1  0
  2  3  2  0
  3  4  1  0
  4  5  2  0
  5  6  1  0
  6  7  1  0
  7  8  2  0
  8  9  1  0
  9 10  2  0
  5 11  1  0
 11 12  1  0
 12 13  2  0
 12 14  1  0
 14 15  1  0
 15 16  1  0
 16 17  1  0
 17 18  1  0
 18 19  1  0
 19 20  1  0
 20 21  1  0
 21 22  2  0
 22 23  1  0
 23 24  2  0
 24 25  1  0
 25 26  1  0
 26 27  1  0
 27 28  2  0
 28 29  1  0
 29 30  2  0
 25 31  2  0
 11 32  2  0
 32  2  1  0
 10  6  1  0
 19 14  1  0
 31 21  1  0
 30 26  1  0
  1 33  1  0
  1 34  1  0
  1 35  1  0
  3 36  1  0
  4 37  1  0
  8 38  1  0
  9 39  1  0
 15 40  1  0
 15 41  1  0
 16 42  1  0
 16 43  1  0
 18 44  1  0
 18 45  1  0
 19 46  1  6
 20 47  1  0
 20 48  1  0
 22 49  1  0
 23 50  1  0
 24 51  1  0
 27 52  1  0
 28 53  1  0
 29 54  1  0
 31 55  1  0
 32 56  1  0
M  END
$$$$
