@<TRIPOS>MOLECULE
*****
 57 59 0 0 0
SMALL
GASTEIGER

@<TRIPOS>ATOM
      1 C          -8.0239    1.4402    0.7907 C.3     1  UNL1       -0.0611
      2 C          -7.6594   -0.0313    0.6058 C.3     1  UNL1       -0.0051
      3 C          -6.3397   -0.0857   -0.1536 C.3     1  UNL1        0.2059
      4 C          -6.4724    0.5752   -1.4836 C.2     1  UNL1        0.3490
      5 O          -5.7984    1.6007   -1.7729 O.2     1  UNL1       -0.2465
      6 O          -7.3367    0.0875   -2.4424 O.3     1  UNL1       -0.4778
      7 C          -6.0143   -1.5189   -0.3879 C.3     1  UNL1        0.0018
      8 C          -4.8953   -2.0388    0.4504 C.3     1  UNL1       -0.0201
      9 C          -3.7694   -1.0852    0.3633 C.ar    1  UNL1       -0.0053
     10 C          -2.4700   -1.4412    0.1923 C.ar    1  UNL1       -0.0517
     11 C          -1.4630   -0.4688    0.1253 C.ar    1  UNL1       -0.0195
     12 C          -1.7123    0.8775    0.2243 C.ar    1  UNL1        0.1240
     13 O          -0.7940    1.8905    0.1650 O.3     1  UNL1       -0.4917
     14 C           0.5644    1.7610   -0.0391 C.3     1  UNL1        0.0927
     15 C           1.0114    1.2178   -1.3541 C.3     1  UNL1        0.0157
     16 C           2.5404    1.1418   -1.3723 C.3     1  UNL1        0.0927
     17 O           2.9748    0.3004   -0.3412 O.3     1  UNL1       -0.4904
     18 C           4.2787    0.0015   -0.0606 C.ar    1  UNL1        0.1390
     19 C           5.3582    0.5093   -0.7829 C.ar    1  UNL1       -0.0150
     20 C           6.6442    0.1586   -0.4353 C.ar    1  UNL1       -0.0164
     21 C           6.9259   -0.6870    0.6125 C.ar    1  UNL1        0.1225
     22 O           8.2252   -1.0292    0.9483 O.3     1  UNL1       -0.4830
     23 C           9.2727   -0.4780    0.1738 C.3     1  UNL1        0.1842
     24 C          10.6256   -0.9515    0.6717 C.3     1  UNL1        0.4236
     25 F          10.7036   -2.3279    0.5930 F       1  UNL1       -0.1671
     26 F          11.6173   -0.3458   -0.0407 F       1  UNL1       -0.1671
     27 F          10.7191   -0.5779    1.9926 F       1  UNL1       -0.1671
     28 C           5.8487   -1.1844    1.3215 C.ar    1  UNL1        0.0019
     29 C           4.5406   -0.8526    0.9995 C.ar    1  UNL1        0.0860
     30 CL          3.2002   -1.5072    1.9267 Cl      1  UNL1       -0.0796
     31 C          -3.0646    1.2274    0.4017 C.ar    1  UNL1        0.0221
     32 C          -4.0446    0.2626    0.4662 C.ar    1  UNL1        0.1287
     33 O          -5.3959    0.6024    0.6430 O.3     1  UNL1       -0.4741
     34 H          -8.7016    1.4934    1.6608 H       1  UNL1        0.0231
     35 H          -7.0843    2.0009    0.9191 H       1  UNL1        0.0231
     36 H          -8.5676    1.7403   -0.1521 H       1  UNL1        0.0231
     37 H          -8.4605   -0.5726    0.1009 H       1  UNL1        0.0307
     38 H          -7.5490   -0.4430    1.6271 H       1  UNL1        0.0307
     39 H          -7.2163    0.2774   -3.4277 H       1  UNL1        0.2952
     40 H          -5.7414   -1.7239   -1.4616 H       1  UNL1        0.0312
     41 H          -6.9020   -2.1825   -0.2045 H       1  UNL1        0.0312
     42 H          -5.2092   -2.2071    1.4949 H       1  UNL1        0.0316
     43 H          -4.6084   -3.0479    0.0351 H       1  UNL1        0.0316
     44 H          -2.2090   -2.4868    0.1068 H       1  UNL1        0.0623
     45 H          -0.4493   -0.8149    0.0126 H       1  UNL1        0.0654
     46 H           1.0570    1.1004    0.7492 H       1  UNL1        0.0697
     47 H           1.0290    2.7621    0.1800 H       1  UNL1        0.0697
     48 H           0.5842    0.2648   -1.6589 H       1  UNL1        0.0331
     49 H           0.6665    1.9548   -2.1330 H       1  UNL1        0.0331
     50 H           2.9478    2.1616   -1.1676 H       1  UNL1        0.0697
     51 H           2.8879    0.7941   -2.3570 H       1  UNL1        0.0697
     52 H           5.1497    1.1709   -1.6035 H       1  UNL1        0.0656
     53 H           7.4926    0.5494   -0.9927 H       1  UNL1        0.0655
     54 H           9.2075    0.6281    0.1642 H       1  UNL1        0.0788
     55 H           9.1356   -0.8955   -0.8605 H       1  UNL1        0.0788
     56 H           6.0399   -1.8610    2.1623 H       1  UNL1        0.0670
     57 H          -3.2964    2.2943    0.4871 H       1  UNL1        0.0691
@<TRIPOS>BOND
     1     1     2    1
     2     3     2    1
     3     3     4    1
     4     4     5    2
     5     4     6    1
     6     3     7    1
     7     7     8    1
     8     8     9    1
     9     9    10   ar
    10    10    11   ar
    11    11    12   ar
    12    12    13    1
    13    13    14    1
    14    14    15    1
    15    15    16    1
    16    16    17    1
    17    17    18    1
    18    18    19   ar
    19    19    20   ar
    20    20    21   ar
    21    21    22    1
    22    22    23    1
    23    23    24    1
    24    24    25    1
    25    24    26    1
    26    24    27    1
    27    21    28   ar
    28    28    29   ar
    29    29    30    1
    30    12    31   ar
    31    31    32   ar
    32    32    33    1
    33    33     3    1
    34    32     9   ar
    35    29    18   ar
    36     1    34    1
    37     1    35    1
    38     1    36    1
    39     2    37    1
    40     2    38    1
    41     6    39    1
    42     7    40    1
    43     7    41    1
    44     8    42    1
    45     8    43    1
    46    10    44    1
    47    11    45    1
    48    14    46    1
    49    14    47    1
    50    15    48    1
    51    15    49    1
    52    16    50    1
    53    16    51    1
    54    19    52    1
    55    20    53    1
    56    23    54    1
    57    23    55    1
    58    28    56    1
    59    31    57    1
