@<TRIPOS>MOLECULE
*****
 60 62 0 0 0
SMALL
GASTEIGER

@<TRIPOS>ATOM
      1 C          -1.7167    6.1487    0.8145 C.3     1  UNL1        0.0788
      2 O          -1.0002    4.9728    1.0537 O.3     1  UNL1       -0.4951
      3 C          -0.9916    3.9023    0.1654 C.ar    1  UNL1        0.1207
      4 C          -1.7088    3.9745   -1.0061 C.ar    1  UNL1       -0.0199
      5 C          -1.7021    2.9221   -1.8837 C.ar    1  UNL1       -0.0577
      6 C          -0.9713    1.7580   -1.6113 C.ar    1  UNL1       -0.0524
      7 C          -0.2728    1.7008   -0.4570 C.ar    1  UNL1        0.0035
      8 C           0.4829    0.4843   -0.1223 C.ar    1  UNL1        0.0697
      9 C           1.8291    0.4449    0.2171 C.ar    1  UNL1       -0.0108
     10 C           2.1573   -0.8636    0.4924 C.ar    1  UNL1        0.0892
     11 C           3.4844   -1.3869    0.9000 C.3     1  UNL1        0.0928
     12 O           4.3023   -1.8841   -0.0225 O.3     1  UNL1       -0.3566
     13 C           4.7821   -1.1944   -1.0700 C.3     1  UNL1        0.1602
     14 C           3.7335   -0.7393   -2.0329 C.3     1  UNL1       -0.0256
     15 C           5.5946    0.0338   -0.6621 C.3     1  UNL1       -0.0256
     16 C           5.7445   -2.0310   -1.8724 C.2     1  UNL1        0.3365
     17 O           6.2756   -1.5313   -2.8775 O.2     1  UNL1       -0.2478
     18 O           5.9871   -3.3114   -1.4492 O.3     1  UNL1       -0.4786
     19 N           1.0165   -1.5503    0.3120 N.ar    1  UNL1       -0.1730
     20 N           0.0072   -0.7387   -0.0576 N.ar    1  UNL1       -0.2590
     21 C          -1.3462   -1.2586   -0.2747 C.3     1  UNL1        0.0689
     22 C          -1.9999   -1.2251    1.0864 C.ar    1  UNL1       -0.0051
     23 C          -1.3627   -0.7172    2.1992 C.ar    1  UNL1       -0.0551
     24 C          -1.9662   -0.6893    3.4390 C.ar    1  UNL1       -0.0613
     25 C          -3.2440   -1.1850    3.5647 C.ar    1  UNL1       -0.0600
     26 C          -3.9141   -1.6990    2.4848 C.ar    1  UNL1       -0.0404
     27 C          -3.2777   -1.7155    1.2353 C.ar    1  UNL1        0.0342
     28 N          -3.9594   -2.2455    0.1072 N.pl3   1  UNL1       -0.3357
     29 C          -4.2831   -1.4648   -1.0696 C.3     1  UNL1        0.0004
     30 C          -4.3640   -3.6457    0.1117 C.3     1  UNL1        0.0004
     31 C          -0.2794    2.7681    0.4322 C.ar    1  UNL1       -0.0108
     32 H          -1.7560    6.7509    1.7547 H       1  UNL1        0.0660
     33 H          -2.7283    5.9903    0.4258 H       1  UNL1        0.0660
     34 H          -1.1630    6.7212    0.0226 H       1  UNL1        0.0660
     35 H          -2.2848    4.8519   -1.2547 H       1  UNL1        0.0654
     36 H          -2.2640    2.9714   -2.8070 H       1  UNL1        0.0619
     37 H          -0.9943    0.9756   -2.3588 H       1  UNL1        0.0624
     38 H           2.4605    1.3216    0.2437 H       1  UNL1        0.0658
     39 H           3.3003   -2.1902    1.6815 H       1  UNL1        0.0626
     40 H           3.9438   -0.5634    1.5283 H       1  UNL1        0.0626
     41 H           4.0520   -0.9435   -3.1055 H       1  UNL1        0.0263
     42 H           3.6347    0.3588   -1.9539 H       1  UNL1        0.0263
     43 H           2.7713   -1.2905   -1.8447 H       1  UNL1        0.0263
     44 H           6.2196    0.3083   -1.5402 H       1  UNL1        0.0263
     45 H           6.2943   -0.1979    0.1591 H       1  UNL1        0.0263
     46 H           4.9404    0.9013   -0.4638 H       1  UNL1        0.0263
     47 H           6.5811   -3.9690   -1.9453 H       1  UNL1        0.2951
     48 H          -1.8506   -0.6020   -0.9712 H       1  UNL1        0.0559
     49 H          -1.2283   -2.2976   -0.6244 H       1  UNL1        0.0559
     50 H          -0.3406   -0.3311    2.0518 H       1  UNL1        0.0621
     51 H          -1.4795   -0.2987    4.3011 H       1  UNL1        0.0618
     52 H          -3.7547   -1.1779    4.5400 H       1  UNL1        0.0618
     53 H          -4.9176   -2.1025    2.5191 H       1  UNL1        0.0636
     54 H          -4.2249   -0.3981   -0.8033 H       1  UNL1        0.0428
     55 H          -5.3534   -1.6190   -1.3798 H       1  UNL1        0.0428
     56 H          -3.6956   -1.7578   -1.9585 H       1  UNL1        0.0428
     57 H          -3.8412   -4.2251   -0.6959 H       1  UNL1        0.0428
     58 H          -5.4526   -3.7633   -0.1070 H       1  UNL1        0.0428
     59 H          -4.2049   -4.1236    1.0987 H       1  UNL1        0.0428
     60 H           0.2997    2.6665    1.3410 H       1  UNL1        0.0661
@<TRIPOS>BOND
     1     1     2    1
     2     2     3    1
     3     3     4   ar
     4     4     5   ar
     5     5     6   ar
     6     6     7   ar
     7     7     8    1
     8     8     9   ar
     9     9    10   ar
    10    10    11    1
    11    11    12    1
    12    12    13    1
    13    13    14    1
    14    13    15    1
    15    13    16    1
    16    16    17    2
    17    16    18    1
    18    10    19   ar
    19    19    20   ar
    20    20    21    1
    21    21    22    1
    22    22    23   ar
    23    23    24   ar
    24    24    25   ar
    25    25    26   ar
    26    26    27   ar
    27    27    28    1
    28    28    29    1
    29    28    30    1
    30     7    31   ar
    31    31     3   ar
    32    20     8   ar
    33    27    22   ar
    34     1    32    1
    35     1    33    1
    36     1    34    1
    37     4    35    1
    38     5    36    1
    39     6    37    1
    40     9    38    1
    41    11    39    1
    42    11    40    1
    43    14    41    1
    44    14    42    1
    45    14    43    1
    46    15    44    1
    47    15    45    1
    48    15    46    1
    49    18    47    1
    50    21    48    1
    51    21    49    1
    52    23    50    1
    53    24    51    1
    54    25    52    1
    55    26    53    1
    56    29    54    1
    57    29    55    1
    58    29    56    1
    59    30    57    1
    60    30    58    1
    61    30    59    1
    62    31    60    1
