
     RDKit          3D

 60 62  0  0  0  0  0  0  0  0999 V2000
   -1.7167    6.1487    0.8145 C   0  0  0  0  0  0  0  0  0  0  0  0
   -1.0002    4.9728    1.0537 O   0  0  0  0  0  0  0  0  0  0  0  0
   -0.9916    3.9023    0.1654 C   0  0  0  0  0  0  0  0  0  0  0  0
   -1.7088    3.9745   -1.0061 C   0  0  0  0  0  0  0  0  0  0  0  0
   -1.7021    2.9221   -1.8837 C   0  0  0  0  0  0  0  0  0  0  0  0
   -0.9713    1.7580   -1.6113 C   0  0  0  0  0  0  0  0  0  0  0  0
   -0.2728    1.7008   -0.4570 C   0  0  0  0  0  0  0  0  0  0  0  0
    0.4829    0.4843   -0.1223 C   0  0  0  0  0  0  0  0  0  0  0  0
    1.8291    0.4449    0.2171 C   0  0  0  0  0  0  0  0  0  0  0  0
    2.1573   -0.8636    0.4924 C   0  0  0  0  0  0  0  0  0  0  0  0
    3.4844   -1.3869    0.9000 C   0  0  0  0  0  0  0  0  0  0  0  0
    4.3023   -1.8841   -0.0225 O   0  0  0  0  0  0  0  0  0  0  0  0
    4.7821   -1.1944   -1.0700 C   0  0  0  0  0  0  0  0  0  0  0  0
    3.7335   -0.7393   -2.0329 C   0  0  0  0  0  0  0  0  0  0  0  0
    5.5946    0.0338   -0.6621 C   0  0  0  0  0  0  0  0  0  0  0  0
    5.7445   -2.0310   -1.8724 C   0  0  0  0  0  0  0  0  0  0  0  0
    6.2756   -1.5313   -2.8775 O   0  0  0  0  0  0  0  0  0  0  0  0
    5.9871   -3.3114   -1.4492 O   0  0  0  0  0  0  0  0  0  0  0  0
    1.0165   -1.5503    0.3120 N   0  0  0  0  0  0  0  0  0  0  0  0
    0.0072   -0.7387   -0.0576 N   0  0  0  0  0  0  0  0  0  0  0  0
   -1.3462   -1.2586   -0.2747 C   0  0  0  0  0  0  0  0  0  0  0  0
   -1.9999   -1.2251    1.0864 C   0  0  0  0  0  0  0  0  0  0  0  0
   -1.3627   -0.7172    2.1992 C   0  0  0  0  0  0  0  0  0  0  0  0
   -1.9662   -0.6893    3.4390 C   0  0  0  0  0  0  0  0  0  0  0  0
   -3.2440   -1.1850    3.5647 C   0  0  0  0  0  0  0  0  0  0  0  0
   -3.9141   -1.6990    2.4848 C   0  0  0  0  0  0  0  0  0  0  0  0
   -3.2777   -1.7155    1.2353 C   0  0  0  0  0  0  0  0  0  0  0  0
   -3.9594   -2.2455    0.1072 N   0  0  0  0  0  0  0  0  0  0  0  0
   -4.2831   -1.4648   -1.0696 C   0  0  0  0  0  0  0  0  0  0  0  0
   -4.3640   -3.6457    0.1117 C   0  0  0  0  0  0  0  0  0  0  0  0
   -0.2794    2.7681    0.4322 C   0  0  0  0  0  0  0  0  0  0  0  0
   -1.7560    6.7509    1.7547 H   0  0  0  0  0  0  0  0  0  0  0  0
   -2.7283    5.9903    0.4258 H   0  0  0  0  0  0  0  0  0  0  0  0
   -1.1630    6.7212    0.0226 H   0  0  0  0  0  0  0  0  0  0  0  0
   -2.2848    4.8519   -1.2547 H   0  0  0  0  0  0  0  0  0  0  0  0
   -2.2640    2.9714   -2.8070 H   0  0  0  0  0  0  0  0  0  0  0  0
   -0.9943    0.9756   -2.3588 H   0  0  0  0  0  0  0  0  0  0  0  0
    2.4605    1.3216    0.2437 H   0  0  0  0  0  0  0  0  0  0  0  0
    3.3003   -2.1902    1.6815 H   0  0  0  0  0  0  0  0  0  0  0  0
    3.9438   -0.5634    1.5283 H   0  0  0  0  0  0  0  0  0  0  0  0
    4.0520   -0.9435   -3.1055 H   0  0  0  0  0  0  0  0  0  0  0  0
    3.6347    0.3588   -1.9539 H   0  0  0  0  0  0  0  0  0  0  0  0
    2.7713   -1.2905   -1.8447 H   0  0  0  0  0  0  0  0  0  0  0  0
    6.2196    0.3083   -1.5402 H   0  0  0  0  0  0  0  0  0  0  0  0
    6.2943   -0.1979    0.1591 H   0  0  0  0  0  0  0  0  0  0  0  0
    4.9404    0.9013   -0.4638 H   0  0  0  0  0  0  0  0  0  0  0  0
    6.5811   -3.9690   -1.9453 H   0  0  0  0  0  0  0  0  0  0  0  0
   -1.8506   -0.6020   -0.9712 H   0  0  0  0  0  0  0  0  0  0  0  0
   -1.2283   -2.2976   -0.6244 H   0  0  0  0  0  0  0  0  0  0  0  0
   -0.3406   -0.3311    2.0518 H   0  0  0  0  0  0  0  0  0  0  0  0
   -1.4795   -0.2987    4.3011 H   0  0  0  0  0  0  0  0  0  0  0  0
   -3.7547   -1.1779    4.5400 H   0  0  0  0  0  0  0  0  0  0  0  0
   -4.9176   -2.1025    2.5191 H   0  0  0  0  0  0  0  0  0  0  0  0
   -4.2249   -0.3981   -0.8033 H   0  0  0  0  0  0  0  0  0  0  0  0
   -5.3534   -1.6190   -1.3798 H   0  0  0  0  0  0  0  0  0  0  0  0
   -3.6956   -1.7578   -1.9585 H   0  0  0  0  0  0  0  0  0  0  0  0
   -3.8412   -4.2251   -0.6959 H   0  0  0  0  0  0  0  0  0  0  0  0
   -5.4526   -3.7633   -0.1070 H   0  0  0  0  0  0  0  0  0  0  0  0
   -4.2049   -4.1236    1.0987 H   0  0  0  0  0  0  0  0  0  0  0  0
    0.2997    2.6665    1.3410 H   0  0  0  0  0  0  0  0  0  0  0  0
  1  2  1  0
  2  3  1  0
  3  4  2  0
  4  5  1  0
  5  6  2  0
  6  7  1  0
  7  8  1  0
  8  9  2  0
  9 10  1  0
 10 11  1  0
 11 12  1  0
 12 13  1  0
 13 14  1  0
 13 15  1  0
 13 16  1  0
 16 17  2  0
 16 18  1  0
 10 19  2  0
 19 20  1  0
 20 21  1  0
 21 22  1  0
 22 23  2  0
 23 24  1  0
 24 25  2  0
 25 26  1  0
 26 27  2  0
 27 28  1  0
 28 29  1  0
 28 30  1  0
  7 31  2  0
 31  3  1  0
 20  8  1  0
 27 22  1  0
  1 32  1  0
  1 33  1  0
  1 34  1  0
  4 35  1  0
  5 36  1  0
  6 37  1  0
  9 38  1  0
 11 39  1  0
 11 40  1  0
 14 41  1  0
 14 42  1  0
 14 43  1  0
 15 44  1  0
 15 45  1  0
 15 46  1  0
 18 47  1  0
 21 48  1  0
 21 49  1  0
 23 50  1  0
 24 51  1  0
 25 52  1  0
 26 53  1  0
 29 54  1  0
 29 55  1  0
 29 56  1  0
 30 57  1  0
 30 58  1  0
 30 59  1  0
 31 60  1  0
M  END
$$$$
