@<TRIPOS>MOLECULE
*****
 46 48 0 0 0
SMALL
GASTEIGER

@<TRIPOS>ATOM
      1 C           4.0995   -0.0982   -3.4999 C.3     1  UNL1        0.0707
      2 S           3.7827   -0.2744   -1.7679 S.O2    1  UNL1        0.0290
      3 O           4.8069    0.5235   -1.0125 O.2     1  UNL1       -0.1583
      4 O           3.9513   -1.7171   -1.3802 O.2     1  UNL1       -0.1583
      5 N           2.1969    0.2939   -1.4255 N.3     1  UNL1       -0.1796
      6 C           1.1755   -0.4348   -2.0972 C.3     1  UNL1        0.0219
      7 C           0.1043   -0.8076   -1.0670 C.3     1  UNL1       -0.0187
      8 C           0.6552   -0.3698    0.2406 C.3     1  UNL1        0.0394
      9 N          -0.2571    0.2164    1.1744 N.pl3   1  UNL1       -0.3211
     10 C          -0.8522   -0.6181    2.1722 C.3     1  UNL1        0.0390
     11 C          -1.4807   -1.8427    1.6167 C.ar    1  UNL1       -0.0119
     12 C          -0.8335   -3.0718    1.7651 C.ar    1  UNL1       -0.0557
     13 C          -1.4536   -4.1898    1.2347 C.ar    1  UNL1       -0.0614
     14 C          -2.6638   -4.1191    0.5802 C.ar    1  UNL1       -0.0604
     15 C          -3.3052   -2.9002    0.4332 C.ar    1  UNL1       -0.0431
     16 C          -2.6790   -1.7630    0.9702 C.ar    1  UNL1        0.0456
     17 CL         -3.4524   -0.2172    0.8066 Cl      1  UNL1       -0.0832
     18 C          -0.6364    1.5609    1.0590 C.ar    1  UNL1        0.0317
     19 C          -1.3264    2.2012    2.0679 C.ar    1  UNL1       -0.0393
     20 C          -1.7841    3.5085    1.9696 C.ar    1  UNL1       -0.0412
     21 C          -1.5446    4.2091    0.8187 C.ar    1  UNL1        0.0701
     22 C          -2.0046    5.5771    0.6727 C.1     1  UNL1        0.1006
     23 N          -2.3780    6.6707    0.5488 N.1     1  UNL1       -0.1908
     24 C          -0.8687    3.6377   -0.2181 C.ar    1  UNL1        0.0600
     25 CL         -0.5852    4.5647   -1.6770 Cl      1  UNL1       -0.0822
     26 C          -0.4249    2.3159   -0.0779 C.ar    1  UNL1       -0.0210
     27 C           1.9205    0.3492   -0.0163 C.3     1  UNL1        0.0387
     28 H           4.4346    0.9314   -3.7587 H       1  UNL1        0.0479
     29 H           3.1932   -0.3698   -4.0858 H       1  UNL1        0.0479
     30 H           4.8946   -0.8049   -3.8157 H       1  UNL1        0.0479
     31 H           0.7462    0.2732   -2.8703 H       1  UNL1        0.0444
     32 H           1.4948   -1.3108   -2.6638 H       1  UNL1        0.0444
     33 H          -0.8160   -0.3110   -1.3785 H       1  UNL1        0.0296
     34 H          -0.0765   -1.8953   -1.1445 H       1  UNL1        0.0296
     35 H           0.9996   -1.3885    0.7247 H       1  UNL1        0.0513
     36 H          -1.6300   -0.1582    2.8017 H       1  UNL1        0.0513
     37 H          -0.0571   -0.9452    2.8796 H       1  UNL1        0.0513
     38 H           0.1213   -3.1463    2.2782 H       1  UNL1        0.0621
     39 H          -0.9687   -5.1509    1.3394 H       1  UNL1        0.0618
     40 H          -3.1001   -5.0233    0.1866 H       1  UNL1        0.0618
     41 H          -4.2591   -2.7976   -0.0768 H       1  UNL1        0.0632
     42 H          -1.5453    1.7120    3.0323 H       1  UNL1        0.0636
     43 H          -2.3219    3.9457    2.8072 H       1  UNL1        0.0631
     44 H           0.0692    1.9512   -0.9661 H       1  UNL1        0.0651
     45 H           1.8560    1.3959    0.3038 H       1  UNL1        0.0462
     46 H           2.8025   -0.1124    0.5151 H       1  UNL1        0.0462
@<TRIPOS>BOND
     1     1     2    1
     2     2     3    2
     3     2     4    2
     4     2     5    1
     5     5     6    1
     6     6     7    1
     7     7     8    1
     8     8     9    1
     9     9    10    1
    10    10    11    1
    11    11    12   ar
    12    12    13   ar
    13    13    14   ar
    14    14    15   ar
    15    15    16   ar
    16    16    17    1
    17     9    18    1
    18    18    19   ar
    19    19    20   ar
    20    20    21   ar
    21    21    22    1
    22    22    23    3
    23    21    24   ar
    24    24    25    1
    25    24    26   ar
    26     8    27    1
    27    27     5    1
    28    16    11   ar
    29    26    18   ar
    30     1    28    1
    31     1    29    1
    32     1    30    1
    33     6    31    1
    34     6    32    1
    35     7    33    1
    36     7    34    1
    37     8    35    1
    38    10    36    1
    39    10    37    1
    40    12    38    1
    41    13    39    1
    42    14    40    1
    43    15    41    1
    44    19    42    1
    45    20    43    1
    46    26    44    1
    47    27    45    1
    48    27    46    1
