@<TRIPOS>MOLECULE
*****
 54 56 0 0 0
SMALL
GASTEIGER

@<TRIPOS>ATOM
      1 C           5.6280    1.0486    2.1537 C.3     1  UNL1       -0.0613
      2 C           5.7874   -0.4372    1.8792 C.3     1  UNL1       -0.0305
      3 C           4.7429   -0.8422    0.9154 C.ar    1  UNL1       -0.0476
      4 C           3.5182   -1.2765    1.3901 C.ar    1  UNL1       -0.0583
      5 C           2.5160   -1.6633    0.5245 C.ar    1  UNL1       -0.0580
      6 C           2.6922   -1.6332   -0.8317 C.ar    1  UNL1       -0.0430
      7 C           1.6518   -2.0362   -1.8051 C.3     1  UNL1       -0.0024
      8 C           0.7900   -0.9058   -2.2058 C.ar    1  UNL1       -0.0428
      9 C           1.1420   -0.1325   -3.2911 C.ar    1  UNL1       -0.0582
     10 C           0.3042    0.9110   -3.6251 C.ar    1  UNL1       -0.0612
     11 C          -0.8418    1.1883   -2.9189 C.ar    1  UNL1       -0.0582
     12 C          -1.2025    0.4042   -1.8152 C.ar    1  UNL1       -0.0415
     13 C          -2.4120    0.6496   -1.0224 C.3     1  UNL1        0.0131
     14 C          -2.0872    1.1297    0.3983 C.3     1  UNL1       -0.0364
     15 C          -3.4419    1.4310    1.0164 C.3     1  UNL1        0.0113
     16 C          -3.3433    2.3155    2.2141 C.3     1  UNL1        0.0495
     17 O          -2.7575    3.5450    1.8662 O.3     1  UNL1       -0.3946
     18 C          -4.0969    0.1297    1.3297 C.3     1  UNL1        0.0884
     19 O          -5.4966    0.2803    1.4610 O.3     1  UNL1       -0.3888
     20 C          -3.7317   -0.9735    0.3906 C.3     1  UNL1        0.1077
     21 O          -2.7945   -1.8380    0.9482 O.3     1  UNL1       -0.3866
     22 C          -3.3722   -0.4876   -0.9707 C.3     1  UNL1        0.0902
     23 O          -4.5814   -0.1354   -1.6153 O.3     1  UNL1       -0.3885
     24 C          -0.3651   -0.6389   -1.4811 C.ar    1  UNL1       -0.0547
     25 C           3.9129   -1.2005   -1.3104 C.ar    1  UNL1       -0.0580
     26 C           4.9245   -0.8104   -0.4554 C.ar    1  UNL1       -0.0583
     27 H           5.4879    1.5448    1.1556 H       1  UNL1        0.0233
     28 H           4.7214    1.1793    2.7913 H       1  UNL1        0.0233
     29 H           6.5024    1.4207    2.6921 H       1  UNL1        0.0233
     30 H           5.7846   -1.0318    2.8081 H       1  UNL1        0.0311
     31 H           6.7937   -0.5784    1.3981 H       1  UNL1        0.0311
     32 H           3.3631   -1.3058    2.4700 H       1  UNL1        0.0620
     33 H           1.5789   -1.9949    0.9244 H       1  UNL1        0.0620
     34 H           2.1629   -2.4000   -2.7210 H       1  UNL1        0.0361
     35 H           1.0653   -2.8996   -1.4256 H       1  UNL1        0.0361
     36 H           2.0375   -0.3215   -3.8711 H       1  UNL1        0.0620
     37 H           0.5657    1.5388   -4.4850 H       1  UNL1        0.0618
     38 H          -1.5128    2.0143   -3.1765 H       1  UNL1        0.0620
     39 H          -2.9230    1.5434   -1.4920 H       1  UNL1        0.0375
     40 H          -1.5017    0.4048    0.9601 H       1  UNL1        0.0276
     41 H          -1.5739    2.1147    0.2995 H       1  UNL1        0.0276
     42 H          -4.0192    1.9816    0.2383 H       1  UNL1        0.0349
     43 H          -4.3758    2.5589    2.5382 H       1  UNL1        0.0561
     44 H          -2.8277    1.8577    3.0721 H       1  UNL1        0.0561
     45 H          -2.2432    3.9378    2.6096 H       1  UNL1        0.2094
     46 H          -3.7325   -0.1815    2.3504 H       1  UNL1        0.0623
     47 H          -5.9288   -0.3783    0.8668 H       1  UNL1        0.2099
     48 H          -4.6664   -1.5997    0.2652 H       1  UNL1        0.0645
     49 H          -3.2441   -2.2931    1.7103 H       1  UNL1        0.2100
     50 H          -2.9724   -1.3388   -1.5737 H       1  UNL1        0.0626
     51 H          -4.9895   -0.9108   -2.0711 H       1  UNL1        0.2099
     52 H          -0.6244   -1.2563   -0.6332 H       1  UNL1        0.0623
     53 H           4.0914   -1.1625   -2.3824 H       1  UNL1        0.0620
     54 H           5.8950   -0.4655   -0.8014 H       1  UNL1        0.0620
@<TRIPOS>BOND
     1     1     2    1
     2     2     3    1
     3     3     4   ar
     4     4     5   ar
     5     5     6   ar
     6     6     7    1
     7     7     8    1
     8     8     9   ar
     9     9    10   ar
    10    10    11   ar
    11    11    12   ar
    12    12    13    1
    13    13    14    1
    14    14    15    1
    15    15    16    1
    16    16    17    1
    17    15    18    1
    18    18    19    1
    19    18    20    1
    20    20    21    1
    21    20    22    1
    22    22    23    1
    23    12    24   ar
    24     6    25   ar
    25    25    26   ar
    26    26     3   ar
    27    24     8   ar
    28    22    13    1
    29     1    27    1
    30     1    28    1
    31     1    29    1
    32     2    30    1
    33     2    31    1
    34     4    32    1
    35     5    33    1
    36     7    34    1
    37     7    35    1
    38     9    36    1
    39    10    37    1
    40    11    38    1
    41    13    39    1
    42    14    40    1
    43    14    41    1
    44    15    42    1
    45    16    43    1
    46    16    44    1
    47    17    45    1
    48    18    46    1
    49    19    47    1
    50    20    48    1
    51    21    49    1
    52    22    50    1
    53    23    51    1
    54    24    52    1
    55    25    53    1
    56    26    54    1
