
     RDKit          3D

 54 56  0  0  0  0  0  0  0  0999 V2000
    5.6280    1.0486    2.1537 C   0  0  0  0  0  0  0  0  0  0  0  0
    5.7874   -0.4372    1.8792 C   0  0  0  0  0  0  0  0  0  0  0  0
    4.7429   -0.8422    0.9154 C   0  0  0  0  0  0  0  0  0  0  0  0
    3.5182   -1.2765    1.3901 C   0  0  0  0  0  0  0  0  0  0  0  0
    2.5160   -1.6633    0.5245 C   0  0  0  0  0  0  0  0  0  0  0  0
    2.6922   -1.6332   -0.8317 C   0  0  0  0  0  0  0  0  0  0  0  0
    1.6518   -2.0362   -1.8051 C   0  0  0  0  0  0  0  0  0  0  0  0
    0.7900   -0.9058   -2.2058 C   0  0  0  0  0  0  0  0  0  0  0  0
    1.1420   -0.1325   -3.2911 C   0  0  0  0  0  0  0  0  0  0  0  0
    0.3042    0.9110   -3.6251 C   0  0  0  0  0  0  0  0  0  0  0  0
   -0.8418    1.1883   -2.9189 C   0  0  0  0  0  0  0  0  0  0  0  0
   -1.2025    0.4042   -1.8152 C   0  0  0  0  0  0  0  0  0  0  0  0
   -2.4120    0.6496   -1.0224 C   0  0  2  0  0  0  0  0  0  0  0  0
   -2.0872    1.1297    0.3983 C   0  0  0  0  0  0  0  0  0  0  0  0
   -3.4419    1.4310    1.0164 C   0  0  2  0  0  0  0  0  0  0  0  0
   -3.3433    2.3155    2.2141 C   0  0  0  0  0  0  0  0  0  0  0  0
   -2.7575    3.5450    1.8662 O   0  0  0  0  0  0  0  0  0  0  0  0
   -4.0969    0.1297    1.3297 C   0  0  1  0  0  0  0  0  0  0  0  0
   -5.4966    0.2803    1.4610 O   0  0  0  0  0  0  0  0  0  0  0  0
   -3.7317   -0.9735    0.3906 C   0  0  2  0  0  0  0  0  0  0  0  0
   -2.7945   -1.8380    0.9482 O   0  0  0  0  0  0  0  0  0  0  0  0
   -3.3722   -0.4876   -0.9707 C   0  0  1  0  0  0  0  0  0  0  0  0
   -4.5814   -0.1354   -1.6153 O   0  0  0  0  0  0  0  0  0  0  0  0
   -0.3651   -0.6389   -1.4811 C   0  0  0  0  0  0  0  0  0  0  0  0
    3.9129   -1.2005   -1.3104 C   0  0  0  0  0  0  0  0  0  0  0  0
    4.9245   -0.8104   -0.4554 C   0  0  0  0  0  0  0  0  0  0  0  0
    5.4879    1.5448    1.1556 H   0  0  0  0  0  0  0  0  0  0  0  0
    4.7214    1.1793    2.7913 H   0  0  0  0  0  0  0  0  0  0  0  0
    6.5024    1.4207    2.6921 H   0  0  0  0  0  0  0  0  0  0  0  0
    5.7846   -1.0318    2.8081 H   0  0  0  0  0  0  0  0  0  0  0  0
    6.7937   -0.5784    1.3981 H   0  0  0  0  0  0  0  0  0  0  0  0
    3.3631   -1.3058    2.4700 H   0  0  0  0  0  0  0  0  0  0  0  0
    1.5789   -1.9949    0.9244 H   0  0  0  0  0  0  0  0  0  0  0  0
    2.1629   -2.4000   -2.7210 H   0  0  0  0  0  0  0  0  0  0  0  0
    1.0653   -2.8996   -1.4256 H   0  0  0  0  0  0  0  0  0  0  0  0
    2.0375   -0.3215   -3.8711 H   0  0  0  0  0  0  0  0  0  0  0  0
    0.5657    1.5388   -4.4850 H   0  0  0  0  0  0  0  0  0  0  0  0
   -1.5128    2.0143   -3.1765 H   0  0  0  0  0  0  0  0  0  0  0  0
   -2.9230    1.5434   -1.4920 H   0  0  0  0  0  0  0  0  0  0  0  0
   -1.5017    0.4048    0.9601 H   0  0  0  0  0  0  0  0  0  0  0  0
   -1.5739    2.1147    0.2995 H   0  0  0  0  0  0  0  0  0  0  0  0
   -4.0192    1.9816    0.2383 H   0  0  0  0  0  0  0  0  0  0  0  0
   -4.3758    2.5589    2.5382 H   0  0  0  0  0  0  0  0  0  0  0  0
   -2.8277    1.8577    3.0721 H   0  0  0  0  0  0  0  0  0  0  0  0
   -2.2432    3.9378    2.6096 H   0  0  0  0  0  0  0  0  0  0  0  0
   -3.7325   -0.1815    2.3504 H   0  0  0  0  0  0  0  0  0  0  0  0
   -5.9288   -0.3783    0.8668 H   0  0  0  0  0  0  0  0  0  0  0  0
   -4.6664   -1.5997    0.2652 H   0  0  0  0  0  0  0  0  0  0  0  0
   -3.2441   -2.2931    1.7103 H   0  0  0  0  0  0  0  0  0  0  0  0
   -2.9724   -1.3388   -1.5737 H   0  0  0  0  0  0  0  0  0  0  0  0
   -4.9895   -0.9108   -2.0711 H   0  0  0  0  0  0  0  0  0  0  0  0
   -0.6244   -1.2563   -0.6332 H   0  0  0  0  0  0  0  0  0  0  0  0
    4.0914   -1.1625   -2.3824 H   0  0  0  0  0  0  0  0  0  0  0  0
    5.8950   -0.4655   -0.8014 H   0  0  0  0  0  0  0  0  0  0  0  0
  1  2  1  0
  2  3  1  0
  3  4  2  0
  4  5  1  0
  5  6  2  0
  6  7  1  0
  7  8  1  0
  8  9  2  0
  9 10  1  0
 10 11  2  0
 11 12  1  0
 12 13  1  0
 13 14  1  0
 14 15  1  0
 15 16  1  0
 16 17  1  0
 15 18  1  0
 18 19  1  0
 18 20  1  0
 20 21  1  0
 20 22  1  0
 22 23  1  0
 12 24  2  0
  6 25  1  0
 25 26  2  0
 26  3  1  0
 24  8  1  0
 22 13  1  0
  1 27  1  0
  1 28  1  0
  1 29  1  0
  2 30  1  0
  2 31  1  0
  4 32  1  0
  5 33  1  0
  7 34  1  0
  7 35  1  0
  9 36  1  0
 10 37  1  0
 11 38  1  0
 13 39  1  6
 14 40  1  0
 14 41  1  0
 15 42  1  6
 16 43  1  0
 16 44  1  0
 17 45  1  0
 18 46  1  1
 19 47  1  0
 20 48  1  6
 21 49  1  0
 22 50  1  6
 23 51  1  0
 24 52  1  0
 25 53  1  0
 26 54  1  0
M  END
$$$$
