@<TRIPOS>MOLECULE
*****
 42 44 0 0 0
SMALL
GASTEIGER

@<TRIPOS>ATOM
      1 C           6.6001    1.6614    0.3552 C.3     1  UNL1        0.0788
      2 O           5.7907    0.7672    1.0847 O.3     1  UNL1       -0.4951
      3 C           4.4789    0.5493    0.6853 C.ar    1  UNL1        0.1201
      4 C           3.9635    1.1981   -0.4152 C.ar    1  UNL1       -0.0196
      5 C           2.6796    1.0041   -0.8309 C.ar    1  UNL1       -0.0533
      6 C           1.8236    0.1449   -0.1704 C.ar    1  UNL1       -0.0245
      7 C           0.4761   -0.0068   -0.6738 C.3     1  UNL1        0.0794
      8 C          -0.4859    0.5433    0.3737 C.3     1  UNL1        0.0165
      9 C          -1.7298   -0.1461   -0.0501 C.2     1  UNL1        0.0723
     10 C          -3.0711    0.3460    0.2261 C.ar    1  UNL1        0.0395
     11 C          -3.2606    1.5196    0.9201 C.ar    1  UNL1       -0.0459
     12 C          -4.5431    1.9904    1.1844 C.ar    1  UNL1       -0.0193
     13 C          -5.6537    1.2767    0.7478 C.ar    1  UNL1        0.1204
     14 O          -6.9215    1.7719    1.0266 O.3     1  UNL1       -0.5066
     15 C          -5.4665    0.1147    0.0606 C.ar    1  UNL1        0.0219
     16 C          -4.1973   -0.3373   -0.1926 C.ar    1  UNL1        0.1292
     17 O          -4.0298   -1.5153   -0.8895 O.3     1  UNL1       -0.5060
     18 N          -1.3987   -1.2348   -0.6921 N.2     1  UNL1       -0.1808
     19 N          -0.0087   -1.3638   -0.7524 N.am    1  UNL1       -0.1853
     20 C           0.6672   -2.5823   -0.8655 C.2     1  UNL1        0.2322
     21 C          -0.0884   -3.8531   -0.9314 C.3     1  UNL1        0.0140
     22 O           1.9281   -2.6887   -0.9183 O.2     1  UNL1       -0.2741
     23 C           2.3505   -0.4986    0.9290 C.ar    1  UNL1       -0.0533
     24 C           3.6500   -0.3128    1.3634 C.ar    1  UNL1       -0.0196
     25 H           6.1707    2.6773    0.3312 H       1  UNL1        0.0660
     26 H           7.6146    1.6880    0.8000 H       1  UNL1        0.0660
     27 H           6.7423    1.2870   -0.6998 H       1  UNL1        0.0660
     28 H           4.6207    1.8734   -0.9423 H       1  UNL1        0.0654
     29 H           2.3415    1.5599   -1.7200 H       1  UNL1        0.0622
     30 H           0.3154    0.5647   -1.5903 H       1  UNL1        0.0574
     31 H          -0.5658    1.6385    0.3376 H       1  UNL1        0.0351
     32 H          -0.2020    0.1397    1.3607 H       1  UNL1        0.0351
     33 H          -2.4242    2.1057    1.2778 H       1  UNL1        0.0626
     34 H          -4.6760    2.9042    1.7249 H       1  UNL1        0.0654
     35 H          -7.3293    2.5784    0.6005 H       1  UNL1        0.2921
     36 H          -6.3401   -0.4320   -0.2741 H       1  UNL1        0.0691
     37 H          -4.6070   -2.3322   -0.7841 H       1  UNL1        0.2922
     38 H          -0.3612   -4.1155   -1.9884 H       1  UNL1        0.0323
     39 H           0.4624   -4.6933   -0.4440 H       1  UNL1        0.0323
     40 H          -1.0659   -3.7949   -0.3945 H       1  UNL1        0.0323
     41 H           1.7109   -1.1736    1.4650 H       1  UNL1        0.0622
     42 H           4.0398   -0.8231    2.2209 H       1  UNL1        0.0654
@<TRIPOS>BOND
     1     1     2    1
     2     2     3    1
     3     3     4   ar
     4     4     5   ar
     5     5     6   ar
     6     6     7    1
     7     7     8    1
     8     8     9    1
     9     9    10    1
    10    10    11   ar
    11    11    12   ar
    12    12    13   ar
    13    13    14    1
    14    13    15   ar
    15    15    16   ar
    16    16    17    1
    17     9    18    2
    18    18    19    1
    19    19    20   am
    20    20    21    1
    21    20    22    2
    22     6    23   ar
    23    23    24   ar
    24    24     3   ar
    25    19     7    1
    26    16    10   ar
    27     1    25    1
    28     1    26    1
    29     1    27    1
    30     4    28    1
    31     5    29    1
    32     7    30    1
    33     8    31    1
    34     8    32    1
    35    11    33    1
    36    12    34    1
    37    14    35    1
    38    15    36    1
    39    17    37    1
    40    21    38    1
    41    21    39    1
    42    21    40    1
    43    23    41    1
    44    24    42    1
