
     RDKit          3D

 42 44  0  0  0  0  0  0  0  0999 V2000
    6.6001    1.6614    0.3552 C   0  0  0  0  0  0  0  0  0  0  0  0
    5.7907    0.7672    1.0847 O   0  0  0  0  0  0  0  0  0  0  0  0
    4.4789    0.5493    0.6853 C   0  0  0  0  0  0  0  0  0  0  0  0
    3.9635    1.1981   -0.4152 C   0  0  0  0  0  0  0  0  0  0  0  0
    2.6796    1.0041   -0.8309 C   0  0  0  0  0  0  0  0  0  0  0  0
    1.8236    0.1449   -0.1704 C   0  0  0  0  0  0  0  0  0  0  0  0
    0.4761   -0.0068   -0.6738 C   0  0  0  0  0  0  0  0  0  0  0  0
   -0.4859    0.5433    0.3737 C   0  0  0  0  0  0  0  0  0  0  0  0
   -1.7298   -0.1461   -0.0501 C   0  0  0  0  0  0  0  0  0  0  0  0
   -3.0711    0.3460    0.2261 C   0  0  0  0  0  0  0  0  0  0  0  0
   -3.2606    1.5196    0.9201 C   0  0  0  0  0  0  0  0  0  0  0  0
   -4.5431    1.9904    1.1844 C   0  0  0  0  0  0  0  0  0  0  0  0
   -5.6537    1.2767    0.7478 C   0  0  0  0  0  0  0  0  0  0  0  0
   -6.9215    1.7719    1.0266 O   0  0  0  0  0  0  0  0  0  0  0  0
   -5.4665    0.1147    0.0606 C   0  0  0  0  0  0  0  0  0  0  0  0
   -4.1973   -0.3373   -0.1926 C   0  0  0  0  0  0  0  0  0  0  0  0
   -4.0298   -1.5153   -0.8895 O   0  0  0  0  0  0  0  0  0  0  0  0
   -1.3987   -1.2348   -0.6921 N   0  0  0  0  0  0  0  0  0  0  0  0
   -0.0087   -1.3638   -0.7524 N   0  0  0  0  0  0  0  0  0  0  0  0
    0.6672   -2.5823   -0.8655 C   0  0  0  0  0  0  0  0  0  0  0  0
   -0.0884   -3.8531   -0.9314 C   0  0  0  0  0  0  0  0  0  0  0  0
    1.9281   -2.6887   -0.9183 O   0  0  0  0  0  0  0  0  0  0  0  0
    2.3505   -0.4986    0.9290 C   0  0  0  0  0  0  0  0  0  0  0  0
    3.6500   -0.3128    1.3634 C   0  0  0  0  0  0  0  0  0  0  0  0
    6.1707    2.6773    0.3312 H   0  0  0  0  0  0  0  0  0  0  0  0
    7.6146    1.6880    0.8000 H   0  0  0  0  0  0  0  0  0  0  0  0
    6.7423    1.2870   -0.6998 H   0  0  0  0  0  0  0  0  0  0  0  0
    4.6207    1.8734   -0.9423 H   0  0  0  0  0  0  0  0  0  0  0  0
    2.3415    1.5599   -1.7200 H   0  0  0  0  0  0  0  0  0  0  0  0
    0.3154    0.5647   -1.5903 H   0  0  0  0  0  0  0  0  0  0  0  0
   -0.5658    1.6385    0.3376 H   0  0  0  0  0  0  0  0  0  0  0  0
   -0.2020    0.1397    1.3607 H   0  0  0  0  0  0  0  0  0  0  0  0
   -2.4242    2.1057    1.2778 H   0  0  0  0  0  0  0  0  0  0  0  0
   -4.6760    2.9042    1.7249 H   0  0  0  0  0  0  0  0  0  0  0  0
   -7.3293    2.5784    0.6005 H   0  0  0  0  0  0  0  0  0  0  0  0
   -6.3401   -0.4320   -0.2741 H   0  0  0  0  0  0  0  0  0  0  0  0
   -4.6070   -2.3322   -0.7841 H   0  0  0  0  0  0  0  0  0  0  0  0
   -0.3612   -4.1155   -1.9884 H   0  0  0  0  0  0  0  0  0  0  0  0
    0.4624   -4.6933   -0.4440 H   0  0  0  0  0  0  0  0  0  0  0  0
   -1.0659   -3.7949   -0.3945 H   0  0  0  0  0  0  0  0  0  0  0  0
    1.7109   -1.1736    1.4650 H   0  0  0  0  0  0  0  0  0  0  0  0
    4.0398   -0.8231    2.2209 H   0  0  0  0  0  0  0  0  0  0  0  0
  1  2  1  0
  2  3  1  0
  3  4  2  0
  4  5  1  0
  5  6  2  0
  6  7  1  0
  7  8  1  0
  8  9  1  0
  9 10  1  0
 10 11  2  0
 11 12  1  0
 12 13  2  0
 13 14  1  0
 13 15  1  0
 15 16  2  0
 16 17  1  0
  9 18  2  0
 18 19  1  0
 19 20  1  0
 20 21  1  0
 20 22  2  0
  6 23  1  0
 23 24  2  0
 24  3  1  0
 19  7  1  0
 16 10  1  0
  1 25  1  0
  1 26  1  0
  1 27  1  0
  4 28  1  0
  5 29  1  0
  7 30  1  0
  8 31  1  0
  8 32  1  0
 11 33  1  0
 12 34  1  0
 14 35  1  0
 15 36  1  0
 17 37  1  0
 21 38  1  0
 21 39  1  0
 21 40  1  0
 23 41  1  0
 24 42  1  0
M  END
$$$$
