@<TRIPOS>MOLECULE
*****
 56 58 0 0 0
SMALL
GASTEIGER

@<TRIPOS>ATOM
      1 N           1.9512   -1.8271   -2.4399 N.am    1  UNL1       -0.3251
      2 C           1.2686   -0.7494   -1.8329 C.2     1  UNL1        0.2491
      3 O           0.0514   -0.8406   -1.6557 O.2     1  UNL1       -0.2701
      4 C           1.9851    0.5035   -1.3989 C.ar    1  UNL1        0.1277
      5 C           3.2994    0.5986   -1.5681 C.ar    1  UNL1        0.2370
      6 O           4.1791   -0.2980   -2.1048 O.3     1  UNL1       -0.4705
      7 C           5.5352   -0.2468   -2.2928 C.3     1  UNL1        0.1216
      8 C           6.2219   -0.0684   -0.9986 C.ar    1  UNL1        0.0600
      9 C           6.2703   -1.0964   -0.0821 C.ar    1  UNL1        0.1336
     10 F           5.6410   -2.2634   -0.4073 F       1  UNL1       -0.2050
     11 C           6.9385   -0.9478    1.1367 C.ar    1  UNL1       -0.0119
     12 C           7.5684    0.2345    1.4538 C.ar    1  UNL1        0.0233
     13 BR          8.4905    0.4404    3.1338 Br      1  UNL1       -0.0501
     14 C           7.5225    1.2627    0.5420 C.ar    1  UNL1       -0.0119
     15 C           6.8507    1.1008   -0.6740 C.ar    1  UNL1        0.1336
     16 F           6.8597    2.1566   -1.5437 F       1  UNL1       -0.2050
     17 N           3.8807    1.8457   -1.1121 N.ar    1  UNL1       -0.1724
     18 S           2.4916    2.7255   -0.5010 S.2     1  UNL1        0.0315
     19 C           1.2925    1.5073   -0.8448 C.ar    1  UNL1        0.1089
     20 N          -0.1219    1.6066   -0.5816 N.am    1  UNL1       -0.2619
     21 C          -0.7170    1.2383    0.6505 C.2     1  UNL1        0.3043
     22 O           0.0444    0.8167    1.5652 O.2     1  UNL1       -0.2525
     23 N          -2.1118    1.3271    0.8799 N.am    1  UNL1       -0.2991
     24 C          -2.7800    0.9660    2.1192 C.3     1  UNL1        0.0131
     25 C          -2.5247   -0.4776    2.4081 C.3     1  UNL1       -0.0362
     26 C          -2.9225   -1.4784    1.4330 C.3     1  UNL1       -0.0388
     27 C          -4.2772   -1.8103    1.0412 C.3     1  UNL1       -0.0011
     28 N          -5.2385   -1.0221    0.4893 N.3     1  UNL1       -0.3023
     29 C          -5.9733   -0.0244    1.1300 C.3     1  UNL1       -0.0011
     30 C          -6.0076    1.1646    0.1831 C.3     1  UNL1       -0.0390
     31 C          -6.1297    0.4233   -1.1548 C.3     1  UNL1       -0.0390
     32 C          -5.2613   -0.7906   -0.9303 C.3     1  UNL1       -0.0011
     33 H           1.9928   -1.9742   -3.4727 H       1  UNL1        0.1453
     34 H           2.4532   -2.5356   -1.8531 H       1  UNL1        0.1453
     35 H           5.8481    0.6235   -2.9434 H       1  UNL1        0.0750
     36 H           5.8991   -1.1609   -2.8245 H       1  UNL1        0.0750
     37 H           6.9739   -1.7559    1.8497 H       1  UNL1        0.0657
     38 H           8.0157    2.1829    0.7922 H       1  UNL1        0.0657
     39 H          -0.7181    1.9683   -1.3386 H       1  UNL1        0.1569
     40 H          -2.7211    1.6832    0.0934 H       1  UNL1        0.1502
     41 H          -3.7929    1.3278    2.1725 H       1  UNL1        0.0462
     42 H          -2.2261    1.5684    2.9262 H       1  UNL1        0.0462
     43 H          -2.9548   -0.7180    3.4631 H       1  UNL1        0.0281
     44 H          -1.4121   -0.5336    2.6593 H       1  UNL1        0.0281
     45 H          -2.2372   -1.3128    0.5218 H       1  UNL1        0.0278
     46 H          -2.4548   -2.4754    1.8079 H       1  UNL1        0.0278
     47 H          -4.2545   -2.7934    0.3926 H       1  UNL1        0.0426
     48 H          -4.7704   -2.2966    1.9889 H       1  UNL1        0.0426
     49 H          -7.0704   -0.3760    1.1334 H       1  UNL1        0.0426
     50 H          -5.7812    0.2131    2.1686 H       1  UNL1        0.0426
     51 H          -6.9116    1.7902    0.3201 H       1  UNL1        0.0278
     52 H          -5.0853    1.7595    0.2194 H       1  UNL1        0.0278
     53 H          -7.1963    0.1367   -1.2327 H       1  UNL1        0.0278
     54 H          -5.7967    1.0378   -1.9956 H       1  UNL1        0.0278
     55 H          -4.2945   -0.6683   -1.4125 H       1  UNL1        0.0426
     56 H          -5.7817   -1.6294   -1.4784 H       1  UNL1        0.0426
@<TRIPOS>BOND
     1     1     2   am
     2     2     3    2
     3     2     4    1
     4     4     5   ar
     5     5     6    1
     6     6     7    1
     7     7     8    1
     8     8     9   ar
     9     9    10    1
    10     9    11   ar
    11    11    12   ar
    12    12    13    1
    13    12    14   ar
    14    14    15   ar
    15    15    16    1
    16     5    17   ar
    17    17    18   ar
    18    18    19   ar
    19    19    20    1
    20    20    21   am
    21    21    22    2
    22    21    23   am
    23    23    24    1
    24    24    25    1
    25    25    26    1
    26    26    27    1
    27    27    28    1
    28    28    29    1
    29    29    30    1
    30    30    31    1
    31    31    32    1
    32    19     4   ar
    33    32    28    1
    34    15     8   ar
    35     1    33    1
    36     1    34    1
    37     7    35    1
    38     7    36    1
    39    11    37    1
    40    14    38    1
    41    20    39    1
    42    23    40    1
    43    24    41    1
    44    24    42    1
    45    25    43    1
    46    25    44    1
    47    26    45    1
    48    26    46    1
    49    27    47    1
    50    27    48    1
    51    29    49    1
    52    29    50    1
    53    30    51    1
    54    30    52    1
    55    31    53    1
    56    31    54    1
    57    32    55    1
    58    32    56    1
