
     RDKit          3D

 56 58  0  0  0  0  0  0  0  0999 V2000
    1.9512   -1.8271   -2.4399 N   0  0  0  0  0  0  0  0  0  0  0  0
    1.2686   -0.7494   -1.8329 C   0  0  0  0  0  0  0  0  0  0  0  0
    0.0514   -0.8406   -1.6557 O   0  0  0  0  0  0  0  0  0  0  0  0
    1.9851    0.5035   -1.3989 C   0  0  0  0  0  0  0  0  0  0  0  0
    3.2994    0.5986   -1.5681 C   0  0  0  0  0  0  0  0  0  0  0  0
    4.1791   -0.2980   -2.1048 O   0  0  0  0  0  0  0  0  0  0  0  0
    5.5352   -0.2468   -2.2928 C   0  0  0  0  0  0  0  0  0  0  0  0
    6.2219   -0.0684   -0.9986 C   0  0  0  0  0  0  0  0  0  0  0  0
    6.2703   -1.0964   -0.0821 C   0  0  0  0  0  0  0  0  0  0  0  0
    5.6410   -2.2634   -0.4073 F   0  0  0  0  0  0  0  0  0  0  0  0
    6.9385   -0.9478    1.1367 C   0  0  0  0  0  0  0  0  0  0  0  0
    7.5684    0.2345    1.4538 C   0  0  0  0  0  0  0  0  0  0  0  0
    8.4905    0.4404    3.1338 Br  0  0  0  0  0  0  0  0  0  0  0  0
    7.5225    1.2627    0.5420 C   0  0  0  0  0  0  0  0  0  0  0  0
    6.8507    1.1008   -0.6740 C   0  0  0  0  0  0  0  0  0  0  0  0
    6.8597    2.1566   -1.5437 F   0  0  0  0  0  0  0  0  0  0  0  0
    3.8807    1.8457   -1.1121 N   0  0  0  0  0  0  0  0  0  0  0  0
    2.4916    2.7255   -0.5010 S   0  0  0  0  0  0  0  0  0  0  0  0
    1.2925    1.5073   -0.8448 C   0  0  0  0  0  0  0  0  0  0  0  0
   -0.1219    1.6066   -0.5816 N   0  0  0  0  0  0  0  0  0  0  0  0
   -0.7170    1.2383    0.6505 C   0  0  0  0  0  0  0  0  0  0  0  0
    0.0444    0.8167    1.5652 O   0  0  0  0  0  0  0  0  0  0  0  0
   -2.1118    1.3271    0.8799 N   0  0  0  0  0  0  0  0  0  0  0  0
   -2.7800    0.9660    2.1192 C   0  0  0  0  0  0  0  0  0  0  0  0
   -2.5247   -0.4776    2.4081 C   0  0  0  0  0  0  0  0  0  0  0  0
   -2.9225   -1.4784    1.4330 C   0  0  0  0  0  0  0  0  0  0  0  0
   -4.2772   -1.8103    1.0412 C   0  0  0  0  0  0  0  0  0  0  0  0
   -5.2385   -1.0221    0.4893 N   0  0  0  0  0  0  0  0  0  0  0  0
   -5.9733   -0.0244    1.1300 C   0  0  0  0  0  0  0  0  0  0  0  0
   -6.0076    1.1646    0.1831 C   0  0  0  0  0  0  0  0  0  0  0  0
   -6.1297    0.4233   -1.1548 C   0  0  0  0  0  0  0  0  0  0  0  0
   -5.2613   -0.7906   -0.9303 C   0  0  0  0  0  0  0  0  0  0  0  0
    1.9928   -1.9742   -3.4727 H   0  0  0  0  0  0  0  0  0  0  0  0
    2.4532   -2.5356   -1.8531 H   0  0  0  0  0  0  0  0  0  0  0  0
    5.8481    0.6235   -2.9434 H   0  0  0  0  0  0  0  0  0  0  0  0
    5.8991   -1.1609   -2.8245 H   0  0  0  0  0  0  0  0  0  0  0  0
    6.9739   -1.7559    1.8497 H   0  0  0  0  0  0  0  0  0  0  0  0
    8.0157    2.1829    0.7922 H   0  0  0  0  0  0  0  0  0  0  0  0
   -0.7181    1.9683   -1.3386 H   0  0  0  0  0  0  0  0  0  0  0  0
   -2.7211    1.6832    0.0934 H   0  0  0  0  0  0  0  0  0  0  0  0
   -3.7929    1.3278    2.1725 H   0  0  0  0  0  0  0  0  0  0  0  0
   -2.2261    1.5684    2.9262 H   0  0  0  0  0  0  0  0  0  0  0  0
   -2.9548   -0.7180    3.4631 H   0  0  0  0  0  0  0  0  0  0  0  0
   -1.4121   -0.5336    2.6593 H   0  0  0  0  0  0  0  0  0  0  0  0
   -2.2372   -1.3128    0.5218 H   0  0  0  0  0  0  0  0  0  0  0  0
   -2.4548   -2.4754    1.8079 H   0  0  0  0  0  0  0  0  0  0  0  0
   -4.2545   -2.7934    0.3926 H   0  0  0  0  0  0  0  0  0  0  0  0
   -4.7704   -2.2966    1.9889 H   0  0  0  0  0  0  0  0  0  0  0  0
   -7.0704   -0.3760    1.1334 H   0  0  0  0  0  0  0  0  0  0  0  0
   -5.7812    0.2131    2.1686 H   0  0  0  0  0  0  0  0  0  0  0  0
   -6.9116    1.7902    0.3201 H   0  0  0  0  0  0  0  0  0  0  0  0
   -5.0853    1.7595    0.2194 H   0  0  0  0  0  0  0  0  0  0  0  0
   -7.1963    0.1367   -1.2327 H   0  0  0  0  0  0  0  0  0  0  0  0
   -5.7967    1.0378   -1.9956 H   0  0  0  0  0  0  0  0  0  0  0  0
   -4.2945   -0.6683   -1.4125 H   0  0  0  0  0  0  0  0  0  0  0  0
   -5.7817   -1.6294   -1.4784 H   0  0  0  0  0  0  0  0  0  0  0  0
  1  2  1  0
  2  3  2  0
  2  4  1  0
  4  5  1  0
  5  6  1  0
  6  7  1  0
  7  8  1  0
  8  9  2  0
  9 10  1  0
  9 11  1  0
 11 12  2  0
 12 13  1  0
 12 14  1  0
 14 15  2  0
 15 16  1  0
  5 17  2  0
 17 18  1  0
 18 19  1  0
 19 20  1  0
 20 21  1  0
 21 22  2  0
 21 23  1  0
 23 24  1  0
 24 25  1  0
 25 26  1  0
 26 27  1  0
 27 28  1  0
 28 29  1  0
 29 30  1  0
 30 31  1  0
 31 32  1  0
 19  4  2  0
 32 28  1  0
 15  8  1  0
  1 33  1  0
  1 34  1  0
  7 35  1  0
  7 36  1  0
 11 37  1  0
 14 38  1  0
 20 39  1  0
 23 40  1  0
 24 41  1  0
 24 42  1  0
 25 43  1  0
 25 44  1  0
 26 45  1  0
 26 46  1  0
 27 47  1  0
 27 48  1  0
 29 49  1  0
 29 50  1  0
 30 51  1  0
 30 52  1  0
 31 53  1  0
 31 54  1  0
 32 55  1  0
 32 56  1  0
M  END
$$$$
