@<TRIPOS>MOLECULE
*****
 22 21 0 0 0
SMALL
GASTEIGER

@<TRIPOS>ATOM
      1 N           2.4543    1.2179   -0.4753 N.3     1  UNL1       -0.3184
      2 CA          1.3929    0.5456    0.2565 C.3     1  UNL1        0.1045
      3 C           0.3145    0.1875   -0.7368 C.3     1  UNL1       -0.0041
      4 C          -0.8627   -0.5163   -0.1485 C.3     1  UNL1        0.1545
      5 C          -1.8601   -0.8161   -1.2347 C.2     1  UNL1        0.3187
      6 O          -2.3996    0.2525   -1.9487 O.3     1  UNL1       -0.4800
      7 O          -2.2471   -1.9702   -1.5498 O.2     1  UNL1       -0.2501
      8 C          -1.5545    0.2810    0.8800 C.2     1  UNL1        0.3187
      9 O          -2.1268    1.5163    0.6557 O.3     1  UNL1       -0.4800
     10 O          -1.6817   -0.1155    2.0842 O.2     1  UNL1       -0.2501
     11 C           1.9558   -0.6170    0.9440 C.2     1  UNL1        0.3217
     12 O           1.2565   -1.4983    1.7367 O.3     1  UNL1       -0.4795
     13 OXT         3.1917   -0.9364    0.8721 O.2     1  UNL1       -0.2493
     14 H1          2.4076    0.9444   -1.4814 H       1  UNL1        0.1190
     15 H2          3.3882    0.9528   -0.0658 H       1  UNL1        0.1190
     16 HA          0.9462    1.3167    0.9230 H       1  UNL1        0.0574
     17 H          -0.0492    1.1051   -1.2424 H       1  UNL1        0.0299
     18 H           0.7634   -0.4504   -1.5175 H       1  UNL1        0.0299
     19 H          -0.5960   -1.4924    0.3113 H       1  UNL1        0.0529
     20 H          -3.2473    0.1058   -2.5168 H       1  UNL1        0.2951
     21 H          -3.0326    1.8068    0.9913 H       1  UNL1        0.2951
     22 H           1.5865   -1.8198    2.6586 H       1  UNL1        0.2951
@<TRIPOS>BOND
     1     1     2    1
     2     2     3    1
     3     3     4    1
     4     4     5    1
     5     5     6    1
     6     5     7    2
     7     4     8    1
     8     8     9    1
     9     8    10    2
    10     2    11    1
    11    11    12    1
    12    11    13    2
    13     1    14    1
    14     1    15    1
    15     2    16    1
    16     3    17    1
    17     3    18    1
    18     4    19    1
    19     6    20    1
    20     9    21    1
    21    12    22    1
