@<TRIPOS>MOLECULE
*****
 41 44 0 0 0
SMALL
GASTEIGER

@<TRIPOS>ATOM
      1 O           5.7665    1.8392    0.5649 O.3     1  UNL1       -0.4795
      2 C           4.8625    0.8299    0.3981 C.2     1  UNL1        0.3220
      3 O           4.1430    1.8690    0.4179 O.2     1  UNL1       -0.2492
      4 C           4.2242   -0.5007    0.2291 C.3     1  UNL1        0.1079
      5 N           2.7730   -0.3462    0.1066 N.pl3   1  UNL1       -0.3182
      6 C           2.2525    0.4050   -0.9544 C.ar    1  UNL1        0.1339
      7 N           3.0776    0.9752   -1.8624 N.ar    1  UNL1       -0.2201
      8 C           2.5782    1.6910   -2.8854 C.ar    1  UNL1        0.1219
      9 N           1.2435    1.8759   -3.0576 N.ar    1  UNL1       -0.2005
     10 C           0.3486    1.3396   -2.1939 C.ar    1  UNL1        0.2331
     11 C           0.9085    0.6175   -1.1661 C.ar    1  UNL1        0.0878
     12 C          -0.1105    0.1344   -0.3714 C.ar    1  UNL1        0.0406
     13 C          -1.2764    0.5994   -0.9723 C.ar    1  UNL1        0.1460
     14 O          -0.9398    1.2969   -2.0323 O.2     1  UNL1       -0.4360
     15 C          -2.6978    0.4308   -0.6135 C.ar    1  UNL1        0.0180
     16 C          -3.3418   -0.7773   -0.5637 C.ar    1  UNL1       -0.0511
     17 C          -4.6733   -0.7997   -0.2151 C.ar    1  UNL1       -0.0611
     18 C          -5.4183    0.3076    0.0912 C.ar    1  UNL1       -0.0617
     19 C          -4.7558    1.5232    0.0372 C.ar    1  UNL1       -0.0611
     20 C          -3.4169    1.5791   -0.3100 C.ar    1  UNL1       -0.0511
     21 C          -0.2237   -0.6736    0.8358 C.ar    1  UNL1       -0.0135
     22 C          -0.3559   -2.0673    0.7570 C.ar    1  UNL1       -0.0539
     23 C          -0.4743   -2.8590    1.8792 C.ar    1  UNL1       -0.0612
     24 C          -0.4631   -2.2635    3.1295 C.ar    1  UNL1       -0.0617
     25 C          -0.3343   -0.9044    3.2093 C.ar    1  UNL1       -0.0612
     26 C          -0.2133   -0.0797    2.1052 C.ar    1  UNL1       -0.0539
     27 H           6.4206    1.7785    1.3528 H       1  UNL1        0.2951
     28 H           4.5380   -1.1352    1.0529 H       1  UNL1        0.0577
     29 H           4.6271   -0.9766   -0.7141 H       1  UNL1        0.0577
     30 H           2.2490   -0.8264    0.8434 H       1  UNL1        0.1480
     31 H           3.3092    2.1142   -3.5680 H       1  UNL1        0.1049
     32 H          -2.7932   -1.6584   -0.7952 H       1  UNL1        0.0625
     33 H          -5.1291   -1.7710   -0.1913 H       1  UNL1        0.0618
     34 H          -6.4608    0.1978    0.3551 H       1  UNL1        0.0618
     35 H          -5.3218    2.4277    0.2758 H       1  UNL1        0.0618
     36 H          -2.9970    2.5840   -0.3209 H       1  UNL1        0.0625
     37 H          -0.3614   -2.5074   -0.2487 H       1  UNL1        0.0624
     38 H          -0.5698   -3.9194    1.6856 H       1  UNL1        0.0618
     39 H          -0.5582   -2.9176    3.9921 H       1  UNL1        0.0618
     40 H          -0.3242   -0.4284    4.1888 H       1  UNL1        0.0618
     41 H          -0.1114    0.9962    2.1659 H       1  UNL1        0.0624
@<TRIPOS>BOND
     1     1     2    1
     2     2     3    2
     3     2     4    1
     4     4     5    1
     5     5     6    1
     6     6     7   ar
     7     7     8   ar
     8     8     9   ar
     9     9    10   ar
    10    10    11   ar
    11    11    12   ar
    12    12    13   ar
    13    13    14   ar
    14    13    15    1
    15    15    16   ar
    16    16    17   ar
    17    17    18   ar
    18    18    19   ar
    19    19    20   ar
    20    12    21    1
    21    21    22   ar
    22    22    23   ar
    23    23    24   ar
    24    24    25   ar
    25    25    26   ar
    26    11     6   ar
    27    20    15   ar
    28    26    21   ar
    29    14    10   ar
    30     1    27    1
    31     4    28    1
    32     4    29    1
    33     5    30    1
    34     8    31    1
    35    16    32    1
    36    17    33    1
    37    18    34    1
    38    19    35    1
    39    20    36    1
    40    22    37    1
    41    23    38    1
    42    24    39    1
    43    25    40    1
    44    26    41    1
