
     RDKit          3D

 41 44  0  0  0  0  0  0  0  0999 V2000
    5.7665    1.8392    0.5649 O   0  0  0  0  0  0  0  0  0  0  0  0
    4.8625    0.8299    0.3981 C   0  0  0  0  0  0  0  0  0  0  0  0
    4.1430    1.8690    0.4179 O   0  0  0  0  0  0  0  0  0  0  0  0
    4.2242   -0.5007    0.2291 C   0  0  0  0  0  0  0  0  0  0  0  0
    2.7730   -0.3462    0.1066 N   0  0  0  0  0  0  0  0  0  0  0  0
    2.2525    0.4050   -0.9544 C   0  0  0  0  0  0  0  0  0  0  0  0
    3.0776    0.9752   -1.8624 N   0  0  0  0  0  0  0  0  0  0  0  0
    2.5782    1.6910   -2.8854 C   0  0  0  0  0  0  0  0  0  0  0  0
    1.2435    1.8759   -3.0576 N   0  0  0  0  0  0  0  0  0  0  0  0
    0.3486    1.3396   -2.1939 C   0  0  0  0  0  0  0  0  0  0  0  0
    0.9085    0.6175   -1.1661 C   0  0  0  0  0  0  0  0  0  0  0  0
   -0.1105    0.1344   -0.3714 C   0  0  0  0  0  0  0  0  0  0  0  0
   -1.2764    0.5994   -0.9723 C   0  0  0  0  0  0  0  0  0  0  0  0
   -0.9398    1.2969   -2.0323 O   0  0  0  0  0  0  0  0  0  0  0  0
   -2.6978    0.4308   -0.6135 C   0  0  0  0  0  0  0  0  0  0  0  0
   -3.3418   -0.7773   -0.5637 C   0  0  0  0  0  0  0  0  0  0  0  0
   -4.6733   -0.7997   -0.2151 C   0  0  0  0  0  0  0  0  0  0  0  0
   -5.4183    0.3076    0.0912 C   0  0  0  0  0  0  0  0  0  0  0  0
   -4.7558    1.5232    0.0372 C   0  0  0  0  0  0  0  0  0  0  0  0
   -3.4169    1.5791   -0.3100 C   0  0  0  0  0  0  0  0  0  0  0  0
   -0.2237   -0.6736    0.8358 C   0  0  0  0  0  0  0  0  0  0  0  0
   -0.3559   -2.0673    0.7570 C   0  0  0  0  0  0  0  0  0  0  0  0
   -0.4743   -2.8590    1.8792 C   0  0  0  0  0  0  0  0  0  0  0  0
   -0.4631   -2.2635    3.1295 C   0  0  0  0  0  0  0  0  0  0  0  0
   -0.3343   -0.9044    3.2093 C   0  0  0  0  0  0  0  0  0  0  0  0
   -0.2133   -0.0797    2.1052 C   0  0  0  0  0  0  0  0  0  0  0  0
    6.4206    1.7785    1.3528 H   0  0  0  0  0  0  0  0  0  0  0  0
    4.5380   -1.1352    1.0529 H   0  0  0  0  0  0  0  0  0  0  0  0
    4.6271   -0.9766   -0.7141 H   0  0  0  0  0  0  0  0  0  0  0  0
    2.2490   -0.8264    0.8434 H   0  0  0  0  0  0  0  0  0  0  0  0
    3.3092    2.1142   -3.5680 H   0  0  0  0  0  0  0  0  0  0  0  0
   -2.7932   -1.6584   -0.7952 H   0  0  0  0  0  0  0  0  0  0  0  0
   -5.1291   -1.7710   -0.1913 H   0  0  0  0  0  0  0  0  0  0  0  0
   -6.4608    0.1978    0.3551 H   0  0  0  0  0  0  0  0  0  0  0  0
   -5.3218    2.4277    0.2758 H   0  0  0  0  0  0  0  0  0  0  0  0
   -2.9970    2.5840   -0.3209 H   0  0  0  0  0  0  0  0  0  0  0  0
   -0.3614   -2.5074   -0.2487 H   0  0  0  0  0  0  0  0  0  0  0  0
   -0.5698   -3.9194    1.6856 H   0  0  0  0  0  0  0  0  0  0  0  0
   -0.5582   -2.9176    3.9921 H   0  0  0  0  0  0  0  0  0  0  0  0
   -0.3242   -0.4284    4.1888 H   0  0  0  0  0  0  0  0  0  0  0  0
   -0.1114    0.9962    2.1659 H   0  0  0  0  0  0  0  0  0  0  0  0
  1  2  1  0
  2  3  2  0
  2  4  1  0
  4  5  1  0
  5  6  1  0
  6  7  2  0
  7  8  1  0
  8  9  2  0
  9 10  1  0
 10 11  2  0
 11 12  1  0
 12 13  2  0
 13 14  1  0
 13 15  1  0
 15 16  2  0
 16 17  1  0
 17 18  2  0
 18 19  1  0
 19 20  2  0
 12 21  1  0
 21 22  2  0
 22 23  1  0
 23 24  2  0
 24 25  1  0
 25 26  2  0
 11  6  1  0
 20 15  1  0
 26 21  1  0
 14 10  1  0
  1 27  1  0
  4 28  1  0
  4 29  1  0
  5 30  1  0
  8 31  1  0
 16 32  1  0
 17 33  1  0
 18 34  1  0
 19 35  1  0
 20 36  1  0
 22 37  1  0
 23 38  1  0
 24 39  1  0
 25 40  1  0
 26 41  1  0
M  END
$$$$
