@<TRIPOS>MOLECULE
*****
 38 40 0 0 0
SMALL
GASTEIGER

@<TRIPOS>ATOM
      1 N           6.2806    1.9010   -2.6160 N.1     1  UNL1       -0.1909
      2 C           5.4939    1.4342   -1.8877 C.1     1  UNL1        0.0992
      3 C           4.5385    0.8396   -1.0005 C.ar    1  UNL1        0.0520
      4 C           4.8476    0.6643    0.3336 C.ar    1  UNL1       -0.0440
      5 C           3.9489    0.1023    1.1795 C.ar    1  UNL1       -0.0558
      6 C           2.6938   -0.3027    0.6862 C.ar    1  UNL1       -0.0284
      7 C           2.3615   -0.1436   -0.6184 C.ar    1  UNL1       -0.0404
      8 C           3.3000    0.4376   -1.4768 C.ar    1  UNL1       -0.0408
      9 C           1.0636   -0.5526   -1.1581 C.3     1  UNL1       -0.0129
     10 C           0.3516   -1.4470   -0.2014 C.3     1  UNL1        0.0248
     11 N           0.4130   -1.0155    1.1568 N.3     1  UNL1       -0.1720
     12 S          -0.5400    0.3808    1.3945 S.O2    1  UNL1        0.0612
     13 O          -0.4113    0.9268    2.7977 O.2     1  UNL1       -0.1528
     14 O          -0.0229    1.4551    0.4794 O.2     1  UNL1       -0.1528
     15 C          -2.2131    0.1492    1.0698 C.ar    1  UNL1        0.1063
     16 C          -3.1457   -0.2532    1.9977 C.ar    1  UNL1       -0.0353
     17 C          -4.4800   -0.4244    1.6834 C.ar    1  UNL1       -0.0591
     18 C          -4.9260   -0.1917    0.4012 C.ar    1  UNL1       -0.0477
     19 C          -4.0097    0.2121   -0.5447 C.ar    1  UNL1        0.0607
     20 C          -4.4252    0.4729   -1.9172 C.2     1  UNL1        0.3369
     21 O          -5.6149    0.3295   -2.2352 O.2     1  UNL1       -0.2451
     22 O          -3.5187    0.8804   -2.8856 O.3     1  UNL1       -0.4771
     23 C          -2.6768    0.3794   -0.2154 C.ar    1  UNL1       -0.0214
     24 C           1.7413   -0.9139    1.6405 C.3     1  UNL1        0.0458
     25 H           5.8274    0.9913    0.6712 H       1  UNL1        0.0630
     26 H           4.1659   -0.0463    2.2288 H       1  UNL1        0.0621
     27 H           3.0275    0.5576   -2.5008 H       1  UNL1        0.0633
     28 H           0.4416    0.3087   -1.4970 H       1  UNL1        0.0326
     29 H           1.1871   -1.1606   -2.1088 H       1  UNL1        0.0326
     30 H           0.8415   -2.4568   -0.2525 H       1  UNL1        0.0447
     31 H          -0.6999   -1.6132   -0.5070 H       1  UNL1        0.0447
     32 H          -2.8068   -0.4355    2.9937 H       1  UNL1        0.0637
     33 H          -5.1824   -0.7465    2.4592 H       1  UNL1        0.0618
     34 H          -5.9645   -0.3142    0.1129 H       1  UNL1        0.0626
     35 H          -3.8652    1.1839   -3.7712 H       1  UNL1        0.2954
     36 H          -1.9721    0.7016   -0.9901 H       1  UNL1        0.0645
     37 H           1.8297   -0.3238    2.5793 H       1  UNL1        0.0493
     38 H           2.1198   -1.9667    1.7989 H       1  UNL1        0.0493
@<TRIPOS>BOND
     1     1     2    3
     2     2     3    1
     3     3     4   ar
     4     4     5   ar
     5     5     6   ar
     6     6     7   ar
     7     7     8   ar
     8     7     9    1
     9     9    10    1
    10    10    11    1
    11    11    12    1
    12    12    13    2
    13    12    14    2
    14    12    15    1
    15    15    16   ar
    16    16    17   ar
    17    17    18   ar
    18    18    19   ar
    19    19    20    1
    20    20    21    2
    21    20    22    1
    22    19    23   ar
    23    11    24    1
    24     8     3   ar
    25    23    15   ar
    26    24     6    1
    27     4    25    1
    28     5    26    1
    29     8    27    1
    30     9    28    1
    31     9    29    1
    32    10    30    1
    33    10    31    1
    34    16    32    1
    35    17    33    1
    36    18    34    1
    37    22    35    1
    38    23    36    1
    39    24    37    1
    40    24    38    1
