
     RDKit          3D

 38 40  0  0  0  0  0  0  0  0999 V2000
    6.2806    1.9010   -2.6160 N   0  0  0  0  0  0  0  0  0  0  0  0
    5.4939    1.4342   -1.8877 C   0  0  0  0  0  0  0  0  0  0  0  0
    4.5385    0.8396   -1.0005 C   0  0  0  0  0  0  0  0  0  0  0  0
    4.8476    0.6643    0.3336 C   0  0  0  0  0  0  0  0  0  0  0  0
    3.9489    0.1023    1.1795 C   0  0  0  0  0  0  0  0  0  0  0  0
    2.6938   -0.3027    0.6862 C   0  0  0  0  0  0  0  0  0  0  0  0
    2.3615   -0.1436   -0.6184 C   0  0  0  0  0  0  0  0  0  0  0  0
    3.3000    0.4376   -1.4768 C   0  0  0  0  0  0  0  0  0  0  0  0
    1.0636   -0.5526   -1.1581 C   0  0  0  0  0  0  0  0  0  0  0  0
    0.3516   -1.4470   -0.2014 C   0  0  0  0  0  0  0  0  0  0  0  0
    0.4130   -1.0155    1.1568 N   0  0  0  0  0  0  0  0  0  0  0  0
   -0.5400    0.3808    1.3945 S   0  0  0  0  0  6  0  0  0  0  0  0
   -0.4113    0.9268    2.7977 O   0  0  0  0  0  0  0  0  0  0  0  0
   -0.0229    1.4551    0.4794 O   0  0  0  0  0  0  0  0  0  0  0  0
   -2.2131    0.1492    1.0698 C   0  0  0  0  0  0  0  0  0  0  0  0
   -3.1457   -0.2532    1.9977 C   0  0  0  0  0  0  0  0  0  0  0  0
   -4.4800   -0.4244    1.6834 C   0  0  0  0  0  0  0  0  0  0  0  0
   -4.9260   -0.1917    0.4012 C   0  0  0  0  0  0  0  0  0  0  0  0
   -4.0097    0.2121   -0.5447 C   0  0  0  0  0  0  0  0  0  0  0  0
   -4.4252    0.4729   -1.9172 C   0  0  0  0  0  0  0  0  0  0  0  0
   -5.6149    0.3295   -2.2352 O   0  0  0  0  0  0  0  0  0  0  0  0
   -3.5187    0.8804   -2.8856 O   0  0  0  0  0  0  0  0  0  0  0  0
   -2.6768    0.3794   -0.2154 C   0  0  0  0  0  0  0  0  0  0  0  0
    1.7413   -0.9139    1.6405 C   0  0  0  0  0  0  0  0  0  0  0  0
    5.8274    0.9913    0.6712 H   0  0  0  0  0  0  0  0  0  0  0  0
    4.1659   -0.0463    2.2288 H   0  0  0  0  0  0  0  0  0  0  0  0
    3.0275    0.5576   -2.5008 H   0  0  0  0  0  0  0  0  0  0  0  0
    0.4416    0.3087   -1.4970 H   0  0  0  0  0  0  0  0  0  0  0  0
    1.1871   -1.1606   -2.1088 H   0  0  0  0  0  0  0  0  0  0  0  0
    0.8415   -2.4568   -0.2525 H   0  0  0  0  0  0  0  0  0  0  0  0
   -0.6999   -1.6132   -0.5070 H   0  0  0  0  0  0  0  0  0  0  0  0
   -2.8068   -0.4355    2.9937 H   0  0  0  0  0  0  0  0  0  0  0  0
   -5.1824   -0.7465    2.4592 H   0  0  0  0  0  0  0  0  0  0  0  0
   -5.9645   -0.3142    0.1129 H   0  0  0  0  0  0  0  0  0  0  0  0
   -3.8652    1.1839   -3.7712 H   0  0  0  0  0  0  0  0  0  0  0  0
   -1.9721    0.7016   -0.9901 H   0  0  0  0  0  0  0  0  0  0  0  0
    1.8297   -0.3238    2.5793 H   0  0  0  0  0  0  0  0  0  0  0  0
    2.1198   -1.9667    1.7989 H   0  0  0  0  0  0  0  0  0  0  0  0
  1  2  3  0
  2  3  1  0
  3  4  2  0
  4  5  1  0
  5  6  2  0
  6  7  1  0
  7  8  2  0
  7  9  1  0
  9 10  1  0
 10 11  1  0
 11 12  1  0
 12 13  2  0
 12 14  2  0
 12 15  1  0
 15 16  2  0
 16 17  1  0
 17 18  2  0
 18 19  1  0
 19 20  1  0
 20 21  2  0
 20 22  1  0
 19 23  2  0
 11 24  1  0
  8  3  1  0
 23 15  1  0
 24  6  1  0
  4 25  1  0
  5 26  1  0
  8 27  1  0
  9 28  1  0
  9 29  1  0
 10 30  1  0
 10 31  1  0
 16 32  1  0
 17 33  1  0
 18 34  1  0
 22 35  1  0
 23 36  1  0
 24 37  1  0
 24 38  1  0
M  END
$$$$
