
     RDKit          3D

 52 54  0  0  0  0  0  0  0  0999 V2000
   -7.2721    1.9723   -2.6680 N   0  0  0  0  0  0  0  0  0  0  0  0
   -6.3122    1.5454   -1.6915 C   0  0  0  0  0  0  0  0  0  0  0  0
   -5.2865    2.3440   -1.3572 N   0  0  0  0  0  0  0  0  0  0  0  0
   -4.3681    1.9670   -0.4245 C   0  0  0  0  0  0  0  0  0  0  0  0
   -3.2844    2.5592    0.0869 N   0  0  0  0  0  0  0  0  0  0  0  0
   -2.7264    1.7424    1.0040 C   0  0  0  0  0  0  0  0  0  0  0  0
   -3.4484    0.5987    1.0982 C   0  0  0  0  0  0  0  0  0  0  0  0
   -3.3775   -0.6199    1.8951 C   0  0  0  0  0  0  0  0  0  0  0  0
   -2.1771   -0.9361    2.6677 C   0  0  0  0  0  0  0  0  0  0  0  0
   -0.9025   -1.1252    1.9472 C   0  0  0  0  0  0  0  0  0  0  0  0
    0.0371   -0.1309    1.8850 C   0  0  0  0  0  0  0  0  0  0  0  0
    1.2398   -0.2902    1.1868 C   0  0  0  0  0  0  0  0  0  0  0  0
    1.5036   -1.4709    0.5395 C   0  0  0  0  0  0  0  0  0  0  0  0
    2.7437   -1.6965   -0.2494 C   0  0  0  0  0  0  0  0  0  0  0  0
    3.0432   -2.8779   -0.5389 O   0  0  0  0  0  0  0  0  0  0  0  0
    3.5670   -0.6323   -0.6686 N   0  0  0  0  0  0  0  0  0  0  0  0
    4.7559   -0.5905   -1.4118 C   0  0  1  0  0  0  0  0  0  0  0  0
    5.9890   -0.0292   -0.7937 C   0  0  0  0  0  0  0  0  0  0  0  0
    5.8997    1.3822   -0.3245 C   0  0  0  0  0  0  0  0  0  0  0  0
    5.0155    1.5302    0.8159 C   0  0  0  0  0  0  0  0  0  0  0  0
    4.6866    0.5600    1.5686 O   0  0  0  0  0  0  0  0  0  0  0  0
    4.4391    2.7553    1.1994 O   0  0  0  0  0  0  0  0  0  0  0  0
    5.0972   -1.7578   -2.2706 C   0  0  0  0  0  0  0  0  0  0  0  0
    6.2567   -1.8028   -2.8295 O   0  0  0  0  0  0  0  0  0  0  0  0
    4.2737   -2.7896   -2.5206 O   0  0  0  0  0  0  0  0  0  0  0  0
    0.5604   -2.4756    0.6007 C   0  0  0  0  0  0  0  0  0  0  0  0
   -0.6269   -2.3332    1.2830 C   0  0  0  0  0  0  0  0  0  0  0  0
   -4.5086    0.7566    0.1682 C   0  0  0  0  0  0  0  0  0  0  0  0
   -5.5670   -0.0321   -0.1977 C   0  0  0  0  0  0  0  0  0  0  0  0
   -5.7294   -1.1623    0.3320 O   0  0  0  0  0  0  0  0  0  0  0  0
   -6.4864    0.3304   -1.1226 N   0  0  0  0  0  0  0  0  0  0  0  0
   -7.7235    2.9013   -2.5242 H   0  0  0  0  0  0  0  0  0  0  0  0
   -7.4820    1.3470   -3.4744 H   0  0  0  0  0  0  0  0  0  0  0  0
   -2.9509    3.5206   -0.2078 H   0  0  0  0  0  0  0  0  0  0  0  0
   -1.8600    1.9725    1.5730 H   0  0  0  0  0  0  0  0  0  0  0  0
   -3.6159   -1.5078    1.2457 H   0  0  0  0  0  0  0  0  0  0  0  0
   -4.2535   -0.5598    2.6238 H   0  0  0  0  0  0  0  0  0  0  0  0
   -1.9939   -0.1213    3.4475 H   0  0  0  0  0  0  0  0  0  0  0  0
   -2.3032   -1.8513    3.3197 H   0  0  0  0  0  0  0  0  0  0  0  0
   -0.1371    0.7990    2.4092 H   0  0  0  0  0  0  0  0  0  0  0  0
    1.9315    0.5264    1.1839 H   0  0  0  0  0  0  0  0  0  0  0  0
    3.1200    0.3331   -0.3746 H   0  0  0  0  0  0  0  0  0  0  0  0
    4.4963    0.1791   -2.2768 H   0  0  0  0  0  0  0  0  0  0  0  0
    6.8788   -0.1308   -1.4651 H   0  0  0  0  0  0  0  0  0  0  0  0
    6.2905   -0.6366    0.1174 H   0  0  0  0  0  0  0  0  0  0  0  0
    5.4639    1.9941   -1.1686 H   0  0  0  0  0  0  0  0  0  0  0  0
    6.9182    1.7619   -0.0708 H   0  0  0  0  0  0  0  0  0  0  0  0
    3.5437    2.7805    1.6710 H   0  0  0  0  0  0  0  0  0  0  0  0
    4.5699   -3.7555   -2.7287 H   0  0  0  0  0  0  0  0  0  0  0  0
    0.7324   -3.4357    0.0979 H   0  0  0  0  0  0  0  0  0  0  0  0
   -1.3729   -3.1212    1.3332 H   0  0  0  0  0  0  0  0  0  0  0  0
   -7.2869   -0.2859   -1.3864 H   0  0  0  0  0  0  0  0  0  0  0  0
  1  2  1  0
  2  3  2  0
  3  4  1  0
  4  5  1  0
  5  6  1  0
  6  7  2  0
  7  8  1  0
  8  9  1  0
  9 10  1  0
 10 11  2  0
 11 12  1  0
 12 13  2  0
 13 14  1  0
 14 15  2  0
 14 16  1  0
 16 17  1  0
 17 18  1  0
 18 19  1  0
 19 20  1  0
 20 21  2  0
 20 22  1  0
 17 23  1  0
 23 24  2  0
 23 25  1  0
 13 26  1  0
 26 27  2  0
  7 28  1  0
 28 29  1  0
 29 30  2  0
 29 31  1  0
 31  2  1  0
 28  4  2  0
 27 10  1  0
  1 32  1  0
  1 33  1  0
  5 34  1  0
  6 35  1  0
  8 36  1  0
  8 37  1  0
  9 38  1  0
  9 39  1  0
 11 40  1  0
 12 41  1  0
 16 42  1  0
 17 43  1  6
 18 44  1  0
 18 45  1  0
 19 46  1  0
 19 47  1  0
 22 48  1  0
 25 49  1  0
 26 50  1  0
 27 51  1  0
 31 52  1  0
M  END
$$$$
