@<TRIPOS>MOLECULE
*****
 52 54 0 0 0
SMALL
GASTEIGER

@<TRIPOS>ATOM
      1 N          -7.2721    1.9723   -2.6680 N.pl3   0  UNK0       -0.3289
      2 C          -6.3122    1.5454   -1.6915 C.ar    0  UNK0        0.1949
      3 N          -5.2865    2.3440   -1.3572 N.ar    0  UNK0       -0.1982
      4 C          -4.3681    1.9670   -0.4245 C.ar    0  UNK0        0.1472
      5 N          -3.2844    2.5592    0.0869 N.ar    0  UNK0       -0.3453
      6 C          -2.7264    1.7424    1.0040 C.ar    0  UNK0        0.0075
      7 C          -3.4484    0.5987    1.0982 C.ar    0  UNK0       -0.0153
      8 C          -3.3775   -0.6199    1.8951 C.3     0  UNK0       -0.0215
      9 C          -2.1771   -0.9361    2.6677 C.3     0  UNK0       -0.0236
     10 C          -0.9025   -1.1252    1.9472 C.ar    0  UNK0       -0.0470
     11 C           0.0371   -0.1309    1.8850 C.ar    0  UNK0       -0.0578
     12 C           1.2398   -0.2902    1.1868 C.ar    0  UNK0       -0.0494
     13 C           1.5036   -1.4709    0.5395 C.ar    0  UNK0        0.0367
     14 C           2.7437   -1.6965   -0.2494 C.2     0  UNK0        0.2447
     15 O           3.0432   -2.8779   -0.5389 O.2     0  UNK0       -0.2702
     16 N           3.5670   -0.6323   -0.6686 N.am    1  GLU1       -0.2983
     17 CA          4.7559   -0.5905   -1.4118 C.3     1  GLU1        0.1209
     18 CB          5.9890   -0.0292   -0.7937 C.3     1  GLU1       -0.0140
     19 CG          5.8997    1.3822   -0.3245 C.3     1  GLU1        0.0470
     20 CD          5.0155    1.5302    0.8159 C.2     1  GLU1        0.3048
     21 OE1         4.6866    0.5600    1.5686 O.2     1  GLU1       -0.2510
     22 OE2         4.4391    2.7553    1.1994 O.3     1  GLU1       -0.4806
     23 C           5.0972   -1.7578   -2.2706 C.2     1  GLU1        0.3253
     24 O           6.2567   -1.8028   -2.8295 O.2     1  GLU1       -0.2489
     25 OXT         4.2737   -2.7896   -2.5206 O.3     1  GLU1       -0.4793
     26 C           0.5604   -2.4756    0.6007 C.ar    0  UNK0       -0.0494
     27 C          -0.6269   -2.3332    1.2830 C.ar    0  UNK0       -0.0578
     28 C          -4.5086    0.7566    0.1682 C.ar    0  UNK0        0.0861
     29 C          -5.5670   -0.0321   -0.1977 C.ar    0  UNK0        0.2622
     30 O          -5.7294   -1.1623    0.3320 O.2     0  UNK0       -0.2670
     31 N          -6.4864    0.3304   -1.1226 N.ar    0  UNK0       -0.2947
     32 H          -7.7235    2.9013   -2.5242 H       0  UNK0        0.1451
     33 H          -7.4820    1.3470   -3.4744 H       0  UNK0        0.1451
     34 H          -2.9509    3.5206   -0.2078 H       0  UNK0        0.1668
     35 H          -1.8600    1.9725    1.5730 H       0  UNK0        0.0810
     36 H          -3.6159   -1.5078    1.2457 H       0  UNK0        0.0317
     37 H          -4.2535   -0.5598    2.6238 H       0  UNK0        0.0317
     38 H          -1.9939   -0.1213    3.4475 H       0  UNK0        0.0316
     39 H          -2.3032   -1.8513    3.3197 H       0  UNK0        0.0316
     40 H          -0.1371    0.7990    2.4092 H       0  UNK0        0.0620
     41 H           1.9315    0.5264    1.1839 H       0  UNK0        0.0625
     42 H           3.1200    0.3331   -0.3746 H       1  GLU1        0.1498
     43 HA          4.4963    0.1791   -2.2768 H       1  GLU1        0.0614
     44 HB1         6.8788   -0.1308   -1.4651 H       1  GLU1        0.0294
     45 HB2         6.2905   -0.6366    0.1174 H       1  GLU1        0.0294
     46 HG1         5.4639    1.9941   -1.1686 H       1  GLU1        0.0378
     47 HG2         6.9182    1.7619   -0.0708 H       1  GLU1        0.0378
     48 HE2         3.5437    2.7805    1.6710 H       1  GLU1        0.2951
     49 HXT         4.5699   -3.7555   -2.7287 H       1  GLU1        0.2951
     50 H           0.7324   -3.4357    0.0979 H       0  UNK0        0.0625
     51 H          -1.3729   -3.1212    1.3332 H       0  UNK0        0.0620
     52 H          -7.2869   -0.2859   -1.3864 H       0  UNK0        0.1716
@<TRIPOS>BOND
     1     1     2    1
     2     2     3   ar
     3     3     4   ar
     4     4     5   ar
     5     5     6   ar
     6     6     7   ar
     7     7     8    1
     8     8     9    1
     9     9    10    1
    10    10    11   ar
    11    11    12   ar
    12    12    13   ar
    13    13    14    1
    14    14    15    2
    15    14    16   am
    16    16    17    1
    17    17    18    1
    18    18    19    1
    19    19    20    1
    20    20    21    2
    21    20    22    1
    22    17    23    1
    23    23    24    2
    24    23    25    1
    25    13    26   ar
    26    26    27   ar
    27     7    28   ar
    28    28    29   ar
    29    29    30    2
    30    29    31   ar
    31    31     2   ar
    32    28     4   ar
    33    27    10   ar
    34     1    32    1
    35     1    33    1
    36     5    34    1
    37     6    35    1
    38     8    36    1
    39     8    37    1
    40     9    38    1
    41     9    39    1
    42    11    40    1
    43    12    41    1
    44    16    42    1
    45    17    43    1
    46    18    44    1
    47    18    45    1
    48    19    46    1
    49    19    47    1
    50    22    48    1
    51    25    49    1
    52    26    50    1
    53    27    51    1
    54    31    52    1
