@<TRIPOS>MOLECULE
*****
 40 42 0 0 0
SMALL
GASTEIGER

@<TRIPOS>ATOM
      1 O           2.9664   -0.6168   -1.5868 O.2     1  UNL1       -0.2699
      2 C           3.3110   -0.2820   -0.4035 C.2     1  UNL1        0.2483
      3 N           2.4136   -0.6522    0.6233 N.am    1  UNL1       -0.2814
      4 C           1.1956   -1.3622    0.3174 C.ar    1  UNL1        0.0354
      5 C           1.1696   -2.7392    0.2938 C.ar    1  UNL1       -0.0404
      6 C           0.0224   -3.4612    0.0050 C.ar    1  UNL1       -0.0583
      7 C          -1.1473   -2.7395   -0.2712 C.ar    1  UNL1       -0.0404
      8 C          -1.1503   -1.3642   -0.2547 C.ar    1  UNL1        0.0354
      9 N          -2.3622   -0.6649   -0.5415 N.am    1  UNL1       -0.2814
     10 C          -3.2889   -0.3076    0.4628 C.2     1  UNL1        0.2483
     11 O          -2.9988   -0.6368    1.6487 O.2     1  UNL1       -0.2699
     12 C          -4.5255    0.4069    0.1635 C.ar    1  UNL1        0.0370
     13 C          -5.3904    0.7226    1.2239 C.ar    1  UNL1       -0.0496
     14 C          -6.5681    1.3937    1.0030 C.ar    1  UNL1       -0.0610
     15 C          -6.9611    1.7896   -0.2579 C.ar    1  UNL1       -0.0617
     16 C          -6.1092    1.4768   -1.2899 C.ar    1  UNL1       -0.0610
     17 C          -4.9134    0.7989   -1.0896 C.ar    1  UNL1       -0.0496
     18 C           0.0093   -0.6827    0.0366 C.ar    1  UNL1       -0.0192
     19 C           4.5333    0.4267   -0.1290 C.ar    1  UNL1        0.0370
     20 C           4.8636    0.7662    1.1571 C.ar    1  UNL1       -0.0496
     21 C           6.0490    1.4561    1.4453 C.ar    1  UNL1       -0.0610
     22 C           6.9208    1.8153    0.4439 C.ar    1  UNL1       -0.0617
     23 C           6.5904    1.4749   -0.8487 C.ar    1  UNL1       -0.0610
     24 C           5.4231    0.7962   -1.1266 C.ar    1  UNL1       -0.0496
     25 H           2.5685   -0.4439    1.6276 H       1  UNL1        0.1551
     26 H           2.1156   -3.2517    0.5181 H       1  UNL1        0.0636
     27 H           0.0283   -4.5227   -0.0068 H       1  UNL1        0.0619
     28 H          -2.0805   -3.2330   -0.5050 H       1  UNL1        0.0636
     29 H          -2.5966   -0.3939   -1.5344 H       1  UNL1        0.1551
     30 H          -5.1366    0.4368    2.2463 H       1  UNL1        0.0625
     31 H          -7.2584    1.6503    1.8179 H       1  UNL1        0.0618
     32 H          -7.8899    2.3176   -0.4234 H       1  UNL1        0.0618
     33 H          -6.3732    1.7660   -2.2970 H       1  UNL1        0.0618
     34 H          -4.2773    0.5771   -1.9415 H       1  UNL1        0.0625
     35 H           0.0432    0.4091    0.0586 H       1  UNL1        0.0655
     36 H           4.2609    0.5380    2.0138 H       1  UNL1        0.0625
     37 H           6.3021    1.7205    2.4655 H       1  UNL1        0.0618
     38 H           7.8417    2.3512    0.6672 H       1  UNL1        0.0618
     39 H           7.2612    1.7495   -1.6335 H       1  UNL1        0.0618
     40 H           5.1383    0.5146   -2.1442 H       1  UNL1        0.0625
@<TRIPOS>BOND
     1     1     2    2
     2     2     3   am
     3     3     4    1
     4     4     5   ar
     5     5     6   ar
     6     6     7   ar
     7     7     8   ar
     8     8     9    1
     9     9    10   am
    10    10    11    2
    11    10    12    1
    12    12    13   ar
    13    13    14   ar
    14    14    15   ar
    15    15    16   ar
    16    16    17   ar
    17     8    18   ar
    18     2    19    1
    19    19    20   ar
    20    20    21   ar
    21    21    22   ar
    22    22    23   ar
    23    23    24   ar
    24    18     4   ar
    25    24    19   ar
    26    17    12   ar
    27     3    25    1
    28     5    26    1
    29     6    27    1
    30     7    28    1
    31     9    29    1
    32    13    30    1
    33    14    31    1
    34    15    32    1
    35    16    33    1
    36    17    34    1
    37    18    35    1
    38    20    36    1
    39    21    37    1
    40    22    38    1
    41    23    39    1
    42    24    40    1
