
     RDKit          3D

 40 42  0  0  0  0  0  0  0  0999 V2000
    2.9664   -0.6168   -1.5868 O   0  0  0  0  0  0  0  0  0  0  0  0
    3.3110   -0.2820   -0.4035 C   0  0  0  0  0  0  0  0  0  0  0  0
    2.4136   -0.6522    0.6233 N   0  0  0  0  0  0  0  0  0  0  0  0
    1.1956   -1.3622    0.3174 C   0  0  0  0  0  0  0  0  0  0  0  0
    1.1696   -2.7392    0.2938 C   0  0  0  0  0  0  0  0  0  0  0  0
    0.0224   -3.4612    0.0050 C   0  0  0  0  0  0  0  0  0  0  0  0
   -1.1473   -2.7395   -0.2712 C   0  0  0  0  0  0  0  0  0  0  0  0
   -1.1503   -1.3642   -0.2547 C   0  0  0  0  0  0  0  0  0  0  0  0
   -2.3622   -0.6649   -0.5415 N   0  0  0  0  0  0  0  0  0  0  0  0
   -3.2889   -0.3076    0.4628 C   0  0  0  0  0  0  0  0  0  0  0  0
   -2.9988   -0.6368    1.6487 O   0  0  0  0  0  0  0  0  0  0  0  0
   -4.5255    0.4069    0.1635 C   0  0  0  0  0  0  0  0  0  0  0  0
   -5.3904    0.7226    1.2239 C   0  0  0  0  0  0  0  0  0  0  0  0
   -6.5681    1.3937    1.0030 C   0  0  0  0  0  0  0  0  0  0  0  0
   -6.9611    1.7896   -0.2579 C   0  0  0  0  0  0  0  0  0  0  0  0
   -6.1092    1.4768   -1.2899 C   0  0  0  0  0  0  0  0  0  0  0  0
   -4.9134    0.7989   -1.0896 C   0  0  0  0  0  0  0  0  0  0  0  0
    0.0093   -0.6827    0.0366 C   0  0  0  0  0  0  0  0  0  0  0  0
    4.5333    0.4267   -0.1290 C   0  0  0  0  0  0  0  0  0  0  0  0
    4.8636    0.7662    1.1571 C   0  0  0  0  0  0  0  0  0  0  0  0
    6.0490    1.4561    1.4453 C   0  0  0  0  0  0  0  0  0  0  0  0
    6.9208    1.8153    0.4439 C   0  0  0  0  0  0  0  0  0  0  0  0
    6.5904    1.4749   -0.8487 C   0  0  0  0  0  0  0  0  0  0  0  0
    5.4231    0.7962   -1.1266 C   0  0  0  0  0  0  0  0  0  0  0  0
    2.5685   -0.4439    1.6276 H   0  0  0  0  0  0  0  0  0  0  0  0
    2.1156   -3.2517    0.5181 H   0  0  0  0  0  0  0  0  0  0  0  0
    0.0283   -4.5227   -0.0068 H   0  0  0  0  0  0  0  0  0  0  0  0
   -2.0805   -3.2330   -0.5050 H   0  0  0  0  0  0  0  0  0  0  0  0
   -2.5966   -0.3939   -1.5344 H   0  0  0  0  0  0  0  0  0  0  0  0
   -5.1366    0.4368    2.2463 H   0  0  0  0  0  0  0  0  0  0  0  0
   -7.2584    1.6503    1.8179 H   0  0  0  0  0  0  0  0  0  0  0  0
   -7.8899    2.3176   -0.4234 H   0  0  0  0  0  0  0  0  0  0  0  0
   -6.3732    1.7660   -2.2970 H   0  0  0  0  0  0  0  0  0  0  0  0
   -4.2773    0.5771   -1.9415 H   0  0  0  0  0  0  0  0  0  0  0  0
    0.0432    0.4091    0.0586 H   0  0  0  0  0  0  0  0  0  0  0  0
    4.2609    0.5380    2.0138 H   0  0  0  0  0  0  0  0  0  0  0  0
    6.3021    1.7205    2.4655 H   0  0  0  0  0  0  0  0  0  0  0  0
    7.8417    2.3512    0.6672 H   0  0  0  0  0  0  0  0  0  0  0  0
    7.2612    1.7495   -1.6335 H   0  0  0  0  0  0  0  0  0  0  0  0
    5.1383    0.5146   -2.1442 H   0  0  0  0  0  0  0  0  0  0  0  0
  1  2  2  0
  2  3  1  0
  3  4  1  0
  4  5  2  0
  5  6  1  0
  6  7  2  0
  7  8  1  0
  8  9  1  0
  9 10  1  0
 10 11  2  0
 10 12  1  0
 12 13  2  0
 13 14  1  0
 14 15  2  0
 15 16  1  0
 16 17  2  0
  8 18  2  0
  2 19  1  0
 19 20  2  0
 20 21  1  0
 21 22  2  0
 22 23  1  0
 23 24  2  0
 18  4  1  0
 24 19  1  0
 17 12  1  0
  3 25  1  0
  5 26  1  0
  6 27  1  0
  7 28  1  0
  9 29  1  0
 13 30  1  0
 14 31  1  0
 15 32  1  0
 16 33  1  0
 17 34  1  0
 18 35  1  0
 20 36  1  0
 21 37  1  0
 22 38  1  0
 23 39  1  0
 24 40  1  0
M  END
$$$$
