
     RDKit          3D

 29 30  0  0  0  0  0  0  0  0999 V2000
    6.1440   -0.3946    0.5154 O   0  0  0  0  0  0  0  0  0  0  0  0
    4.7853   -0.1913    0.2896 C   0  0  0  0  0  0  0  0  0  0  0  0
    4.3088    0.6819   -0.6668 C   0  0  0  0  0  0  0  0  0  0  0  0
    2.9688    0.8801   -0.8869 C   0  0  0  0  0  0  0  0  0  0  0  0
    2.0270    0.1809   -0.1243 C   0  0  0  0  0  0  0  0  0  0  0  0
    0.6029    0.3895   -0.3558 C   0  0  0  0  0  0  0  0  0  0  0  0
   -0.3448   -0.2080    0.2956 C   0  0  0  0  0  0  0  0  0  0  0  0
   -1.7816   -0.0217    0.0883 C   0  0  0  0  0  0  0  0  0  0  0  0
   -2.6948   -0.7190    0.8490 C   0  0  0  0  0  0  0  0  0  0  0  0
   -4.0578   -0.5805    0.6943 C   0  0  0  0  0  0  0  0  0  0  0  0
   -4.8728   -1.3287    1.5109 O   0  0  0  0  0  0  0  0  0  0  0  0
   -4.5541    0.2723   -0.2399 C   0  0  0  0  0  0  0  0  0  0  0  0
   -3.6642    0.9835   -1.0159 C   0  0  0  0  0  0  0  0  0  0  0  0
   -4.1463    1.8519   -1.9671 O   0  0  0  0  0  0  0  0  0  0  0  0
   -2.2732    0.8382   -0.8535 C   0  0  0  0  0  0  0  0  0  0  0  0
    2.5118   -0.6872    0.8267 C   0  0  0  0  0  0  0  0  0  0  0  0
    3.8602   -0.8807    1.0416 C   0  0  0  0  0  0  0  0  0  0  0  0
    6.5991   -1.2950    0.3914 H   0  0  0  0  0  0  0  0  0  0  0  0
    5.0589    1.2162   -1.2496 H   0  0  0  0  0  0  0  0  0  0  0  0
    2.6100    1.5586   -1.6301 H   0  0  0  0  0  0  0  0  0  0  0  0
    0.3337    1.0942   -1.1275 H   0  0  0  0  0  0  0  0  0  0  0  0
   -0.0273   -0.9217    1.0772 H   0  0  0  0  0  0  0  0  0  0  0  0
   -2.3032   -1.3995    1.5945 H   0  0  0  0  0  0  0  0  0  0  0  0
   -5.3423   -0.9923    2.3298 H   0  0  0  0  0  0  0  0  0  0  0  0
   -5.6330    0.3759   -0.3558 H   0  0  0  0  0  0  0  0  0  0  0  0
   -4.5726    1.5443   -2.8426 H   0  0  0  0  0  0  0  0  0  0  0  0
   -1.5940    1.4052   -1.4723 H   0  0  0  0  0  0  0  0  0  0  0  0
    1.8486   -1.2721    1.4651 H   0  0  0  0  0  0  0  0  0  0  0  0
    4.2029   -1.5903    1.8189 H   0  0  0  0  0  0  0  0  0  0  0  0
  1  2  1  0
  2  3  2  0
  3  4  1  0
  4  5  2  0
  5  6  1  0
  6  7  2  0
  7  8  1  0
  8  9  2  0
  9 10  1  0
 10 11  1  0
 10 12  2  0
 12 13  1  0
 13 14  1  0
 13 15  2  0
  5 16  1  0
 16 17  2  0
 17  2  1  0
 15  8  1  0
  1 18  1  0
  3 19  1  0
  4 20  1  0
  6 21  1  0
  7 22  1  0
  9 23  1  0
 11 24  1  0
 12 25  1  0
 14 26  1  0
 15 27  1  0
 16 28  1  0
 17 29  1  0
M  END
$$$$
