@<TRIPOS>MOLECULE
*****
 29 30 0 0 0
SMALL
GASTEIGER

@<TRIPOS>ATOM
      1 O           6.1440   -0.3946    0.5154 O.3     1  UNL1       -0.5068
      2 C           4.7853   -0.1913    0.2896 C.ar    1  UNL1        0.1169
      3 C           4.3088    0.6819   -0.6668 C.ar    1  UNL1       -0.0196
      4 C           2.9688    0.8801   -0.8869 C.ar    1  UNL1       -0.0511
      5 C           2.0270    0.1809   -0.1243 C.ar    1  UNL1       -0.0248
      6 C           0.6029    0.3895   -0.3558 C.2     1  UNL1       -0.0540
      7 C          -0.3448   -0.2080    0.2956 C.2     1  UNL1       -0.0538
      8 C          -1.7816   -0.0217    0.0883 C.ar    1  UNL1       -0.0181
      9 C          -2.6948   -0.7190    0.8490 C.ar    1  UNL1       -0.0128
     10 C          -4.0578   -0.5805    0.6943 C.ar    1  UNL1        0.1209
     11 O          -4.8728   -1.3287    1.5109 O.3     1  UNL1       -0.5066
     12 C          -4.5541    0.2723   -0.2399 C.ar    1  UNL1        0.0213
     13 C          -3.6642    0.9835   -1.0159 C.ar    1  UNL1        0.1209
     14 O          -4.1463    1.8519   -1.9671 O.3     1  UNL1       -0.5066
     15 C          -2.2732    0.8382   -0.8535 C.ar    1  UNL1       -0.0128
     16 C           2.5118   -0.6872    0.8267 C.ar    1  UNL1       -0.0511
     17 C           3.8602   -0.8807    1.0416 C.ar    1  UNL1       -0.0196
     18 H           6.5991   -1.2950    0.3914 H       1  UNL1        0.2921
     19 H           5.0589    1.2162   -1.2496 H       1  UNL1        0.0654
     20 H           2.6100    1.5586   -1.6301 H       1  UNL1        0.0625
     21 H           0.3337    1.0942   -1.1275 H       1  UNL1        0.0624
     22 H          -0.0273   -0.9217    1.0772 H       1  UNL1        0.0624
     23 H          -2.3032   -1.3995    1.5945 H       1  UNL1        0.0660
     24 H          -5.3423   -0.9923    2.3298 H       1  UNL1        0.2921
     25 H          -5.6330    0.3759   -0.3558 H       1  UNL1        0.0691
     26 H          -4.5726    1.5443   -2.8426 H       1  UNL1        0.2921
     27 H          -1.5940    1.4052   -1.4723 H       1  UNL1        0.0660
     28 H           1.8486   -1.2721    1.4651 H       1  UNL1        0.0625
     29 H           4.2029   -1.5903    1.8189 H       1  UNL1        0.0654
@<TRIPOS>BOND
     1     1     2    1
     2     2     3   ar
     3     3     4   ar
     4     4     5   ar
     5     5     6    1
     6     6     7    2
     7     7     8    1
     8     8     9   ar
     9     9    10   ar
    10    10    11    1
    11    10    12   ar
    12    12    13   ar
    13    13    14    1
    14    13    15   ar
    15     5    16   ar
    16    16    17   ar
    17    17     2   ar
    18    15     8   ar
    19     1    18    1
    20     3    19    1
    21     4    20    1
    22     6    21    1
    23     7    22    1
    24     9    23    1
    25    11    24    1
    26    12    25    1
    27    14    26    1
    28    15    27    1
    29    16    28    1
    30    17    29    1
