
     RDKit          3D

 52 55  0  0  0  0  0  0  0  0999 V2000
   -0.9444   -1.1851   -0.0999 C   0  0  2  0  0  0  0  0  0  0  0  0
   -1.8203   -2.2286   -0.6613 C   0  0  0  0  0  0  0  0  0  0  0  0
   -2.8716   -2.2446    0.4633 C   0  0  0  0  0  0  0  0  0  0  0  0
   -3.1184   -0.7346    0.5994 C   0  0  1  0  0  0  0  0  0  0  0  0
   -4.2424   -0.5197   -0.2339 O   0  0  0  0  0  0  0  0  0  0  0  0
   -3.5015   -0.3491    1.9367 C   0  0  0  0  0  0  0  0  0  0  0  0
   -3.8413   -0.0305    3.0479 C   0  0  0  0  0  0  0  0  0  0  0  0
   -1.9097   -0.0341    0.0960 C   0  0  2  0  0  0  0  0  0  0  0  0
   -2.1433    0.7742   -1.1441 C   0  0  0  0  0  0  0  0  0  0  0  0
   -3.1127    1.8780   -0.8207 C   0  0  0  0  0  0  0  0  0  0  0  0
   -1.2137    0.8707    1.0851 C   0  0  0  0  0  0  0  0  0  0  0  0
    0.0515    1.3074    0.3849 C   0  0  0  0  0  0  0  0  0  0  0  0
    0.3727    2.5289    0.0428 C   0  0  0  0  0  0  0  0  0  0  0  0
    0.9624    0.1980    0.0914 C   0  0  2  0  0  0  0  0  0  0  0  0
    2.3254    0.5908   -0.3417 C   0  0  1  0  0  0  0  0  0  0  0  0
    2.9854    1.3274    0.7870 C   0  0  0  0  0  0  0  0  0  0  0  0
    4.5078    1.3648    0.6630 C   0  0  0  0  0  0  0  0  0  0  0  0
    4.9475   -0.0613    0.8400 C   0  0  0  0  0  0  0  0  0  0  0  0
    5.7427   -0.5923    1.6345 O   0  0  0  0  0  0  0  0  0  0  0  0
    4.2965   -0.9761   -0.1228 C   0  0  0  0  0  0  0  0  0  0  0  0
    3.1011   -0.6426   -0.6390 C   0  0  0  0  0  0  0  0  0  0  0  0
    2.4819   -1.6099   -1.6153 C   0  0  0  0  0  0  0  0  0  0  0  0
    1.0911   -1.9945   -1.1501 C   0  0  0  0  0  0  0  0  0  0  0  0
    0.2579   -0.7652   -0.8573 C   0  0  1  0  0  0  0  0  0  0  0  0
   -0.6161   -1.4915    0.9145 H   0  0  0  0  0  0  0  0  0  0  0  0
   -1.3705   -3.2174   -0.7933 H   0  0  0  0  0  0  0  0  0  0  0  0
   -2.3818   -1.9482   -1.5591 H   0  0  0  0  0  0  0  0  0  0  0  0
   -2.3536   -2.6325    1.3691 H   0  0  0  0  0  0  0  0  0  0  0  0
   -3.7656   -2.8033    0.1807 H   0  0  0  0  0  0  0  0  0  0  0  0
   -4.9019   -1.2557   -0.0340 H   0  0  0  0  0  0  0  0  0  0  0  0
   -4.1568    0.2462    4.0211 H   0  0  0  0  0  0  0  0  0  0  0  0
   -2.5148    0.1713   -2.0008 H   0  0  0  0  0  0  0  0  0  0  0  0
   -1.1768    1.2699   -1.4033 H   0  0  0  0  0  0  0  0  0  0  0  0
   -2.6597    2.8907   -0.8885 H   0  0  0  0  0  0  0  0  0  0  0  0
   -3.5568    1.8029    0.1972 H   0  0  0  0  0  0  0  0  0  0  0  0
   -3.9437    1.8977   -1.5841 H   0  0  0  0  0  0  0  0  0  0  0  0
   -1.8602    1.7090    1.3399 H   0  0  0  0  0  0  0  0  0  0  0  0
   -0.9859    0.2963    1.9938 H   0  0  0  0  0  0  0  0  0  0  0  0
    0.7799    3.4775   -0.3021 H   0  0  0  0  0  0  0  0  0  0  0  0
    0.4695    3.5893   -0.1627 H   0  0  0  0  0  0  0  0  0  0  0  0
    1.0941   -0.3996    1.0405 H   0  0  0  0  0  0  0  0  0  0  0  0
    2.3489    1.2012   -1.2626 H   0  0  0  0  0  0  0  0  0  0  0  0
    2.6902    2.3910    0.8712 H   0  0  0  0  0  0  0  0  0  0  0  0
    2.7693    0.8625    1.7630 H   0  0  0  0  0  0  0  0  0  0  0  0
    4.8044    1.7286   -0.3257 H   0  0  0  0  0  0  0  0  0  0  0  0
    4.8811    1.9367    1.5208 H   0  0  0  0  0  0  0  0  0  0  0  0
    4.7453   -1.9176   -0.4366 H   0  0  0  0  0  0  0  0  0  0  0  0
    3.0724   -2.5236   -1.7303 H   0  0  0  0  0  0  0  0  0  0  0  0
    2.4092   -1.0554   -2.5650 H   0  0  0  0  0  0  0  0  0  0  0  0
    1.1344   -2.6984   -0.3032 H   0  0  0  0  0  0  0  0  0  0  0  0
    0.5932   -2.5025   -2.0047 H   0  0  0  0  0  0  0  0  0  0  0  0
    0.0478   -0.3020   -1.8418 H   0  0  0  0  0  0  0  0  0  0  0  0
  1  2  1  0
  2  3  1  0
  3  4  1  0
  4  5  1  0
  4  6  1  1
  6  7  3  0
  4  8  1  0
  8  9  1  6
  9 10  1  0
  8 11  1  0
 11 12  1  0
 12 13  2  0
 12 14  1  0
 14 15  1  0
 15 16  1  0
 16 17  1  0
 17 18  1  0
 18 19  2  0
 18 20  1  0
 20 21  2  0
 21 22  1  0
 22 23  1  0
 23 24  1  0
  8  1  1  0
 24 14  1  0
 24  1  1  0
 21 15  1  0
  1 25  1  1
  2 26  1  0
  2 27  1  0
  3 28  1  0
  3 29  1  0
  5 30  1  0
  7 31  1  0
  9 32  1  0
  9 33  1  0
 10 34  1  0
 10 35  1  0
 10 36  1  0
 11 37  1  0
 11 38  1  0
 13 39  1  0
 13 40  1  0
 14 41  1  1
 15 42  1  6
 16 43  1  0
 16 44  1  0
 17 45  1  0
 17 46  1  0
 20 47  1  0
 22 48  1  0
 22 49  1  0
 23 50  1  0
 23 51  1  0
 24 52  1  6
M  END
$$$$
