@<TRIPOS>MOLECULE
*****
 52 55 0 0 0
SMALL
GASTEIGER

@<TRIPOS>ATOM
      1 C          -0.9444   -1.1851   -0.0999 C.3     1  UNL1       -0.0280
      2 C          -1.8203   -2.2286   -0.6613 C.3     1  UNL1       -0.0458
      3 C          -2.8716   -2.2446    0.4633 C.3     1  UNL1       -0.0118
      4 C          -3.1184   -0.7346    0.5994 C.3     1  UNL1        0.1322
      5 O          -4.2424   -0.5197   -0.2339 O.3     1  UNL1       -0.3760
      6 C          -3.5015   -0.3491    1.9367 C.1     1  UNL1       -0.0704
      7 C          -3.8413   -0.0305    3.0479 C.1     1  UNL1       -0.1163
      8 C          -1.9097   -0.0341    0.0960 C.3     1  UNL1        0.0173
      9 C          -2.1433    0.7742   -1.1441 C.3     1  UNL1       -0.0461
     10 C          -3.1127    1.8780   -0.8207 C.3     1  UNL1       -0.0646
     11 C          -1.2137    0.8707    1.0851 C.3     1  UNL1       -0.0222
     12 C           0.0515    1.3074    0.3849 C.2     1  UNL1       -0.0720
     13 C           0.3727    2.5289    0.0428 C.2     1  UNL1       -0.0991
     14 C           0.9624    0.1980    0.0914 C.3     1  UNL1       -0.0105
     15 C           2.3254    0.5908   -0.3417 C.3     1  UNL1       -0.0123
     16 C           2.9854    1.3274    0.7870 C.3     1  UNL1       -0.0390
     17 C           4.5078    1.3648    0.6630 C.3     1  UNL1        0.0104
     18 C           4.9475   -0.0613    0.8400 C.2     1  UNL1        0.1561
     19 O           5.7427   -0.5923    1.6345 O.2     1  UNL1       -0.2927
     20 C           4.2965   -0.9761   -0.1228 C.2     1  UNL1       -0.0197
     21 C           3.1011   -0.6426   -0.6390 C.2     1  UNL1       -0.0626
     22 C           2.4819   -1.6099   -1.6153 C.3     1  UNL1       -0.0308
     23 C           1.0911   -1.9945   -1.1501 C.3     1  UNL1       -0.0457
     24 C           0.2579   -0.7652   -0.8573 C.3     1  UNL1       -0.0302
     25 H          -0.6161   -1.4915    0.9145 H       1  UNL1        0.0310
     26 H          -1.3705   -3.2174   -0.7933 H       1  UNL1        0.0269
     27 H          -2.3818   -1.9482   -1.5591 H       1  UNL1        0.0269
     28 H          -2.3536   -2.6325    1.3691 H       1  UNL1        0.0303
     29 H          -3.7656   -2.8033    0.1807 H       1  UNL1        0.0303
     30 H          -4.9019   -1.2557   -0.0340 H       1  UNL1        0.2114
     31 H          -4.1568    0.2462    4.0211 H       1  UNL1        0.1229
     32 H          -2.5148    0.1713   -2.0008 H       1  UNL1        0.0269
     33 H          -1.1768    1.2699   -1.4033 H       1  UNL1        0.0269
     34 H          -2.6597    2.8907   -0.8885 H       1  UNL1        0.0230
     35 H          -3.5568    1.8029    0.1972 H       1  UNL1        0.0230
     36 H          -3.9437    1.8977   -1.5841 H       1  UNL1        0.0230
     37 H          -1.8602    1.7090    1.3399 H       1  UNL1        0.0317
     38 H          -0.9859    0.2963    1.9938 H       1  UNL1        0.0317
     39 H           0.7799    3.4775   -0.3021 H       1  UNL1        0.0534
     40 H           0.4695    3.5893   -0.1627 H       1  UNL1        0.0534
     41 H           1.0941   -0.3996    1.0405 H       1  UNL1        0.0354
     42 H           2.3489    1.2012   -1.2626 H       1  UNL1        0.0352
     43 H           2.6902    2.3910    0.8712 H       1  UNL1        0.0275
     44 H           2.7693    0.8625    1.7630 H       1  UNL1        0.0275
     45 H           4.8044    1.7286   -0.3257 H       1  UNL1        0.0345
     46 H           4.8811    1.9367    1.5208 H       1  UNL1        0.0345
     47 H           4.7453   -1.9176   -0.4366 H       1  UNL1        0.0652
     48 H           3.0724   -2.5236   -1.7303 H       1  UNL1        0.0310
     49 H           2.4092   -1.0554   -2.5650 H       1  UNL1        0.0310
     50 H           1.1344   -2.6984   -0.3032 H       1  UNL1        0.0271
     51 H           0.5932   -2.5025   -2.0047 H       1  UNL1        0.0271
     52 H           0.0478   -0.3020   -1.8418 H       1  UNL1        0.0310
@<TRIPOS>BOND
     1     1     2    1
     2     2     3    1
     3     3     4    1
     4     4     5    1
     5     4     6    1
     6     6     7    3
     7     4     8    1
     8     8     9    1
     9     9    10    1
    10     8    11    1
    11    11    12    1
    12    12    13    2
    13    12    14    1
    14    14    15    1
    15    15    16    1
    16    16    17    1
    17    17    18    1
    18    18    19    2
    19    18    20    1
    20    20    21    2
    21    21    22    1
    22    22    23    1
    23    23    24    1
    24     8     1    1
    25    24    14    1
    26    24     1    1
    27    21    15    1
    28     1    25    1
    29     2    26    1
    30     2    27    1
    31     3    28    1
    32     3    29    1
    33     5    30    1
    34     7    31    1
    35     9    32    1
    36     9    33    1
    37    10    34    1
    38    10    35    1
    39    10    36    1
    40    11    37    1
    41    11    38    1
    42    13    39    1
    43    13    40    1
    44    14    41    1
    45    15    42    1
    46    16    43    1
    47    16    44    1
    48    17    45    1
    49    17    46    1
    50    20    47    1
    51    22    48    1
    52    22    49    1
    53    23    50    1
    54    23    51    1
    55    24    52    1
