@<TRIPOS>MOLECULE
*****
 62 66 0 0 0
SMALL
GASTEIGER

@<TRIPOS>ATOM
      1 O          -2.8568    2.7639   -0.0795 O.2     1  UNL1       -0.2684
      2 C          -2.6044    1.6020    0.3285 C.2     1  UNL1        0.2637
      3 C          -1.1760    1.2571    0.3798 C.ar    1  UNL1        0.1052
      4 C          -0.1236    2.1225    0.1552 C.ar    1  UNL1       -0.0225
      5 C           1.0883    1.4568    0.2848 C.ar    1  UNL1        0.0187
      6 C           2.4291    2.0044    0.1275 C.ar    1  UNL1        0.0775
      7 C           2.6822    3.3201   -0.1857 C.ar    1  UNL1       -0.0174
      8 C           3.9619    3.8106   -0.3283 C.ar    1  UNL1        0.0332
      9 N           4.9827    2.9467   -0.1485 N.ar    1  UNL1       -0.2229
     10 C           4.7616    1.6624    0.1566 C.ar    1  UNL1        0.2159
     11 N           5.8344    0.7755    0.3412 N.pl3   1  UNL1       -0.3104
     12 C           5.6030   -0.6052    0.6672 C.3     1  UNL1        0.0284
     13 C           6.9366   -1.3297    0.8138 C.3     1  UNL1       -0.0055
     14 C           7.1233   -2.0129   -0.5292 C.3     1  UNL1        0.0879
     15 O           7.6825   -1.1739   -1.4700 O.3     1  UNL1       -0.3889
     16 C           5.7347   -2.4373   -0.8869 C.3     1  UNL1        0.1284
     17 F           5.4332   -3.6481   -0.2918 F       1  UNL1       -0.2428
     18 C           4.8480   -1.3459   -0.3875 C.3     1  UNL1       -0.0007
     19 N           3.4921    1.2023    0.2919 N.ar    1  UNL1       -0.2145
     20 C           0.7320    0.1597    0.5956 C.ar    1  UNL1        0.0145
     21 N          -0.6065    0.0486    0.6501 N.ar    1  UNL1       -0.3424
     22 C          -1.3777   -1.1577    0.9489 C.3     1  UNL1        0.0249
     23 C          -2.3358   -0.8122    2.0368 C.3     1  UNL1       -0.0191
     24 C          -3.7041   -0.3995    1.5900 C.3     1  UNL1        0.0173
     25 N          -3.6894    0.7476    0.6940 N.am    1  UNL1       -0.2870
     26 C          -4.9281    1.0912    0.0742 C.3     1  UNL1        0.0745
     27 C          -6.0611    1.3582    1.0181 C.3     1  UNL1        0.0669
     28 O          -6.4039    0.3035    1.8253 O.3     1  UNL1       -0.3928
     29 C          -5.2478   -0.0580   -0.8542 C.ar    1  UNL1       -0.0248
     30 C          -4.2624   -0.5743   -1.6708 C.ar    1  UNL1       -0.0567
     31 C          -4.5328   -1.6208   -2.5211 C.ar    1  UNL1       -0.0614
     32 C          -5.7851   -2.1887   -2.5902 C.ar    1  UNL1       -0.0617
     33 C          -6.7606   -1.6651   -1.7706 C.ar    1  UNL1       -0.0614
     34 C          -6.4933   -0.5997   -0.9022 C.ar    1  UNL1       -0.0567
     35 H          -0.2097    3.1713   -0.0882 H       1  UNL1        0.0647
     36 H           1.8644    4.0099   -0.3287 H       1  UNL1        0.0654
     37 H           4.1935    4.8356   -0.5735 H       1  UNL1        0.0831
     38 H           6.8029    1.1164    0.2418 H       1  UNL1        0.1492
     39 H           5.0263   -0.7167    1.6261 H       1  UNL1        0.0500
     40 H           7.7518   -0.6206    1.0003 H       1  UNL1        0.0309
     41 H           6.8622   -2.0400    1.6410 H       1  UNL1        0.0309
     42 H           7.8281   -2.8622   -0.3810 H       1  UNL1        0.0622
     43 H           8.2946   -0.4956   -1.1039 H       1  UNL1        0.2099
     44 H           5.7018   -2.5280   -2.0017 H       1  UNL1        0.0678
     45 H           4.5286   -0.7082   -1.2410 H       1  UNL1        0.0312
     46 H           3.8980   -1.8040    0.0053 H       1  UNL1        0.0312
     47 H           1.4329   -0.6550    0.7710 H       1  UNL1        0.0816
     48 H          -1.8949   -1.4580    0.0283 H       1  UNL1        0.0492
     49 H          -0.6534   -1.9503    1.2285 H       1  UNL1        0.0492
     50 H          -2.4572   -1.6706    2.7250 H       1  UNL1        0.0298
     51 H          -1.8761    0.0022    2.6708 H       1  UNL1        0.0298
     52 H          -4.2670   -1.2483    1.2065 H       1  UNL1        0.0465
     53 H          -4.2187   -0.0399    2.5302 H       1  UNL1        0.0465
     54 H          -4.8021    1.9634   -0.5727 H       1  UNL1        0.0573
     55 H          -6.9467    1.6496    0.4183 H       1  UNL1        0.0579
     56 H          -5.7941    2.2749    1.5901 H       1  UNL1        0.0579
     57 H          -7.3560    0.2550    2.0706 H       1  UNL1        0.2095
     58 H          -3.2734   -0.1670   -1.6538 H       1  UNL1        0.0621
     59 H          -3.7654   -2.0325   -3.1654 H       1  UNL1        0.0618
     60 H          -6.0004   -3.0140   -3.2601 H       1  UNL1        0.0618
     61 H          -7.7688   -2.0522   -1.7633 H       1  UNL1        0.0618
     62 H          -7.2774   -0.2193   -0.2784 H       1  UNL1        0.0621
@<TRIPOS>BOND
     1     1     2    2
     2     2     3    1
     3     3     4   ar
     4     4     5   ar
     5     5     6    1
     6     6     7   ar
     7     7     8   ar
     8     8     9   ar
     9     9    10   ar
    10    10    11    1
    11    11    12    1
    12    12    13    1
    13    13    14    1
    14    14    15    1
    15    14    16    1
    16    16    17    1
    17    16    18    1
    18    10    19   ar
    19     5    20   ar
    20    20    21   ar
    21    21    22    1
    22    22    23    1
    23    23    24    1
    24    24    25    1
    25    25    26    1
    26    26    27    1
    27    27    28    1
    28    26    29    1
    29    29    30   ar
    30    30    31   ar
    31    31    32   ar
    32    32    33   ar
    33    33    34   ar
    34    25     2   am
    35    34    29   ar
    36    21     3   ar
    37    19     6   ar
    38    18    12    1
    39     4    35    1
    40     7    36    1
    41     8    37    1
    42    11    38    1
    43    12    39    1
    44    13    40    1
    45    13    41    1
    46    14    42    1
    47    15    43    1
    48    16    44    1
    49    18    45    1
    50    18    46    1
    51    20    47    1
    52    22    48    1
    53    22    49    1
    54    23    50    1
    55    23    51    1
    56    24    52    1
    57    24    53    1
    58    26    54    1
    59    27    55    1
    60    27    56    1
    61    28    57    1
    62    30    58    1
    63    31    59    1
    64    32    60    1
    65    33    61    1
    66    34    62    1
