
     RDKit          3D

 56 59  0  0  0  0  0  0  0  0999 V2000
    7.6004    1.4585   -2.0833 C   0  0  0  0  0  0  0  0  0  0  0  0
    7.5103    0.1000   -1.4226 C   0  0  0  0  0  0  0  0  0  0  0  0
    6.0727   -0.1295   -1.0652 C   0  0  0  0  0  0  0  0  0  0  0  0
    4.9988    0.6821   -1.2649 C   0  0  0  0  0  0  0  0  0  0  0  0
    3.8489    0.0406   -0.7609 C   0  0  0  0  0  0  0  0  0  0  0  0
    2.5412    0.6552   -0.8394 C   0  0  0  0  0  0  0  0  0  0  0  0
    2.3967    1.6981   -1.5712 O   0  0  0  0  0  0  0  0  0  0  0  0
    1.3546    0.2769   -0.2124 N   0  0  0  0  0  0  0  0  0  0  0  0
    0.0900    0.9383   -0.3455 C   0  0  2  0  0  0  0  0  0  0  0  0
   -0.6170    1.3373    0.8546 C   0  0  0  0  0  0  0  0  0  0  0  0
   -2.0856    1.1140    0.5386 C   0  0  1  0  0  0  0  0  0  0  0  0
   -2.5904    2.1908   -0.3376 C   0  0  0  0  0  0  0  0  0  0  0  0
   -2.9103    1.9320   -1.6869 N   0  0  0  0  0  0  0  0  0  0  0  0
   -2.7354    3.3435    0.1208 O   0  0  0  0  0  0  0  0  0  0  0  0
   -2.0031   -0.1541   -0.1613 N   0  0  0  0  0  0  0  0  0  0  0  0
   -2.8514   -1.2859   -0.0180 C   0  0  0  0  0  0  0  0  0  0  0  0
   -2.6814   -2.3289   -0.6795 O   0  0  0  0  0  0  0  0  0  0  0  0
   -3.9499   -1.2281    0.9275 C   0  0  0  0  0  0  0  0  0  0  0  0
   -3.9167   -1.5832    2.2736 C   0  0  0  0  0  0  0  0  0  0  0  0
   -5.0869   -1.3925    2.7868 O   0  0  0  0  0  0  0  0  0  0  0  0
   -5.9095   -0.9386    1.9029 C   0  0  0  0  0  0  0  0  0  0  0  0
   -7.2498   -0.6057    2.0445 C   0  0  0  0  0  0  0  0  0  0  0  0
   -7.8929   -0.1388    0.9164 C   0  0  0  0  0  0  0  0  0  0  0  0
   -7.2659    0.0029   -0.3080 C   0  0  0  0  0  0  0  0  0  0  0  0
   -5.9198   -0.3495   -0.3801 C   0  0  0  0  0  0  0  0  0  0  0  0
   -5.2483   -0.8161    0.7169 C   0  0  0  0  0  0  0  0  0  0  0  0
   -0.8515   -0.0368   -1.0566 C   0  0  0  0  0  0  0  0  0  0  0  0
    4.2818   -1.1181   -0.2868 N   0  0  0  0  0  0  0  0  0  0  0  0
    3.5292   -2.1718    0.3116 C   0  0  0  0  0  0  0  0  0  0  0  0
    3.4357   -1.9196    1.7982 C   0  0  0  0  0  0  0  0  0  0  0  0
    5.6158   -1.2189   -0.4690 N   0  0  0  0  0  0  0  0  0  0  0  0
    7.2532    2.2341   -1.4014 H   0  0  0  0  0  0  0  0  0  0  0  0
    8.6890    1.6379   -2.2837 H   0  0  0  0  0  0  0  0  0  0  0  0
    7.0717    1.4377   -3.0633 H   0  0  0  0  0  0  0  0  0  0  0  0
    8.1069    0.1448   -0.5037 H   0  0  0  0  0  0  0  0  0  0  0  0
    7.8729   -0.6410   -2.1638 H   0  0  0  0  0  0  0  0  0  0  0  0
    5.0700    1.6513   -1.7376 H   0  0  0  0  0  0  0  0  0  0  0  0
    1.3563   -0.5382    0.4212 H   0  0  0  0  0  0  0  0  0  0  0  0
    0.2353    1.7978   -1.0328 H   0  0  0  0  0  0  0  0  0  0  0  0
   -0.3098    0.9156    1.8126 H   0  0  0  0  0  0  0  0  0  0  0  0
   -0.5280    2.4580    0.9822 H   0  0  0  0  0  0  0  0  0  0  0  0
   -2.6954    0.9617    1.4428 H   0  0  0  0  0  0  0  0  0  0  0  0
   -2.3684    2.4147   -2.4294 H   0  0  0  0  0  0  0  0  0  0  0  0
   -3.6732    1.2716   -1.9404 H   0  0  0  0  0  0  0  0  0  0  0  0
   -3.0098   -1.9515    2.7338 H   0  0  0  0  0  0  0  0  0  0  0  0
   -7.7817   -0.6981    2.9750 H   0  0  0  0  0  0  0  0  0  0  0  0
   -8.9534    0.1246    1.0284 H   0  0  0  0  0  0  0  0  0  0  0  0
   -7.7977    0.3673   -1.1569 H   0  0  0  0  0  0  0  0  0  0  0  0
   -5.4046   -0.2551   -1.3035 H   0  0  0  0  0  0  0  0  0  0  0  0
   -1.1810    0.3364   -2.0335 H   0  0  0  0  0  0  0  0  0  0  0  0
   -0.4151   -1.0390   -1.1462 H   0  0  0  0  0  0  0  0  0  0  0  0
    2.5353   -2.3661   -0.0947 H   0  0  0  0  0  0  0  0  0  0  0  0
    4.1563   -3.1300    0.2407 H   0  0  0  0  0  0  0  0  0  0  0  0
    2.3762   -1.9622    2.1555 H   0  0  0  0  0  0  0  0  0  0  0  0
    4.0376   -2.6254    2.3980 H   0  0  0  0  0  0  0  0  0  0  0  0
    3.8475   -0.9009    2.0519 H   0  0  0  0  0  0  0  0  0  0  0  0
  1  2  1  0
  2  3  1  0
  3  4  1  0
  4  5  2  0
  5  6  1  0
  6  7  2  0
  6  8  1  0
  8  9  1  0
  9 10  1  0
 10 11  1  0
 11 12  1  0
 12 13  1  0
 12 14  2  0
 11 15  1  0
 15 16  1  0
 16 17  2  0
 16 18  1  0
 18 19  2  0
 19 20  1  0
 20 21  1  0
 21 22  2  0
 22 23  1  0
 23 24  2  0
 24 25  1  0
 25 26  2  0
 15 27  1  0
  5 28  1  0
 28 29  1  0
 29 30  1  0
 28 31  1  0
 31  3  2  0
 27  9  1  0
 26 18  1  0
 26 21  1  0
  1 32  1  0
  1 33  1  0
  1 34  1  0
  2 35  1  0
  2 36  1  0
  4 37  1  0
  8 38  1  0
  9 39  1  6
 10 40  1  0
 10 41  1  0
 11 42  1  1
 13 43  1  0
 13 44  1  0
 19 45  1  0
 22 46  1  0
 23 47  1  0
 24 48  1  0
 25 49  1  0
 27 50  1  0
 27 51  1  0
 29 52  1  0
 29 53  1  0
 30 54  1  0
 30 55  1  0
 30 56  1  0
M  END
$$$$
