@<TRIPOS>MOLECULE
*****
 56 59 0 0 0
SMALL
GASTEIGER

@<TRIPOS>ATOM
      1 C           7.6004    1.4585   -2.0833 C.3     1  UNL1       -0.0598
      2 C           7.5103    0.1000   -1.4226 C.3     1  UNL1       -0.0115
      3 C           6.0727   -0.1295   -1.0652 C.ar    1  UNL1        0.0635
      4 C           4.9988    0.6821   -1.2649 C.ar    1  UNL1       -0.0086
      5 C           3.8489    0.0406   -0.7609 C.ar    1  UNL1        0.1235
      6 C           2.5412    0.6552   -0.8394 C.2     1  UNL1        0.2624
      7 O           2.3967    1.6981   -1.5712 O.2     1  UNL1       -0.2685
      8 N           1.3546    0.2769   -0.2124 N.am    1  UNL1       -0.3057
      9 C           0.0900    0.9383   -0.3455 C.3     1  UNL1        0.0414
     10 C          -0.6170    1.3373    0.8546 C.3     1  UNL1       -0.0058
     11 C          -2.0856    1.1140    0.5386 C.3     1  UNL1        0.1040
     12 C          -2.5904    2.1908   -0.3376 C.2     1  UNL1        0.2311
     13 N          -2.9103    1.9320   -1.6869 N.am    1  UNL1       -0.3278
     14 O          -2.7354    3.3435    0.1208 O.2     1  UNL1       -0.2740
     15 N          -2.0031   -0.1541   -0.1613 N.am    1  UNL1       -0.2841
     16 C          -2.8514   -1.2859   -0.0180 C.2     1  UNL1        0.2509
     17 O          -2.6814   -2.3289   -0.6795 O.2     1  UNL1       -0.2698
     18 C          -3.9499   -1.2281    0.9275 C.ar    1  UNL1        0.0823
     19 C          -3.9167   -1.5832    2.2736 C.ar    1  UNL1        0.1053
     20 O          -5.0869   -1.3925    2.7868 O.2     1  UNL1       -0.4621
     21 C          -5.9095   -0.9386    1.9029 C.ar    1  UNL1        0.1355
     22 C          -7.2498   -0.6057    2.0445 C.ar    1  UNL1       -0.0187
     23 C          -7.8929   -0.1388    0.9164 C.ar    1  UNL1       -0.0582
     24 C          -7.2659    0.0029   -0.3080 C.ar    1  UNL1       -0.0610
     25 C          -5.9198   -0.3495   -0.3801 C.ar    1  UNL1       -0.0503
     26 C          -5.2483   -0.8161    0.7169 C.ar    1  UNL1        0.0323
     27 C          -0.8515   -0.0368   -1.0566 C.3     1  UNL1        0.0343
     28 N           4.2818   -1.1181   -0.2868 N.ar    1  UNL1       -0.2593
     29 C           3.5292   -2.1718    0.3116 C.3     1  UNL1        0.0395
     30 C           3.4357   -1.9196    1.7982 C.3     1  UNL1       -0.0455
     31 N           5.6158   -1.2189   -0.4690 N.ar    1  UNL1       -0.1755
     32 H           7.2532    2.2341   -1.4014 H       1  UNL1        0.0233
     33 H           8.6890    1.6379   -2.2837 H       1  UNL1        0.0233
     34 H           7.0717    1.4377   -3.0633 H       1  UNL1        0.0233
     35 H           8.1069    0.1448   -0.5037 H       1  UNL1        0.0326
     36 H           7.8729   -0.6410   -2.1638 H       1  UNL1        0.0326
     37 H           5.0700    1.6513   -1.7376 H       1  UNL1        0.0659
     38 H           1.3563   -0.5382    0.4212 H       1  UNL1        0.1494
     39 H           0.2353    1.7978   -1.0328 H       1  UNL1        0.0514
     40 H          -0.3098    0.9156    1.8126 H       1  UNL1        0.0306
     41 H          -0.5280    2.4580    0.9822 H       1  UNL1        0.0306
     42 H          -2.6954    0.9617    1.4428 H       1  UNL1        0.0597
     43 H          -2.3684    2.4147   -2.4294 H       1  UNL1        0.1450
     44 H          -3.6732    1.2716   -1.9404 H       1  UNL1        0.1450
     45 H          -3.0098   -1.9515    2.7338 H       1  UNL1        0.1037
     46 H          -7.7817   -0.6981    2.9750 H       1  UNL1        0.0654
     47 H          -8.9534    0.1246    1.0284 H       1  UNL1        0.0619
     48 H          -7.7977    0.3673   -1.1569 H       1  UNL1        0.0618
     49 H          -5.4046   -0.2551   -1.3035 H       1  UNL1        0.0625
     50 H          -1.1810    0.3364   -2.0335 H       1  UNL1        0.0483
     51 H          -0.4151   -1.0390   -1.1462 H       1  UNL1        0.0483
     52 H           2.5353   -2.3661   -0.0947 H       1  UNL1        0.0506
     53 H           4.1563   -3.1300    0.2407 H       1  UNL1        0.0506
     54 H           2.3762   -1.9622    2.1555 H       1  UNL1        0.0247
     55 H           4.0376   -2.6254    2.3980 H       1  UNL1        0.0247
     56 H           3.8475   -0.9009    2.0519 H       1  UNL1        0.0247
@<TRIPOS>BOND
     1     1     2    1
     2     2     3    1
     3     3     4   ar
     4     4     5   ar
     5     5     6    1
     6     6     7    2
     7     6     8   am
     8     8     9    1
     9     9    10    1
    10    10    11    1
    11    11    12    1
    12    12    13   am
    13    12    14    2
    14    11    15    1
    15    15    16   am
    16    16    17    2
    17    16    18    1
    18    18    19   ar
    19    19    20   ar
    20    20    21   ar
    21    21    22   ar
    22    22    23   ar
    23    23    24   ar
    24    24    25   ar
    25    25    26   ar
    26    15    27    1
    27     5    28   ar
    28    28    29    1
    29    29    30    1
    30    28    31   ar
    31    31     3   ar
    32    27     9    1
    33    26    18   ar
    34    26    21   ar
    35     1    32    1
    36     1    33    1
    37     1    34    1
    38     2    35    1
    39     2    36    1
    40     4    37    1
    41     8    38    1
    42     9    39    1
    43    10    40    1
    44    10    41    1
    45    11    42    1
    46    13    43    1
    47    13    44    1
    48    19    45    1
    49    22    46    1
    50    23    47    1
    51    24    48    1
    52    25    49    1
    53    27    50    1
    54    27    51    1
    55    29    52    1
    56    29    53    1
    57    30    54    1
    58    30    55    1
    59    30    56    1
