@<TRIPOS>MOLECULE
*****
 50 53 0 0 0
SMALL
GASTEIGER

@<TRIPOS>ATOM
      1 N           5.7346   -2.2398   -1.1961 N.pl3   1  UNL1       -0.3565
      2 C           6.6947   -1.5686   -0.3980 C.ar    1  UNL1        0.0461
      3 C           8.0427   -1.8055   -0.6771 C.ar    1  UNL1       -0.0392
      4 C           9.0295   -1.1733    0.0748 C.ar    1  UNL1       -0.0599
      5 C           8.6545   -0.3199    1.0871 C.ar    1  UNL1       -0.0599
      6 C           7.3001   -0.0952    1.3517 C.ar    1  UNL1       -0.0387
      7 C           6.3207   -0.7139    0.6159 C.ar    1  UNL1        0.0545
      8 N           4.9373   -0.4938    0.8750 N.am    1  UNL1       -0.2800
      9 C           4.1933    0.5282    0.2534 C.2     1  UNL1        0.2483
     10 O           4.7975    1.2656   -0.5617 O.2     1  UNL1       -0.2699
     11 C           2.7546    0.7781    0.5053 C.ar    1  UNL1        0.0370
     12 C           2.1215    1.8043   -0.1556 C.ar    1  UNL1       -0.0493
     13 C           0.7899    2.0546    0.0616 C.ar    1  UNL1       -0.0564
     14 C           0.0610    1.2919    0.9381 C.ar    1  UNL1       -0.0303
     15 C          -1.3527    1.5502    1.1749 C.3     1  UNL1        0.0370
     16 N          -2.2222    0.8182    0.2785 N.pl3   1  UNL1       -0.3093
     17 C          -3.6265    0.9903    0.4150 C.ar    1  UNL1        0.2159
     18 N          -4.1193    1.8134    1.3549 N.ar    1  UNL1       -0.2229
     19 C          -5.4258    2.0290    1.5468 C.ar    1  UNL1        0.0332
     20 C          -6.3295    1.3591    0.7214 C.ar    1  UNL1       -0.0174
     21 C          -5.8634    0.5093   -0.2510 C.ar    1  UNL1        0.0775
     22 C          -6.7556   -0.2190   -1.1441 C.ar    1  UNL1        0.0186
     23 C          -8.1173   -0.1189   -1.0899 C.ar    1  UNL1       -0.0497
     24 C          -8.9409   -0.8388   -1.9700 C.ar    1  UNL1       -0.0430
     25 C          -8.3455   -1.6590   -2.9019 C.ar    1  UNL1        0.0276
     26 N          -7.0065   -1.7648   -2.9639 N.ar    1  UNL1       -0.2626
     27 C          -6.2174   -1.0697   -2.1143 C.ar    1  UNL1        0.0367
     28 N          -4.5078    0.3496   -0.3752 N.ar    1  UNL1       -0.2145
     29 C           0.7092    0.2710    1.5896 C.ar    1  UNL1       -0.0564
     30 C           2.0470    0.0025    1.3858 C.ar    1  UNL1       -0.0493
     31 H           5.9095   -2.5383   -2.1829 H       1  UNL1        0.1424
     32 H           4.7932   -2.4520   -0.7784 H       1  UNL1        0.1424
     33 H           8.3717   -2.4688   -1.4638 H       1  UNL1        0.0636
     34 H          10.0617   -1.3672   -0.1537 H       1  UNL1        0.0618
     35 H           9.4135    0.1700    1.6696 H       1  UNL1        0.0618
     36 H           6.9895    0.5678    2.1381 H       1  UNL1        0.0637
     37 H           4.4600   -1.1182    1.5542 H       1  UNL1        0.1552
     38 H           2.6955    2.4188   -0.8575 H       1  UNL1        0.0625
     39 H           0.3571    2.8835   -0.4975 H       1  UNL1        0.0621
     40 H          -1.6735    1.3067    2.2217 H       1  UNL1        0.0512
     41 H          -1.6288    2.6346    1.0406 H       1  UNL1        0.0512
     42 H          -1.8792    0.1726   -0.4609 H       1  UNL1        0.1492
     43 H          -5.8045    2.6925    2.3055 H       1  UNL1        0.0831
     44 H          -7.3977    1.5053    0.8432 H       1  UNL1        0.0654
     45 H          -8.5949    0.5134   -0.3724 H       1  UNL1        0.0625
     46 H         -10.0123   -0.7685   -1.9373 H       1  UNL1        0.0633
     47 H          -8.9649   -2.2146   -3.5805 H       1  UNL1        0.0829
     48 H          -5.1536   -1.1470   -2.1557 H       1  UNL1        0.0836
     49 H           0.1843   -0.3764    2.3035 H       1  UNL1        0.0621
     50 H           2.5160   -0.8268    1.9335 H       1  UNL1        0.0625
@<TRIPOS>BOND
     1     1     2    1
     2     2     3   ar
     3     3     4   ar
     4     4     5   ar
     5     5     6   ar
     6     6     7   ar
     7     7     8    1
     8     8     9   am
     9     9    10    2
    10     9    11    1
    11    11    12   ar
    12    12    13   ar
    13    13    14   ar
    14    14    15    1
    15    15    16    1
    16    16    17    1
    17    17    18   ar
    18    18    19   ar
    19    19    20   ar
    20    20    21   ar
    21    21    22    1
    22    22    23   ar
    23    23    24   ar
    24    24    25   ar
    25    25    26   ar
    26    26    27   ar
    27    21    28   ar
    28    14    29   ar
    29    29    30   ar
    30     7     2   ar
    31    30    11   ar
    32    28    17   ar
    33    27    22   ar
    34     1    31    1
    35     1    32    1
    36     3    33    1
    37     4    34    1
    38     5    35    1
    39     6    36    1
    40     8    37    1
    41    12    38    1
    42    13    39    1
    43    15    40    1
    44    15    41    1
    45    16    42    1
    46    19    43    1
    47    20    44    1
    48    23    45    1
    49    24    46    1
    50    25    47    1
    51    27    48    1
    52    29    49    1
    53    30    50    1
