@<TRIPOS>MOLECULE
*****
 54 57 0 0 0
SMALL
GASTEIGER

@<TRIPOS>ATOM
      1 C          -0.2271    0.6354   -1.0458 C.3     1  UNL1        0.1038
      2 C          -0.5224   -0.3260   -2.1743 C.3     1  UNL1       -0.0006
      3 C          -0.7901   -1.7049   -1.7055 C.ar    1  UNL1       -0.0450
      4 C           0.2526   -2.6080   -1.5717 C.ar    1  UNL1       -0.0558
      5 C          -0.0163   -3.9020   -1.1296 C.ar    1  UNL1       -0.0262
      6 C          -1.3220   -4.2765   -0.8272 C.ar    1  UNL1        0.1234
      7 F          -1.6530   -5.5219   -0.3914 F       1  UNL1       -0.2055
      8 C          -2.3291   -3.3298   -0.9797 C.ar    1  UNL1       -0.0262
      9 C          -2.1083   -2.0299   -1.4168 C.ar    1  UNL1       -0.0558
     10 N           0.9613    0.1673   -0.3166 N.am    1  UNL1       -0.2985
     11 C           2.1702    0.9057   -0.3041 C.2     1  UNL1        0.2610
     12 O           2.2223    1.9922   -0.9366 O.2     1  UNL1       -0.2686
     13 C           3.3258    0.3882    0.4422 C.ar    1  UNL1        0.1028
     14 C           3.4488   -0.7643    1.1808 C.ar    1  UNL1       -0.0241
     15 C           4.7234   -0.8115    1.6892 C.ar    1  UNL1        0.0018
     16 C           5.4013    0.3099    1.2711 C.ar    1  UNL1        0.0471
     17 N           4.5180    1.0029    0.5221 N.ar    1  UNL1       -0.3506
     18 C           6.7169    0.5506    1.6220 C.ar    1  UNL1       -0.0364
     19 C           7.3568   -0.3813    2.4227 C.ar    1  UNL1       -0.0414
     20 C           6.6680   -1.5104    2.8413 C.ar    1  UNL1        0.0417
     21 CL          7.4904   -2.6763    3.8515 Cl      1  UNL1       -0.0835
     22 C           5.3636   -1.7224    2.4774 C.ar    1  UNL1       -0.0342
     23 C          -1.3547    0.8289   -0.1188 C.2     1  UNL1        0.2362
     24 O          -0.7487    0.4747    0.9259 O.2     1  UNL1       -0.2736
     25 N          -2.6736    1.2745   -0.3870 N.am    1  UNL1       -0.2998
     26 C          -3.5158    1.7155   -1.5067 C.3     1  UNL1        0.0171
     27 C          -3.9873    3.1256   -1.1233 C.3     1  UNL1       -0.0109
     28 C          -5.1057    2.8897   -0.1090 C.3     1  UNL1        0.0581
     29 O          -6.2888    2.7370   -0.8523 O.3     1  UNL1       -0.3917
     30 C          -4.8653    1.5917    0.6182 C.3     1  UNL1       -0.0109
     31 C          -3.4162    1.2937    0.8602 C.3     1  UNL1        0.0171
     32 H           0.0620    1.5991   -1.5118 H       1  UNL1        0.0598
     33 H          -1.2979    0.0827   -2.8482 H       1  UNL1        0.0336
     34 H           0.4133   -0.3281   -2.8077 H       1  UNL1        0.0336
     35 H           1.2499   -2.2914   -1.8123 H       1  UNL1        0.0621
     36 H           0.7749   -4.6298   -1.0147 H       1  UNL1        0.0646
     37 H          -3.3430   -3.6237   -0.7440 H       1  UNL1        0.0646
     38 H          -2.9331   -1.3563   -1.5100 H       1  UNL1        0.0621
     39 H           0.9069   -0.7398    0.2074 H       1  UNL1        0.1498
     40 H           2.6794   -1.4819    1.3220 H       1  UNL1        0.0646
     41 H           4.7741    1.9082    0.0748 H       1  UNL1        0.1660
     42 H           7.2289    1.4478    1.2760 H       1  UNL1        0.0639
     43 H           8.3946   -0.1849    2.6957 H       1  UNL1        0.0633
     44 H           4.8567   -2.6145    2.8223 H       1  UNL1        0.0639
     45 H          -2.9872    1.7319   -2.4645 H       1  UNL1        0.0465
     46 H          -4.4168    1.0860   -1.5642 H       1  UNL1        0.0465
     47 H          -4.3416    3.6624   -2.0076 H       1  UNL1        0.0305
     48 H          -3.1768    3.6416   -0.5853 H       1  UNL1        0.0305
     49 H          -5.2173    3.7584    0.5393 H       1  UNL1        0.0594
     50 H          -6.2182    3.3690   -1.6261 H       1  UNL1        0.2098
     51 H          -5.4056    0.7322    0.1868 H       1  UNL1        0.0305
     52 H          -5.3228    1.7366    1.6386 H       1  UNL1        0.0305
     53 H          -3.3897    0.2361    1.2553 H       1  UNL1        0.0465
     54 H          -2.9858    1.9401    1.6255 H       1  UNL1        0.0465
@<TRIPOS>BOND
     1     1     2    1
     2     2     3    1
     3     3     4   ar
     4     4     5   ar
     5     5     6   ar
     6     6     7    1
     7     6     8   ar
     8     8     9   ar
     9     1    10    1
    10    10    11   am
    11    11    12    2
    12    11    13    1
    13    13    14   ar
    14    14    15   ar
    15    15    16   ar
    16    16    17   ar
    17    16    18   ar
    18    18    19   ar
    19    19    20   ar
    20    20    21    1
    21    20    22   ar
    22     1    23    1
    23    23    24    2
    24    23    25   am
    25    25    26    1
    26    26    27    1
    27    27    28    1
    28    28    29    1
    29    28    30    1
    30    30    31    1
    31     9     3   ar
    32    17    13   ar
    33    31    25    1
    34    22    15   ar
    35     1    32    1
    36     2    33    1
    37     2    34    1
    38     4    35    1
    39     5    36    1
    40     8    37    1
    41     9    38    1
    42    10    39    1
    43    14    40    1
    44    17    41    1
    45    18    42    1
    46    19    43    1
    47    22    44    1
    48    26    45    1
    49    26    46    1
    50    27    47    1
    51    27    48    1
    52    28    49    1
    53    29    50    1
    54    30    51    1
    55    30    52    1
    56    31    53    1
    57    31    54    1
