
     RDKit          3D

 52 54  0  0  0  0  0  0  0  0999 V2000
   -2.3981   -1.2423    1.4127 C   0  0  0  0  0  0  0  0  0  0  0  0
   -2.6794    0.1305    1.1286 N   0  0  0  0  0  0  0  0  0  0  0  0
   -1.7158    1.0471    1.6780 C   0  0  0  0  0  0  0  0  0  0  0  0
   -0.3983    0.9411    1.0075 C   0  0  0  0  0  0  0  0  0  0  0  0
    0.6695    0.6147    1.6974 C   0  0  0  0  0  0  0  0  0  0  0  0
    1.9982    0.4914    1.1006 C   0  0  0  0  0  0  0  0  0  0  0  0
    3.0664    0.1353    1.8967 C   0  0  0  0  0  0  0  0  0  0  0  0
    4.3443   -0.0022    1.3832 C   0  0  0  0  0  0  0  0  0  0  0  0
    4.6062    0.2114    0.0495 C   0  0  0  0  0  0  0  0  0  0  0  0
    5.9174    0.0808   -0.5598 C   0  0  0  0  0  0  0  0  0  0  0  0
    7.0443    0.3663    0.1596 C   0  0  0  0  0  0  0  0  0  0  0  0
    8.3078    0.2432   -0.4231 C   0  0  0  0  0  0  0  0  0  0  0  0
    8.4485   -0.1657   -1.7262 C   0  0  0  0  0  0  0  0  0  0  0  0
    7.3038   -0.4564   -2.4593 C   0  0  0  0  0  0  0  0  0  0  0  0
    6.0816   -0.3281   -1.8672 C   0  0  0  0  0  0  0  0  0  0  0  0
    3.5024    0.5716   -0.7316 C   0  0  0  0  0  0  0  0  0  0  0  0
    2.2320    0.7072   -0.2160 C   0  0  0  0  0  0  0  0  0  0  0  0
   -2.9753    0.3924   -0.2540 C   0  0  0  0  0  0  0  0  0  0  0  0
   -4.1186   -0.3573   -0.7843 C   0  0  0  0  0  0  0  0  0  0  0  0
   -4.0627   -1.4799   -1.6249 C   0  0  0  0  0  0  0  0  0  0  0  0
   -5.2732   -1.8760   -1.8884 O   0  0  0  0  0  0  0  0  0  0  0  0
   -6.1630   -1.1354   -1.3109 C   0  0  0  0  0  0  0  0  0  0  0  0
   -7.5272   -1.1845   -1.3117 C   0  0  0  0  0  0  0  0  0  0  0  0
   -8.2127   -0.2326   -0.5824 C   0  0  0  0  0  0  0  0  0  0  0  0
   -7.5640    0.7452    0.1313 C   0  0  0  0  0  0  0  0  0  0  0  0
   -6.1809    0.7696    0.1135 C   0  0  0  0  0  0  0  0  0  0  0  0
   -5.4713   -0.1536   -0.5952 C   0  0  0  0  0  0  0  0  0  0  0  0
    0.6860    0.0000    0.0000 Cl  0  0  0  0  0  0  0  0  0  0  0  0
   -1.8095   -1.7675    0.6625 H   0  0  0  0  0  0  0  0  0  0  0  0
   -3.3777   -1.7749    1.5056 H   0  0  0  0  0  0  0  0  0  0  0  0
   -1.8987   -1.3304    2.3950 H   0  0  0  0  0  0  0  0  0  0  0  0
   -1.6592    0.8585    2.7690 H   0  0  0  0  0  0  0  0  0  0  0  0
   -2.0691    2.0887    1.5472 H   0  0  0  0  0  0  0  0  0  0  0  0
   -0.3569    1.1408   -0.0504 H   0  0  0  0  0  0  0  0  0  0  0  0
    0.5325    0.4332    2.7534 H   0  0  0  0  0  0  0  0  0  0  0  0
    2.9003   -0.0422    2.9634 H   0  0  0  0  0  0  0  0  0  0  0  0
    5.1772   -0.2857    2.0310 H   0  0  0  0  0  0  0  0  0  0  0  0
    7.0202    0.6959    1.1967 H   0  0  0  0  0  0  0  0  0  0  0  0
    9.2007    0.4631    0.1268 H   0  0  0  0  0  0  0  0  0  0  0  0
    9.3852   -0.2792   -2.2225 H   0  0  0  0  0  0  0  0  0  0  0  0
    7.3715   -0.7771   -3.4823 H   0  0  0  0  0  0  0  0  0  0  0  0
    5.1922   -0.5567   -2.4423 H   0  0  0  0  0  0  0  0  0  0  0  0
    3.7111    0.7393   -1.7864 H   0  0  0  0  0  0  0  0  0  0  0  0
    1.4332    0.9948   -0.9192 H   0  0  0  0  0  0  0  0  0  0  0  0
   -3.1783    1.4765   -0.3547 H   0  0  0  0  0  0  0  0  0  0  0  0
   -2.0911    0.1883   -0.9158 H   0  0  0  0  0  0  0  0  0  0  0  0
   -3.1221   -1.9183   -1.9776 H   0  0  0  0  0  0  0  0  0  0  0  0
   -8.0989   -1.9215   -1.8481 H   0  0  0  0  0  0  0  0  0  0  0  0
   -9.2916   -0.2664   -0.5803 H   0  0  0  0  0  0  0  0  0  0  0  0
   -8.1244    1.4821    0.6972 H   0  0  0  0  0  0  0  0  0  0  0  0
   -5.6285    1.5252    0.6623 H   0  0  0  0  0  0  0  0  0  0  0  0
   -0.6860    0.0000    0.0000 H   0  0  0  0  0  0  0  0  0  0  0  0
  1  2  1  0
  2  3  1  0
  3  4  1  0
  4  5  2  0
  5  6  1  0
  6  7  2  0
  7  8  1  0
  8  9  2  0
  9 10  1  0
 10 11  2  0
 11 12  1  0
 12 13  2  0
 13 14  1  0
 14 15  2  0
  9 16  1  0
 16 17  2  0
  2 18  1  0
 18 19  1  0
 19 20  2  0
 20 21  1  0
 21 22  1  0
 22 23  2  0
 23 24  1  0
 24 25  2  0
 25 26  1  0
 26 27  2  0
 17  6  1  0
 27 19  1  0
 15 10  1  0
 27 22  1  0
  1 29  1  0
  1 30  1  0
  1 31  1  0
  3 32  1  0
  3 33  1  0
  4 34  1  0
  5 35  1  0
  7 36  1  0
  8 37  1  0
 11 38  1  0
 12 39  1  0
 13 40  1  0
 14 41  1  0
 15 42  1  0
 16 43  1  0
 17 44  1  0
 18 45  1  0
 18 46  1  0
 20 47  1  0
 23 48  1  0
 24 49  1  0
 25 50  1  0
 26 51  1  0
 28 52  1  0
M  END
$$$$
