@<TRIPOS>MOLECULE
*****
 52 54 0 0 0
SMALL
GASTEIGER

@<TRIPOS>ATOM
      1 C          -2.3981   -1.2423    1.4127 C.3     1  UNL1       -0.0121
      2 N          -2.6794    0.1305    1.1286 N.3     1  UNL1       -0.2974
      3 C          -1.7158    1.0471    1.6780 C.3     1  UNL1        0.0174
      4 C          -0.3983    0.9411    1.0075 C.2     1  UNL1       -0.0695
      5 C           0.6695    0.6147    1.6974 C.2     1  UNL1       -0.0573
      6 C           1.9982    0.4914    1.1006 C.ar    1  UNL1       -0.0252
      7 C           3.0664    0.1353    1.8967 C.ar    1  UNL1       -0.0540
      8 C           4.3443   -0.0022    1.3832 C.ar    1  UNL1       -0.0535
      9 C           4.6062    0.2114    0.0495 C.ar    1  UNL1       -0.0178
     10 C           5.9174    0.0808   -0.5598 C.ar    1  UNL1       -0.0179
     11 C           7.0443    0.3663    0.1596 C.ar    1  UNL1       -0.0540
     12 C           8.3078    0.2432   -0.4231 C.ar    1  UNL1       -0.0612
     13 C           8.4485   -0.1657   -1.7262 C.ar    1  UNL1       -0.0617
     14 C           7.3038   -0.4564   -2.4593 C.ar    1  UNL1       -0.0612
     15 C           6.0816   -0.3281   -1.8672 C.ar    1  UNL1       -0.0540
     16 C           3.5024    0.5716   -0.7316 C.ar    1  UNL1       -0.0535
     17 C           2.2320    0.7072   -0.2160 C.ar    1  UNL1       -0.0540
     18 C          -2.9753    0.3924   -0.2540 C.3     1  UNL1        0.0276
     19 C          -4.1186   -0.3573   -0.7843 C.ar    1  UNL1        0.0121
     20 C          -4.0627   -1.4799   -1.6249 C.ar    1  UNL1        0.0975
     21 O          -5.2732   -1.8760   -1.8884 O.2     1  UNL1       -0.4626
     22 C          -6.1630   -1.1354   -1.3109 C.ar    1  UNL1        0.1351
     23 C          -7.5272   -1.1845   -1.3117 C.ar    1  UNL1       -0.0188
     24 C          -8.2127   -0.2326   -0.5824 C.ar    1  UNL1       -0.0582
     25 C          -7.5640    0.7452    0.1313 C.ar    1  UNL1       -0.0610
     26 C          -6.1809    0.7696    0.1135 C.ar    1  UNL1       -0.0507
     27 C          -5.4713   -0.1536   -0.5952 C.ar    1  UNL1        0.0245
     28 CL          0.6860    0.0000    0.0000 Cl      2  UNL2       -0.1454
     29 H          -1.8095   -1.7675    0.6625 H       1  UNL1        0.0391
     30 H          -3.3777   -1.7749    1.5056 H       1  UNL1        0.0391
     31 H          -1.8987   -1.3304    2.3950 H       1  UNL1        0.0391
     32 H          -1.6592    0.8585    2.7690 H       1  UNL1        0.0470
     33 H          -2.0691    2.0887    1.5472 H       1  UNL1        0.0470
     34 H          -0.3569    1.1408   -0.0504 H       1  UNL1        0.0585
     35 H           0.5325    0.4332    2.7534 H       1  UNL1        0.0621
     36 H           2.9003   -0.0422    2.9634 H       1  UNL1        0.0624
     37 H           5.1772   -0.2857    2.0310 H       1  UNL1        0.0624
     38 H           7.0202    0.6959    1.1967 H       1  UNL1        0.0624
     39 H           9.2007    0.4631    0.1268 H       1  UNL1        0.0618
     40 H           9.3852   -0.2792   -2.2225 H       1  UNL1        0.0618
     41 H           7.3715   -0.7771   -3.4823 H       1  UNL1        0.0618
     42 H           5.1922   -0.5567   -2.4423 H       1  UNL1        0.0624
     43 H           3.7111    0.7393   -1.7864 H       1  UNL1        0.0624
     44 H           1.4332    0.9948   -0.9192 H       1  UNL1        0.0624
     45 H          -3.1783    1.4765   -0.3547 H       1  UNL1        0.0477
     46 H          -2.0911    0.1883   -0.9158 H       1  UNL1        0.0477
     47 H          -3.1221   -1.9183   -1.9776 H       1  UNL1        0.1033
     48 H          -8.0989   -1.9215   -1.8481 H       1  UNL1        0.0654
     49 H          -9.2916   -0.2664   -0.5803 H       1  UNL1        0.0619
     50 H          -8.1244    1.4821    0.6972 H       1  UNL1        0.0618
     51 H          -5.6285    1.5252    0.6623 H       1  UNL1        0.0625
     52 H          -0.6860    0.0000    0.0000 H       1  UNL1        0.1454
@<TRIPOS>BOND
     1     1     2    1
     2     2     3    1
     3     3     4    1
     4     4     5    2
     5     5     6    1
     6     6     7   ar
     7     7     8   ar
     8     8     9   ar
     9     9    10    1
    10    10    11   ar
    11    11    12   ar
    12    12    13   ar
    13    13    14   ar
    14    14    15   ar
    15     9    16   ar
    16    16    17   ar
    17     2    18    1
    18    18    19    1
    19    19    20   ar
    20    20    21   ar
    21    21    22   ar
    22    22    23   ar
    23    23    24   ar
    24    24    25   ar
    25    25    26   ar
    26    26    27   ar
    27    17     6   ar
    28    27    19   ar
    29    15    10   ar
    30    27    22   ar
    31     1    29    1
    32     1    30    1
    33     1    31    1
    34     3    32    1
    35     3    33    1
    36     4    34    1
    37     5    35    1
    38     7    36    1
    39     8    37    1
    40    11    38    1
    41    12    39    1
    42    13    40    1
    43    14    41    1
    44    15    42    1
    45    16    43    1
    46    17    44    1
    47    18    45    1
    48    18    46    1
    49    20    47    1
    50    23    48    1
    51    24    49    1
    52    25    50    1
    53    26    51    1
    54    28    52    1
