
     RDKit          3D

 53 54  0  0  0  0  0  0  0  0999 V2000
    7.5248   -2.9831    0.0430 C   0  0  0  0  0  0  0  0  0  0  0  0
    6.6817   -1.8811    0.6133 C   0  0  0  0  0  0  0  0  0  0  0  0
    5.2586   -1.8819    0.0961 C   0  0  0  0  0  0  0  0  0  0  0  0
    4.5847   -0.7317    0.7662 C   0  0  0  0  0  0  0  0  0  0  0  0
    4.9463    0.1538    1.6047 O   0  0  0  0  0  0  0  0  0  0  0  0
    3.2793   -0.3783    0.5694 O   0  0  0  0  0  0  0  0  0  0  0  0
    2.6345    0.7118    1.2022 C   0  0  0  0  0  0  0  0  0  0  0  0
    1.3071    0.8661    0.8376 O   0  0  0  0  0  0  0  0  0  0  0  0
    0.8286    1.0938   -0.4338 C   0  0  0  0  0  0  0  0  0  0  0  0
    1.8556    1.1257   -1.1549 O   0  0  0  0  0  0  0  0  0  0  0  0
   -0.5473    1.2646   -0.8830 C   0  0  0  0  0  0  0  0  0  0  0  0
   -0.7442    1.4736   -2.1702 C   0  0  0  0  0  0  0  0  0  0  0  0
    0.3692    1.5416   -3.1739 C   0  0  0  0  0  0  0  0  0  0  0  0
   -2.0772    1.6439   -2.6432 N   0  0  0  0  0  0  0  0  0  0  0  0
   -3.2357    1.6053   -1.8161 C   0  0  0  0  0  0  0  0  0  0  0  0
   -4.5874    1.7857   -2.3503 C   0  0  0  0  0  0  0  0  0  0  0  0
   -2.9747    1.3945   -0.5436 C   0  0  0  0  0  0  0  0  0  0  0  0
   -1.6427    1.2010    0.0897 C   0  0  0  0  0  0  0  0  0  0  0  0
   -1.6954   -0.0598    0.8687 C   0  0  0  0  0  0  0  0  0  0  0  0
   -1.1894   -0.1083    2.1577 C   0  0  0  0  0  0  0  0  0  0  0  0
   -1.1997   -1.2244    2.9463 C   0  0  0  0  0  0  0  0  0  0  0  0
   -1.7482   -2.4045    2.4489 C   0  0  0  0  0  0  0  0  0  0  0  0
   -2.2603   -2.3991    1.1768 C   0  0  0  0  0  0  0  0  0  0  0  0
   -2.9575   -3.8789    0.5300 Cl  0  0  0  0  0  0  0  0  0  0  0  0
   -2.2277   -1.2492    0.4185 C   0  0  0  0  0  0  0  0  0  0  0  0
   -2.8916   -1.3076   -1.1813 Cl  0  0  0  0  0  0  0  0  0  0  0  0
   -4.0948    1.3347    0.4005 C   0  0  0  0  0  0  0  0  0  0  0  0
   -4.1386    1.1512    1.6396 O   0  0  0  0  0  0  0  0  0  0  0  0
   -5.4023    1.4878    0.0242 O   0  0  0  0  0  0  0  0  0  0  0  0
   -6.4880    1.4308    0.9320 C   0  0  0  0  0  0  0  0  0  0  0  0
    8.5969   -2.6595    0.1162 H   0  0  0  0  0  0  0  0  0  0  0  0
    7.4171   -3.9260    0.6290 H   0  0  0  0  0  0  0  0  0  0  0  0
    7.3127   -3.1079   -1.0340 H   0  0  0  0  0  0  0  0  0  0  0  0
    7.1931   -0.9188    0.4049 H   0  0  0  0  0  0  0  0  0  0  0  0
    6.6879   -1.9775    1.7150 H   0  0  0  0  0  0  0  0  0  0  0  0
    4.7424   -2.8064    0.4207 H   0  0  0  0  0  0  0  0  0  0  0  0
    5.2010   -1.8244   -0.9928 H   0  0  0  0  0  0  0  0  0  0  0  0
    3.2542    1.6263    1.1066 H   0  0  0  0  0  0  0  0  0  0  0  0
    2.6555    0.4643    2.2967 H   0  0  0  0  0  0  0  0  0  0  0  0
   -0.0292    1.7068   -4.1894 H   0  0  0  0  0  0  0  0  0  0  0  0
    0.8636    0.5511   -3.1839 H   0  0  0  0  0  0  0  0  0  0  0  0
    1.0680    2.3604   -2.9686 H   0  0  0  0  0  0  0  0  0  0  0  0
   -2.2210    1.8112   -3.6808 H   0  0  0  0  0  0  0  0  0  0  0  0
   -5.1950    0.8640   -2.2194 H   0  0  0  0  0  0  0  0  0  0  0  0
   -4.5105    1.9291   -3.4536 H   0  0  0  0  0  0  0  0  0  0  0  0
   -5.0986    2.6772   -1.9652 H   0  0  0  0  0  0  0  0  0  0  0  0
   -1.5495    2.0520    0.8189 H   0  0  0  0  0  0  0  0  0  0  0  0
   -0.7425    0.7437    2.6493 H   0  0  0  0  0  0  0  0  0  0  0  0
   -0.8100   -1.2761    3.9492 H   0  0  0  0  0  0  0  0  0  0  0  0
   -1.7641   -3.2947    3.0588 H   0  0  0  0  0  0  0  0  0  0  0  0
   -6.4127    0.4466    1.4447 H   0  0  0  0  0  0  0  0  0  0  0  0
   -7.4556    1.5162    0.4206 H   0  0  0  0  0  0  0  0  0  0  0  0
   -6.3715    2.2643    1.6420 H   0  0  0  0  0  0  0  0  0  0  0  0
  1  2  1  0
  2  3  1  0
  3  4  1  0
  4  5  2  0
  4  6  1  0
  6  7  1  0
  7  8  1  0
  8  9  1  0
  9 10  2  0
  9 11  1  0
 11 12  2  0
 12 13  1  0
 12 14  1  0
 14 15  1  0
 15 16  1  0
 15 17  2  0
 17 18  1  0
 18 19  1  0
 19 20  2  0
 20 21  1  0
 21 22  2  0
 22 23  1  0
 23 24  1  0
 23 25  2  0
 25 26  1  0
 17 27  1  0
 27 28  2  0
 27 29  1  0
 29 30  1  0
 18 11  1  0
 25 19  1  0
  1 31  1  0
  1 32  1  0
  1 33  1  0
  2 34  1  0
  2 35  1  0
  3 36  1  0
  3 37  1  0
  7 38  1  0
  7 39  1  0
 13 40  1  0
 13 41  1  0
 13 42  1  0
 14 43  1  0
 16 44  1  0
 16 45  1  0
 16 46  1  0
 18 47  1  0
 20 48  1  0
 21 49  1  0
 22 50  1  0
 30 51  1  0
 30 52  1  0
 30 53  1  0
M  END
$$$$
