@<TRIPOS>MOLECULE
*****
 38 39 0 0 0
SMALL
GASTEIGER

@<TRIPOS>ATOM
      1 C           3.1541    0.7412   -0.1300 C.3     1  UNL1       -0.0130
      2 N           2.2662   -0.3130   -0.5951 N.3     1  UNL1       -0.3083
      3 C           2.9757   -1.1213   -1.5622 C.3     1  UNL1       -0.0130
      4 C           1.8090   -1.1150    0.4985 C.3     1  UNL1       -0.0008
      5 C           0.8958   -0.5156    1.4595 C.3     1  UNL1       -0.0279
      6 C          -0.4242    0.0066    1.1845 C.3     1  UNL1        0.0275
      7 C          -1.4747   -0.8976    0.6498 C.ar    1  UNL1       -0.0384
      8 C          -2.7389   -0.9915    1.2571 C.ar    1  UNL1       -0.0566
      9 C          -3.7528   -1.7892    0.8069 C.ar    1  UNL1       -0.0431
     10 C          -3.5341   -2.5616   -0.3203 C.ar    1  UNL1        0.0410
     11 CL         -4.7796   -3.6080   -0.9642 Cl      1  UNL1       -0.0835
     12 C          -2.3271   -2.5118   -0.9496 C.ar    1  UNL1       -0.0431
     13 C          -1.3139   -1.6821   -0.4584 C.ar    1  UNL1       -0.0566
     14 C          -0.5406    1.3695    0.5966 C.ar    1  UNL1        0.0487
     15 C          -0.3542    1.5212   -0.7476 C.ar    1  UNL1       -0.0398
     16 C          -0.4370    2.7362   -1.3988 C.ar    1  UNL1       -0.0586
     17 C          -0.7261    3.8623   -0.6485 C.ar    1  UNL1       -0.0436
     18 C          -0.9112    3.7067    0.6889 C.ar    1  UNL1        0.0279
     19 N          -0.8191    2.4901    1.2883 N.ar    1  UNL1       -0.2593
     20 H           3.2069    0.6946    0.9848 H       1  UNL1        0.0391
     21 H           2.8481    1.7456   -0.4539 H       1  UNL1        0.0391
     22 H           4.1995    0.5953   -0.4807 H       1  UNL1        0.0391
     23 H           3.9982   -0.7355   -1.7891 H       1  UNL1        0.0391
     24 H           2.3957   -1.1341   -2.5109 H       1  UNL1        0.0391
     25 H           3.1297   -2.1611   -1.2165 H       1  UNL1        0.0391
     26 H           2.7729   -1.2892    1.0944 H       1  UNL1        0.0427
     27 H           1.5897   -2.1872    0.2070 H       1  UNL1        0.0427
     28 H           1.4741    0.3101    1.9841 H       1  UNL1        0.0287
     29 H           0.8046   -1.2795    2.3061 H       1  UNL1        0.0287
     30 H          -0.8192    0.1962    2.2548 H       1  UNL1        0.0413
     31 H          -2.9543   -0.3928    2.1555 H       1  UNL1        0.0621
     32 H          -4.7097   -1.8481    1.2843 H       1  UNL1        0.0632
     33 H          -2.1437   -3.1023   -1.8241 H       1  UNL1        0.0632
     34 H          -0.3891   -1.6725   -0.9872 H       1  UNL1        0.0621
     35 H          -0.1448    0.6663   -1.3572 H       1  UNL1        0.0636
     36 H          -0.2843    2.8375   -2.4669 H       1  UNL1        0.0619
     37 H          -0.8030    4.8438   -1.1160 H       1  UNL1        0.0633
     38 H          -1.1388    4.5860    1.2762 H       1  UNL1        0.0829
@<TRIPOS>BOND
     1     1     2    1
     2     2     3    1
     3     2     4    1
     4     4     5    1
     5     5     6    1
     6     6     7    1
     7     7     8   ar
     8     8     9   ar
     9     9    10   ar
    10    10    11    1
    11    10    12   ar
    12    12    13   ar
    13     6    14    1
    14    14    15   ar
    15    15    16   ar
    16    16    17   ar
    17    17    18   ar
    18    18    19   ar
    19    13     7   ar
    20    19    14   ar
    21     1    20    1
    22     1    21    1
    23     1    22    1
    24     3    23    1
    25     3    24    1
    26     3    25    1
    27     4    26    1
    28     4    27    1
    29     5    28    1
    30     5    29    1
    31     6    30    1
    32     8    31    1
    33     9    32    1
    34    12    33    1
    35    13    34    1
    36    15    35    1
    37    16    36    1
    38    17    37    1
    39    18    38    1
