@<TRIPOS>MOLECULE
*****
 66 70 0 0 0
SMALL
GASTEIGER

@<TRIPOS>ATOM
      1 C          -8.5963    2.7973    1.2687 C.3     1  UNL1       -0.0127
      2 N          -7.8460    2.2297    0.1645 N.3     1  UNL1       -0.3029
      3 C          -6.4432    2.3894    0.4458 C.3     1  UNL1        0.0114
      4 C          -5.5477    1.5731   -0.4609 C.3     1  UNL1        0.0120
      5 N          -6.0127    0.2457   -0.7047 N.3     1  UNL1       -0.2957
      6 C          -5.4687   -0.7624    0.1494 C.3     1  UNL1        0.0247
      7 C          -3.9954   -0.8034   -0.0194 C.ar    1  UNL1       -0.0216
      8 C          -3.1407   -0.2684    0.9375 C.ar    1  UNL1       -0.0551
      9 C          -1.7621   -0.2530    0.8862 C.ar    1  UNL1       -0.0401
     10 C          -1.1703   -0.8125   -0.2013 C.ar    1  UNL1        0.0342
     11 N           0.2510   -0.7908   -0.2430 N.am    1  UNL1       -0.2815
     12 C           0.8605   -1.9225    0.3449 C.2     1  UNL1        0.2483
     13 O          -0.0049   -2.7449    0.7997 O.2     1  UNL1       -0.2699
     14 C           2.2975   -2.1508    0.4355 C.ar    1  UNL1        0.0382
     15 C           3.2668   -1.2914   -0.0393 C.ar    1  UNL1       -0.0339
     16 C           4.5881   -1.6538    0.1245 C.ar    1  UNL1        0.0289
     17 C           5.5934   -0.7560   -0.3706 C.1     1  UNL1       -0.0592
     18 C           6.4573    0.0005   -0.7747 C.1     1  UNL1       -0.0395
     19 C           7.4919    0.8873   -1.2336 C.ar    1  UNL1        0.1356
     20 C           8.0261    0.9903   -2.5217 C.ar    1  UNL1        0.0639
     21 N           8.9656    1.9560   -2.4635 N.ar    1  UNL1       -0.2334
     22 C           9.0098    2.4195   -1.2221 C.ar    1  UNL1        0.1554
     23 C           9.8228    3.4189   -0.6867 C.ar    1  UNL1       -0.0159
     24 C           9.6949    3.7469    0.6665 C.ar    1  UNL1       -0.0384
     25 C           8.7435    3.0376    1.4031 C.ar    1  UNL1        0.0485
     26 N           7.9763    2.0797    0.8542 N.ar    1  UNL1       -0.1723
     27 N           8.1143    1.7863   -0.4268 N.ar    1  UNL1       -0.2049
     28 C           5.0046   -2.8217    0.7333 C.ar    1  UNL1       -0.0350
     29 C           6.4302   -3.1699    0.8873 C.3     1  UNL1       -0.0386
     30 C           4.0170   -3.6769    1.2063 C.ar    1  UNL1       -0.0570
     31 C           2.6981   -3.3252    1.0480 C.ar    1  UNL1       -0.0493
     32 C          -1.9635   -1.3616   -1.1883 C.ar    1  UNL1       -0.0285
     33 C          -3.3503   -1.3701   -1.1232 C.ar    1  UNL1        0.0609
     34 C          -4.1853   -1.9667   -2.1959 C.3     1  UNL1        0.4178
     35 F          -3.3083   -2.4540   -3.1741 F       1  UNL1       -0.1659
     36 F          -5.0202   -1.0842   -2.8135 F       1  UNL1       -0.1659
     37 F          -4.8693   -3.0762   -1.7340 F       1  UNL1       -0.1659
     38 C          -7.4069    0.1205   -0.9991 C.3     1  UNL1        0.0120
     39 C          -8.1816    0.8140    0.0997 C.3     1  UNL1        0.0114
     40 H          -9.4631    2.1416    1.5183 H       1  UNL1        0.0391
     41 H          -7.9468    2.7549    2.1838 H       1  UNL1        0.0391
     42 H          -8.9251    3.8402    1.0498 H       1  UNL1        0.0391
     43 H          -6.2663    2.0285    1.4864 H       1  UNL1        0.0439
     44 H          -6.1498    3.4507    0.3097 H       1  UNL1        0.0439
     45 H          -5.3727    2.1481   -1.3946 H       1  UNL1        0.0439
     46 H          -4.5663    1.5245    0.0485 H       1  UNL1        0.0439
     47 H          -5.6577   -0.5562    1.2263 H       1  UNL1        0.0476
     48 H          -5.8684   -1.7429   -0.1672 H       1  UNL1        0.0476
     49 H          -3.6113    0.1845    1.8166 H       1  UNL1        0.0621
     50 H          -1.1921    0.1885    1.6842 H       1  UNL1        0.0636
     51 H           0.8891   -0.0451   -0.6522 H       1  UNL1        0.1551
     52 H           2.9402   -0.3833   -0.5129 H       1  UNL1        0.0637
     53 H           7.7174    0.3862   -3.3897 H       1  UNL1        0.0859
     54 H          10.5709    3.9741   -1.2719 H       1  UNL1        0.0655
     55 H          10.3324    4.5205    1.0569 H       1  UNL1        0.0634
     56 H           8.7332    3.3759    2.4371 H       1  UNL1        0.0847
     57 H           6.5519   -4.2411    0.5597 H       1  UNL1        0.0278
     58 H           6.8207   -3.1136    1.9046 H       1  UNL1        0.0278
     59 H           7.0235   -2.5832    0.1510 H       1  UNL1        0.0278
     60 H           4.3349   -4.6022    1.6890 H       1  UNL1        0.0621
     61 H           1.9734   -4.0428    1.4425 H       1  UNL1        0.0625
     62 H          -1.4653   -1.8098   -2.0610 H       1  UNL1        0.0642
     63 H          -7.6650   -0.9597   -0.9112 H       1  UNL1        0.0439
     64 H          -7.6596    0.4895   -1.9985 H       1  UNL1        0.0439
     65 H          -7.8542    0.3696    1.0688 H       1  UNL1        0.0439
     66 H          -9.2603    0.7259   -0.0737 H       1  UNL1        0.0439
@<TRIPOS>BOND
     1     1     2    1
     2     2     3    1
     3     3     4    1
     4     4     5    1
     5     5     6    1
     6     6     7    1
     7     7     8   ar
     8     8     9   ar
     9     9    10   ar
    10    10    11    1
    11    11    12   am
    12    12    13    2
    13    12    14    1
    14    14    15   ar
    15    15    16   ar
    16    16    17    1
    17    17    18    3
    18    18    19    1
    19    19    20   ar
    20    20    21   ar
    21    21    22   ar
    22    22    23   ar
    23    23    24   ar
    24    24    25   ar
    25    25    26   ar
    26    26    27   ar
    27    16    28   ar
    28    28    29    1
    29    28    30   ar
    30    30    31   ar
    31    10    32   ar
    32    32    33   ar
    33    33    34    1
    34    34    35    1
    35    34    36    1
    36    34    37    1
    37     5    38    1
    38    38    39    1
    39    39     2    1
    40    33     7   ar
    41    31    14   ar
    42    27    19   ar
    43    27    22   ar
    44     1    40    1
    45     1    41    1
    46     1    42    1
    47     3    43    1
    48     3    44    1
    49     4    45    1
    50     4    46    1
    51     6    47    1
    52     6    48    1
    53     8    49    1
    54     9    50    1
    55    11    51    1
    56    15    52    1
    57    20    53    1
    58    23    54    1
    59    24    55    1
    60    25    56    1
    61    29    57    1
    62    29    58    1
    63    29    59    1
    64    30    60    1
    65    31    61    1
    66    32    62    1
    67    38    63    1
    68    38    64    1
    69    39    65    1
    70    39    66    1
