@<TRIPOS>MOLECULE
*****
 74 79 0 0 0
SMALL
GASTEIGER

@<TRIPOS>ATOM
      1 C           8.9817    1.6484   -1.8383 C.3     1  UNL1        0.0032
      2 N           7.5886    1.3600   -1.5475 N.am    1  UNL1       -0.3024
      3 C           6.8512    0.6662   -2.6029 C.3     1  UNL1        0.0032
      4 C           6.9533    1.7154   -0.3270 C.2     1  UNL1        0.2627
      5 O           7.6424    2.3102    0.5401 O.2     1  UNL1       -0.2684
      6 C           5.5522    1.3758   -0.1475 C.ar    1  UNL1        0.1070
      7 C           4.4852    2.0674   -0.7436 C.ar    1  UNL1       -0.0209
      8 C           3.3553    1.4154   -0.3191 C.ar    1  UNL1        0.0378
      9 C           1.9977    1.6394   -0.5789 C.ar    1  UNL1        0.0419
     10 N           1.0940    0.8229   -0.0156 N.ar    1  UNL1       -0.2219
     11 C           1.4609   -0.1988    0.7886 C.ar    1  UNL1        0.2224
     12 N           0.4402   -1.0496    1.3521 N.pl3   1  UNL1       -0.2684
     13 C          -0.9181   -0.7997    1.0215 C.ar    1  UNL1        0.1251
     14 C          -1.9299   -1.5790    1.5174 C.ar    1  UNL1       -0.0197
     15 C          -3.2637   -1.3222    1.1808 C.ar    1  UNL1       -0.0355
     16 C          -3.5890   -0.2793    0.3423 C.ar    1  UNL1        0.0545
     17 N          -4.9594    0.0031   -0.0327 N.am    1  UNL1       -0.2685
     18 C          -5.4437   -0.5818   -1.2408 C.3     1  UNL1        0.0354
     19 C          -6.8383   -1.1006   -1.2162 C.3     1  UNL1        0.0272
     20 C          -6.9708   -2.1046   -0.0949 C.3     1  UNL1       -0.0344
     21 C          -7.7252   -1.4260    1.0127 C.3     1  UNL1       -0.0354
     22 C          -7.9449   -0.0279    0.4714 C.3     1  UNL1        0.0193
     23 C          -7.0912    0.9832    1.2045 C.3     1  UNL1        0.0401
     24 C          -5.6600    0.8543    0.8594 C.2     1  UNL1        0.2214
     25 O          -4.9334    1.6811    1.5044 O.2     1  UNL1       -0.2752
     26 N          -7.7334   -0.0350   -0.9234 N.3     1  UNL1       -0.2865
     27 C          -8.8258    0.1624   -1.7896 C.3     1  UNL1        0.0954
     28 C          -9.3328    1.5831   -1.7063 C.3     1  UNL1        0.4024
     29 F         -10.4115    1.7646   -2.5760 F       1  UNL1       -0.1693
     30 F          -8.3584    2.4834   -2.1443 F       1  UNL1       -0.1693
     31 F          -9.7304    1.9755   -0.4732 F       1  UNL1       -0.1693
     32 C          -2.5471    0.4836   -0.1364 C.ar    1  UNL1        0.0511
     33 N          -1.2712    0.2232    0.1967 N.ar    1  UNL1       -0.2383
     34 N           2.7623   -0.4190    1.0430 N.ar    1  UNL1       -0.1962
     35 C           3.7096    0.3680    0.5032 C.ar    1  UNL1        0.1466
     36 N           5.0823    0.3683    0.5917 N.ar    1  UNL1       -0.3180
     37 C           5.7796   -0.5925    1.3684 C.3     1  UNL1        0.0366
     38 C           6.6420   -0.0847    2.4721 C.3     1  UNL1       -0.0320
     39 C           8.0504   -0.6179    2.2085 C.3     1  UNL1       -0.0511
     40 C           7.7196   -1.9827    1.5861 C.3     1  UNL1       -0.0511
     41 C           6.6725   -1.5313    0.5587 C.3     1  UNL1       -0.0320
     42 H           9.1720    1.7684   -2.9093 H       1  UNL1        0.0428
     43 H           9.6360    0.8687   -1.3678 H       1  UNL1        0.0428
     44 H           9.2308    2.6058   -1.3413 H       1  UNL1        0.0428
     45 H           7.3304   -0.3348   -2.7171 H       1  UNL1        0.0428
     46 H           6.8555    1.2372   -3.5487 H       1  UNL1        0.0428
     47 H           5.8003    0.5681   -2.2509 H       1  UNL1        0.0428
     48 H           4.5899    2.9051   -1.3748 H       1  UNL1        0.0647
     49 H           1.7623    2.4681   -1.2255 H       1  UNL1        0.0838
     50 H           0.6759   -1.8191    1.9771 H       1  UNL1        0.1564
     51 H          -1.7099   -2.4055    2.1774 H       1  UNL1        0.0652
     52 H          -4.0556   -1.9474    1.5846 H       1  UNL1        0.0638
     53 H          -4.7529   -1.4327   -1.5124 H       1  UNL1        0.0484
     54 H          -5.3326    0.1257   -2.1168 H       1  UNL1        0.0484
     55 H          -7.0393   -1.6095   -2.1782 H       1  UNL1        0.0478
     56 H          -5.9946   -2.4472    0.2996 H       1  UNL1        0.0281
     57 H          -7.5092   -3.0230   -0.4200 H       1  UNL1        0.0281
     58 H          -7.1285   -1.3227    1.9418 H       1  UNL1        0.0281
     59 H          -8.6764   -1.9415    1.2716 H       1  UNL1        0.0281
     60 H          -9.0023    0.2169    0.6952 H       1  UNL1        0.0467
     61 H          -7.1913    0.7687    2.2870 H       1  UNL1        0.0374
     62 H          -7.4846    2.0028    1.0336 H       1  UNL1        0.0374
     63 H          -9.6580   -0.5677   -1.6577 H       1  UNL1        0.0515
     64 H          -8.4440    0.0532   -2.8443 H       1  UNL1        0.0515
     65 H          -2.8156    1.3115   -0.8006 H       1  UNL1        0.0849
     66 H           5.0506   -1.3094    1.8632 H       1  UNL1        0.0528
     67 H           6.6044    0.9835    2.6681 H       1  UNL1        0.0285
     68 H           6.3804   -0.5573    3.4699 H       1  UNL1        0.0285
     69 H           8.6351   -0.7322    3.1432 H       1  UNL1        0.0266
     70 H           8.6003   -0.0769    1.4484 H       1  UNL1        0.0266
     71 H           8.5833   -2.4578    1.1256 H       1  UNL1        0.0266
     72 H           7.2578   -2.5875    2.3700 H       1  UNL1        0.0266
     73 H           7.1428   -1.0706   -0.2999 H       1  UNL1        0.0285
     74 H           6.1444   -2.4629    0.2625 H       1  UNL1        0.0285
@<TRIPOS>BOND
     1     1     2    1
     2     2     3    1
     3     2     4   am
     4     4     5    2
     5     4     6    1
     6     6     7   ar
     7     7     8   ar
     8     8     9   ar
     9     9    10   ar
    10    10    11   ar
    11    11    12    1
    12    12    13    1
    13    13    14   ar
    14    14    15   ar
    15    15    16   ar
    16    16    17    1
    17    17    18    1
    18    18    19    1
    19    19    20    1
    20    20    21    1
    21    21    22    1
    22    22    23    1
    23    23    24    1
    24    24    25    2
    25    22    26    1
    26    26    27    1
    27    27    28    1
    28    28    29    1
    29    28    30    1
    30    28    31    1
    31    16    32   ar
    32    32    33   ar
    33    11    34   ar
    34    34    35   ar
    35    35    36   ar
    36    36    37    1
    37    37    38    1
    38    38    39    1
    39    39    40    1
    40    40    41    1
    41    36     6   ar
    42    41    37    1
    43    35     8   ar
    44    33    13   ar
    45    24    17   am
    46    26    19    1
    47     1    42    1
    48     1    43    1
    49     1    44    1
    50     3    45    1
    51     3    46    1
    52     3    47    1
    53     7    48    1
    54     9    49    1
    55    12    50    1
    56    14    51    1
    57    15    52    1
    58    18    53    1
    59    18    54    1
    60    19    55    1
    61    20    56    1
    62    20    57    1
    63    21    58    1
    64    21    59    1
    65    22    60    1
    66    23    61    1
    67    23    62    1
    68    27    63    1
    69    27    64    1
    70    32    65    1
    71    37    66    1
    72    38    67    1
    73    38    68    1
    74    39    69    1
    75    39    70    1
    76    40    71    1
    77    40    72    1
    78    41    73    1
    79    41    74    1
