
     RDKit          3D

 74 79  0  0  0  0  0  0  0  0999 V2000
    8.9817    1.6484   -1.8383 C   0  0  0  0  0  0  0  0  0  0  0  0
    7.5886    1.3600   -1.5475 N   0  0  0  0  0  0  0  0  0  0  0  0
    6.8512    0.6662   -2.6029 C   0  0  0  0  0  0  0  0  0  0  0  0
    6.9533    1.7154   -0.3270 C   0  0  0  0  0  0  0  0  0  0  0  0
    7.6424    2.3102    0.5401 O   0  0  0  0  0  0  0  0  0  0  0  0
    5.5522    1.3758   -0.1475 C   0  0  0  0  0  0  0  0  0  0  0  0
    4.4852    2.0674   -0.7436 C   0  0  0  0  0  0  0  0  0  0  0  0
    3.3553    1.4154   -0.3191 C   0  0  0  0  0  0  0  0  0  0  0  0
    1.9977    1.6394   -0.5789 C   0  0  0  0  0  0  0  0  0  0  0  0
    1.0940    0.8229   -0.0156 N   0  0  0  0  0  0  0  0  0  0  0  0
    1.4609   -0.1988    0.7886 C   0  0  0  0  0  0  0  0  0  0  0  0
    0.4402   -1.0496    1.3521 N   0  0  0  0  0  0  0  0  0  0  0  0
   -0.9181   -0.7997    1.0215 C   0  0  0  0  0  0  0  0  0  0  0  0
   -1.9299   -1.5790    1.5174 C   0  0  0  0  0  0  0  0  0  0  0  0
   -3.2637   -1.3222    1.1808 C   0  0  0  0  0  0  0  0  0  0  0  0
   -3.5890   -0.2793    0.3423 C   0  0  0  0  0  0  0  0  0  0  0  0
   -4.9594    0.0031   -0.0327 N   0  0  0  0  0  0  0  0  0  0  0  0
   -5.4437   -0.5818   -1.2408 C   0  0  0  0  0  0  0  0  0  0  0  0
   -6.8383   -1.1006   -1.2162 C   0  0  1  0  0  0  0  0  0  0  0  0
   -6.9708   -2.1046   -0.0949 C   0  0  0  0  0  0  0  0  0  0  0  0
   -7.7252   -1.4260    1.0127 C   0  0  0  0  0  0  0  0  0  0  0  0
   -7.9449   -0.0279    0.4714 C   0  0  1  0  0  0  0  0  0  0  0  0
   -7.0912    0.9832    1.2045 C   0  0  0  0  0  0  0  0  0  0  0  0
   -5.6600    0.8543    0.8594 C   0  0  0  0  0  0  0  0  0  0  0  0
   -4.9334    1.6811    1.5044 O   0  0  0  0  0  0  0  0  0  0  0  0
   -7.7334   -0.0350   -0.9234 N   0  0  0  0  0  0  0  0  0  0  0  0
   -8.8258    0.1624   -1.7896 C   0  0  0  0  0  0  0  0  0  0  0  0
   -9.3328    1.5831   -1.7063 C   0  0  0  0  0  0  0  0  0  0  0  0
  -10.4115    1.7646   -2.5760 F   0  0  0  0  0  0  0  0  0  0  0  0
   -8.3584    2.4834   -2.1443 F   0  0  0  0  0  0  0  0  0  0  0  0
   -9.7304    1.9755   -0.4732 F   0  0  0  0  0  0  0  0  0  0  0  0
   -2.5471    0.4836   -0.1364 C   0  0  0  0  0  0  0  0  0  0  0  0
   -1.2712    0.2232    0.1967 N   0  0  0  0  0  0  0  0  0  0  0  0
    2.7623   -0.4190    1.0430 N   0  0  0  0  0  0  0  0  0  0  0  0
    3.7096    0.3680    0.5032 C   0  0  0  0  0  0  0  0  0  0  0  0
    5.0823    0.3683    0.5917 N   0  0  0  0  0  0  0  0  0  0  0  0
    5.7796   -0.5925    1.3684 C   0  0  0  0  0  0  0  0  0  0  0  0
    6.6420   -0.0847    2.4721 C   0  0  0  0  0  0  0  0  0  0  0  0
    8.0504   -0.6179    2.2085 C   0  0  0  0  0  0  0  0  0  0  0  0
    7.7196   -1.9827    1.5861 C   0  0  0  0  0  0  0  0  0  0  0  0
    6.6725   -1.5313    0.5587 C   0  0  0  0  0  0  0  0  0  0  0  0
    9.1720    1.7684   -2.9093 H   0  0  0  0  0  0  0  0  0  0  0  0
    9.6360    0.8687   -1.3678 H   0  0  0  0  0  0  0  0  0  0  0  0
    9.2308    2.6058   -1.3413 H   0  0  0  0  0  0  0  0  0  0  0  0
    7.3304   -0.3348   -2.7171 H   0  0  0  0  0  0  0  0  0  0  0  0
    6.8555    1.2372   -3.5487 H   0  0  0  0  0  0  0  0  0  0  0  0
    5.8003    0.5681   -2.2509 H   0  0  0  0  0  0  0  0  0  0  0  0
    4.5899    2.9051   -1.3748 H   0  0  0  0  0  0  0  0  0  0  0  0
    1.7623    2.4681   -1.2255 H   0  0  0  0  0  0  0  0  0  0  0  0
    0.6759   -1.8191    1.9771 H   0  0  0  0  0  0  0  0  0  0  0  0
   -1.7099   -2.4055    2.1774 H   0  0  0  0  0  0  0  0  0  0  0  0
   -4.0556   -1.9474    1.5846 H   0  0  0  0  0  0  0  0  0  0  0  0
   -4.7529   -1.4327   -1.5124 H   0  0  0  0  0  0  0  0  0  0  0  0
   -5.3326    0.1257   -2.1168 H   0  0  0  0  0  0  0  0  0  0  0  0
   -7.0393   -1.6095   -2.1782 H   0  0  0  0  0  0  0  0  0  0  0  0
   -5.9946   -2.4472    0.2996 H   0  0  0  0  0  0  0  0  0  0  0  0
   -7.5092   -3.0230   -0.4200 H   0  0  0  0  0  0  0  0  0  0  0  0
   -7.1285   -1.3227    1.9418 H   0  0  0  0  0  0  0  0  0  0  0  0
   -8.6764   -1.9415    1.2716 H   0  0  0  0  0  0  0  0  0  0  0  0
   -9.0023    0.2169    0.6952 H   0  0  0  0  0  0  0  0  0  0  0  0
   -7.1913    0.7687    2.2870 H   0  0  0  0  0  0  0  0  0  0  0  0
   -7.4846    2.0028    1.0336 H   0  0  0  0  0  0  0  0  0  0  0  0
   -9.6580   -0.5677   -1.6577 H   0  0  0  0  0  0  0  0  0  0  0  0
   -8.4440    0.0532   -2.8443 H   0  0  0  0  0  0  0  0  0  0  0  0
   -2.8156    1.3115   -0.8006 H   0  0  0  0  0  0  0  0  0  0  0  0
    5.0506   -1.3094    1.8632 H   0  0  0  0  0  0  0  0  0  0  0  0
    6.6044    0.9835    2.6681 H   0  0  0  0  0  0  0  0  0  0  0  0
    6.3804   -0.5573    3.4699 H   0  0  0  0  0  0  0  0  0  0  0  0
    8.6351   -0.7322    3.1432 H   0  0  0  0  0  0  0  0  0  0  0  0
    8.6003   -0.0769    1.4484 H   0  0  0  0  0  0  0  0  0  0  0  0
    8.5833   -2.4578    1.1256 H   0  0  0  0  0  0  0  0  0  0  0  0
    7.2578   -2.5875    2.3700 H   0  0  0  0  0  0  0  0  0  0  0  0
    7.1428   -1.0706   -0.2999 H   0  0  0  0  0  0  0  0  0  0  0  0
    6.1444   -2.4629    0.2625 H   0  0  0  0  0  0  0  0  0  0  0  0
  1  2  1  0
  2  3  1  0
  2  4  1  0
  4  5  2  0
  4  6  1  0
  6  7  2  0
  7  8  1  0
  8  9  2  0
  9 10  1  0
 10 11  2  0
 11 12  1  0
 12 13  1  0
 13 14  2  0
 14 15  1  0
 15 16  2  0
 16 17  1  0
 17 18  1  0
 18 19  1  0
 19 20  1  0
 20 21  1  0
 21 22  1  0
 22 23  1  0
 23 24  1  0
 24 25  2  0
 22 26  1  0
 26 27  1  0
 27 28  1  0
 28 29  1  0
 28 30  1  0
 28 31  1  0
 16 32  1  0
 32 33  2  0
 11 34  1  0
 34 35  2  0
 35 36  1  0
 36 37  1  0
 37 38  1  0
 38 39  1  0
 39 40  1  0
 40 41  1  0
 36  6  1  0
 41 37  1  0
 35  8  1  0
 33 13  1  0
 24 17  1  0
 26 19  1  0
  1 42  1  0
  1 43  1  0
  1 44  1  0
  3 45  1  0
  3 46  1  0
  3 47  1  0
  7 48  1  0
  9 49  1  0
 12 50  1  0
 14 51  1  0
 15 52  1  0
 18 53  1  0
 18 54  1  0
 19 55  1  6
 20 56  1  0
 20 57  1  0
 21 58  1  0
 21 59  1  0
 22 60  1  6
 23 61  1  0
 23 62  1  0
 27 63  1  0
 27 64  1  0
 32 65  1  0
 37 66  1  0
 38 67  1  0
 38 68  1  0
 39 69  1  0
 39 70  1  0
 40 71  1  0
 40 72  1  0
 41 73  1  0
 41 74  1  0
M  END
$$$$
