@<TRIPOS>MOLECULE
*****
 76 78 0 0 0
SMALL
GASTEIGER

@<TRIPOS>ATOM
      1 C          -7.7746    2.5334   -1.8270 C.3     1  UNL1        0.0364
      2 O          -6.9712    1.4722   -2.1778 O.3     1  UNL1       -0.3829
      3 C          -7.0639    0.4265   -1.3167 C.3     1  UNL1        0.0504
      4 C          -6.6328    0.8411    0.0891 C.3     1  UNL1        0.0049
      5 C          -6.7409   -0.3784    0.9611 C.3     1  UNL1        0.0918
      6 O          -5.9336   -1.3905    0.5375 O.3     1  UNL1       -0.4882
      7 C          -4.5873   -1.5428    0.4503 C.ar    1  UNL1        0.1626
      8 C          -3.6990   -0.5967    0.8735 C.ar    1  UNL1       -0.0042
      9 C          -2.3038   -0.7588    0.7771 C.ar    1  UNL1        0.0406
     10 C          -1.4267    0.2881    1.2607 C.2     1  UNL1        0.2470
     11 O          -1.3868    0.5503    2.4912 O.2     1  UNL1       -0.2700
     12 N          -0.6096    1.0165    0.3186 N.am    1  UNL1       -0.2946
     13 C           0.2219    2.0278    0.8780 C.3     1  UNL1        0.0227
     14 C           1.5403    1.6956    1.4254 C.3     1  UNL1        0.0257
     15 C           2.1933    3.0129    1.9832 C.3     1  UNL1        0.0037
     16 N           2.8353    3.5919    0.8430 N.3     1  UNL1       -0.3120
     17 C           2.8445    2.6376   -0.2161 C.3     1  UNL1        0.0335
     18 C           2.6626    1.3220    0.5084 C.3     1  UNL1        0.1224
     19 O           3.7687    1.1040    1.4062 O.3     1  UNL1       -0.4454
     20 C           4.4931   -0.0659    1.3768 C.2     1  UNL1        0.4008
     21 O           4.1468   -0.9114    0.5417 O.2     1  UNL1       -0.2265
     22 N           5.5693   -0.2195    2.2909 N.am    1  UNL1       -0.2770
     23 C           6.3434   -1.4195    2.2794 C.3     1  UNL1        0.0400
     24 C           7.3477   -1.5049    1.2018 C.ar    1  UNL1       -0.0302
     25 C           8.6051   -0.9786    1.4216 C.ar    1  UNL1       -0.0571
     26 C           9.6085   -1.0142    0.4818 C.ar    1  UNL1       -0.0615
     27 C           9.3723   -1.5978   -0.7451 C.ar    1  UNL1       -0.0617
     28 C           8.1083   -2.1365   -0.9888 C.ar    1  UNL1       -0.0615
     29 C           7.1028   -2.0876   -0.0151 C.ar    1  UNL1       -0.0571
     30 C          -0.7810    0.7408   -1.0729 C.3     1  UNL1        0.0207
     31 C           0.3798    0.1874   -1.8149 C.3     1  UNL1       -0.0467
     32 C          -1.2944    1.9613   -1.8364 C.3     1  UNL1       -0.0467
     33 C          -1.8597   -1.9394    0.2258 C.ar    1  UNL1       -0.0459
     34 C          -2.7491   -2.8870   -0.1974 C.ar    1  UNL1       -0.0156
     35 C          -4.1114   -2.7353   -0.1065 C.ar    1  UNL1        0.1615
     36 O          -4.9869   -3.7375   -0.5557 O.3     1  UNL1       -0.4915
     37 C          -4.4588   -4.9317   -1.1165 C.3     1  UNL1        0.0790
     38 H          -8.8330    2.1979   -1.7916 H       1  UNL1        0.0523
     39 H          -7.6719    3.2754   -2.6884 H       1  UNL1        0.0523
     40 H          -7.4934    2.9880   -0.8845 H       1  UNL1        0.0523
     41 H          -6.4959   -0.4599   -1.6192 H       1  UNL1        0.0561
     42 H          -8.1279    0.0559   -1.1902 H       1  UNL1        0.0561
     43 H          -7.3135    1.6220    0.5132 H       1  UNL1        0.0320
     44 H          -5.5977    1.1788    0.0153 H       1  UNL1        0.0320
     45 H          -6.4915   -0.0173    2.0071 H       1  UNL1        0.0697
     46 H          -7.8089   -0.7581    0.9663 H       1  UNL1        0.0697
     47 H          -4.0083    0.3223    1.3292 H       1  UNL1        0.0663
     48 H          -0.3574    2.5149    1.7484 H       1  UNL1        0.0469
     49 H           0.2944    2.9244    0.1759 H       1  UNL1        0.0469
     50 H           1.5067    0.9747    2.2746 H       1  UNL1        0.0365
     51 H           1.4346    3.6147    2.4740 H       1  UNL1        0.0428
     52 H           2.9716    2.6407    2.6779 H       1  UNL1        0.0428
     53 H           2.3362    4.4638    0.5403 H       1  UNL1        0.1221
     54 H           1.9911    2.7924   -0.8750 H       1  UNL1        0.0460
     55 H           3.7475    2.6597   -0.8459 H       1  UNL1        0.0460
     56 H           2.5194    0.4602   -0.1169 H       1  UNL1        0.0751
     57 H           5.7517    0.5823    2.9535 H       1  UNL1        0.1523
     58 H           6.8137   -1.6438    3.2648 H       1  UNL1        0.0513
     59 H           5.6304   -2.2832    2.1197 H       1  UNL1        0.0513
     60 H           8.8027   -0.5201    2.3765 H       1  UNL1        0.0621
     61 H          10.5844   -0.5759    0.7257 H       1  UNL1        0.0618
     62 H          10.1741   -1.6149   -1.4699 H       1  UNL1        0.0618
     63 H           7.9590   -2.5849   -1.9622 H       1  UNL1        0.0618
     64 H           6.1584   -2.5266   -0.2743 H       1  UNL1        0.0621
     65 H          -1.6126   -0.0272   -1.2316 H       1  UNL1        0.0495
     66 H           1.1836    0.9075   -2.0448 H       1  UNL1        0.0247
     67 H           0.0464   -0.1880   -2.8304 H       1  UNL1        0.0247
     68 H           0.7621   -0.6856   -1.2384 H       1  UNL1        0.0247
     69 H          -1.6435    1.6502   -2.8449 H       1  UNL1        0.0247
     70 H          -2.1998    2.3109   -1.3033 H       1  UNL1        0.0247
     71 H          -0.5737    2.7861   -1.8563 H       1  UNL1        0.0247
     72 H          -0.7691   -2.0504    0.1575 H       1  UNL1        0.0626
     73 H          -2.3635   -3.8164   -0.6320 H       1  UNL1        0.0655
     74 H          -4.0677   -5.6250   -0.3627 H       1  UNL1        0.0660
     75 H          -3.6937   -4.7041   -1.8946 H       1  UNL1        0.0660
     76 H          -5.3172   -5.4169   -1.6467 H       1  UNL1        0.0660
@<TRIPOS>BOND
     1     1     2    1
     2     2     3    1
     3     3     4    1
     4     4     5    1
     5     5     6    1
     6     6     7    1
     7     7     8   ar
     8     8     9   ar
     9     9    10    1
    10    10    11    2
    11    10    12   am
    12    12    13    1
    13    13    14    1
    14    14    15    1
    15    15    16    1
    16    16    17    1
    17    17    18    1
    18    18    19    1
    19    19    20    1
    20    20    21    2
    21    20    22   am
    22    22    23    1
    23    23    24    1
    24    24    25   ar
    25    25    26   ar
    26    26    27   ar
    27    27    28   ar
    28    28    29   ar
    29    12    30    1
    30    30    31    1
    31    30    32    1
    32     9    33   ar
    33    33    34   ar
    34    34    35   ar
    35    35    36    1
    36    36    37    1
    37    35     7   ar
    38    18    14    1
    39    29    24   ar
    40     1    38    1
    41     1    39    1
    42     1    40    1
    43     3    41    1
    44     3    42    1
    45     4    43    1
    46     4    44    1
    47     5    45    1
    48     5    46    1
    49     8    47    1
    50    13    48    1
    51    13    49    1
    52    14    50    1
    53    15    51    1
    54    15    52    1
    55    16    53    1
    56    17    54    1
    57    17    55    1
    58    18    56    1
    59    22    57    1
    60    23    58    1
    61    23    59    1
    62    25    60    1
    63    26    61    1
    64    27    62    1
    65    28    63    1
    66    29    64    1
    67    30    65    1
    68    31    66    1
    69    31    67    1
    70    31    68    1
    71    32    69    1
    72    32    70    1
    73    32    71    1
    74    33    72    1
    75    34    73    1
    76    37    74    1
    77    37    75    1
    78    37    76    1
