
     RDKit          3D

 76 78  0  0  0  0  0  0  0  0999 V2000
   -7.7746    2.5334   -1.8270 C   0  0  0  0  0  0  0  0  0  0  0  0
   -6.9712    1.4722   -2.1778 O   0  0  0  0  0  0  0  0  0  0  0  0
   -7.0639    0.4265   -1.3167 C   0  0  0  0  0  0  0  0  0  0  0  0
   -6.6328    0.8411    0.0891 C   0  0  0  0  0  0  0  0  0  0  0  0
   -6.7409   -0.3784    0.9611 C   0  0  0  0  0  0  0  0  0  0  0  0
   -5.9336   -1.3905    0.5375 O   0  0  0  0  0  0  0  0  0  0  0  0
   -4.5873   -1.5428    0.4503 C   0  0  0  0  0  0  0  0  0  0  0  0
   -3.6990   -0.5967    0.8735 C   0  0  0  0  0  0  0  0  0  0  0  0
   -2.3038   -0.7588    0.7771 C   0  0  0  0  0  0  0  0  0  0  0  0
   -1.4267    0.2881    1.2607 C   0  0  0  0  0  0  0  0  0  0  0  0
   -1.3868    0.5503    2.4912 O   0  0  0  0  0  0  0  0  0  0  0  0
   -0.6096    1.0165    0.3186 N   0  0  0  0  0  0  0  0  0  0  0  0
    0.2219    2.0278    0.8780 C   0  0  0  0  0  0  0  0  0  0  0  0
    1.5403    1.6956    1.4254 C   0  0  2  0  0  0  0  0  0  0  0  0
    2.1933    3.0129    1.9832 C   0  0  0  0  0  0  0  0  0  0  0  0
    2.8353    3.5919    0.8430 N   0  0  0  0  0  0  0  0  0  0  0  0
    2.8445    2.6376   -0.2161 C   0  0  0  0  0  0  0  0  0  0  0  0
    2.6626    1.3220    0.5084 C   0  0  1  0  0  0  0  0  0  0  0  0
    3.7687    1.1040    1.4062 O   0  0  0  0  0  0  0  0  0  0  0  0
    4.4931   -0.0659    1.3768 C   0  0  0  0  0  0  0  0  0  0  0  0
    4.1468   -0.9114    0.5417 O   0  0  0  0  0  0  0  0  0  0  0  0
    5.5693   -0.2195    2.2909 N   0  0  0  0  0  0  0  0  0  0  0  0
    6.3434   -1.4195    2.2794 C   0  0  0  0  0  0  0  0  0  0  0  0
    7.3477   -1.5049    1.2018 C   0  0  0  0  0  0  0  0  0  0  0  0
    8.6051   -0.9786    1.4216 C   0  0  0  0  0  0  0  0  0  0  0  0
    9.6085   -1.0142    0.4818 C   0  0  0  0  0  0  0  0  0  0  0  0
    9.3723   -1.5978   -0.7451 C   0  0  0  0  0  0  0  0  0  0  0  0
    8.1083   -2.1365   -0.9888 C   0  0  0  0  0  0  0  0  0  0  0  0
    7.1028   -2.0876   -0.0151 C   0  0  0  0  0  0  0  0  0  0  0  0
   -0.7810    0.7408   -1.0729 C   0  0  0  0  0  0  0  0  0  0  0  0
    0.3798    0.1874   -1.8149 C   0  0  0  0  0  0  0  0  0  0  0  0
   -1.2944    1.9613   -1.8364 C   0  0  0  0  0  0  0  0  0  0  0  0
   -1.8597   -1.9394    0.2258 C   0  0  0  0  0  0  0  0  0  0  0  0
   -2.7491   -2.8870   -0.1974 C   0  0  0  0  0  0  0  0  0  0  0  0
   -4.1114   -2.7353   -0.1065 C   0  0  0  0  0  0  0  0  0  0  0  0
   -4.9869   -3.7375   -0.5557 O   0  0  0  0  0  0  0  0  0  0  0  0
   -4.4588   -4.9317   -1.1165 C   0  0  0  0  0  0  0  0  0  0  0  0
   -8.8330    2.1979   -1.7916 H   0  0  0  0  0  0  0  0  0  0  0  0
   -7.6719    3.2754   -2.6884 H   0  0  0  0  0  0  0  0  0  0  0  0
   -7.4934    2.9880   -0.8845 H   0  0  0  0  0  0  0  0  0  0  0  0
   -6.4959   -0.4599   -1.6192 H   0  0  0  0  0  0  0  0  0  0  0  0
   -8.1279    0.0559   -1.1902 H   0  0  0  0  0  0  0  0  0  0  0  0
   -7.3135    1.6220    0.5132 H   0  0  0  0  0  0  0  0  0  0  0  0
   -5.5977    1.1788    0.0153 H   0  0  0  0  0  0  0  0  0  0  0  0
   -6.4915   -0.0173    2.0071 H   0  0  0  0  0  0  0  0  0  0  0  0
   -7.8089   -0.7581    0.9663 H   0  0  0  0  0  0  0  0  0  0  0  0
   -4.0083    0.3223    1.3292 H   0  0  0  0  0  0  0  0  0  0  0  0
   -0.3574    2.5149    1.7484 H   0  0  0  0  0  0  0  0  0  0  0  0
    0.2944    2.9244    0.1759 H   0  0  0  0  0  0  0  0  0  0  0  0
    1.5067    0.9747    2.2746 H   0  0  0  0  0  0  0  0  0  0  0  0
    1.4346    3.6147    2.4740 H   0  0  0  0  0  0  0  0  0  0  0  0
    2.9716    2.6407    2.6779 H   0  0  0  0  0  0  0  0  0  0  0  0
    2.3362    4.4638    0.5403 H   0  0  0  0  0  0  0  0  0  0  0  0
    1.9911    2.7924   -0.8750 H   0  0  0  0  0  0  0  0  0  0  0  0
    3.7475    2.6597   -0.8459 H   0  0  0  0  0  0  0  0  0  0  0  0
    2.5194    0.4602   -0.1169 H   0  0  0  0  0  0  0  0  0  0  0  0
    5.7517    0.5823    2.9535 H   0  0  0  0  0  0  0  0  0  0  0  0
    6.8137   -1.6438    3.2648 H   0  0  0  0  0  0  0  0  0  0  0  0
    5.6304   -2.2832    2.1197 H   0  0  0  0  0  0  0  0  0  0  0  0
    8.8027   -0.5201    2.3765 H   0  0  0  0  0  0  0  0  0  0  0  0
   10.5844   -0.5759    0.7257 H   0  0  0  0  0  0  0  0  0  0  0  0
   10.1741   -1.6149   -1.4699 H   0  0  0  0  0  0  0  0  0  0  0  0
    7.9590   -2.5849   -1.9622 H   0  0  0  0  0  0  0  0  0  0  0  0
    6.1584   -2.5266   -0.2743 H   0  0  0  0  0  0  0  0  0  0  0  0
   -1.6126   -0.0272   -1.2316 H   0  0  0  0  0  0  0  0  0  0  0  0
    1.1836    0.9075   -2.0448 H   0  0  0  0  0  0  0  0  0  0  0  0
    0.0464   -0.1880   -2.8304 H   0  0  0  0  0  0  0  0  0  0  0  0
    0.7621   -0.6856   -1.2384 H   0  0  0  0  0  0  0  0  0  0  0  0
   -1.6435    1.6502   -2.8449 H   0  0  0  0  0  0  0  0  0  0  0  0
   -2.1998    2.3109   -1.3033 H   0  0  0  0  0  0  0  0  0  0  0  0
   -0.5737    2.7861   -1.8563 H   0  0  0  0  0  0  0  0  0  0  0  0
   -0.7691   -2.0504    0.1575 H   0  0  0  0  0  0  0  0  0  0  0  0
   -2.3635   -3.8164   -0.6320 H   0  0  0  0  0  0  0  0  0  0  0  0
   -4.0677   -5.6250   -0.3627 H   0  0  0  0  0  0  0  0  0  0  0  0
   -3.6937   -4.7041   -1.8946 H   0  0  0  0  0  0  0  0  0  0  0  0
   -5.3172   -5.4169   -1.6467 H   0  0  0  0  0  0  0  0  0  0  0  0
  1  2  1  0
  2  3  1  0
  3  4  1  0
  4  5  1  0
  5  6  1  0
  6  7  1  0
  7  8  2  0
  8  9  1  0
  9 10  1  0
 10 11  2  0
 10 12  1  0
 12 13  1  0
 13 14  1  0
 14 15  1  0
 15 16  1  0
 16 17  1  0
 17 18  1  0
 18 19  1  0
 19 20  1  0
 20 21  2  0
 20 22  1  0
 22 23  1  0
 23 24  1  0
 24 25  2  0
 25 26  1  0
 26 27  2  0
 27 28  1  0
 28 29  2  0
 12 30  1  0
 30 31  1  0
 30 32  1  0
  9 33  2  0
 33 34  1  0
 34 35  2  0
 35 36  1  0
 36 37  1  0
 35  7  1  0
 18 14  1  0
 29 24  1  0
  1 38  1  0
  1 39  1  0
  1 40  1  0
  3 41  1  0
  3 42  1  0
  4 43  1  0
  4 44  1  0
  5 45  1  0
  5 46  1  0
  8 47  1  0
 13 48  1  0
 13 49  1  0
 14 50  1  1
 15 51  1  0
 15 52  1  0
 16 53  1  0
 17 54  1  0
 17 55  1  0
 18 56  1  6
 22 57  1  0
 23 58  1  0
 23 59  1  0
 25 60  1  0
 26 61  1  0
 27 62  1  0
 28 63  1  0
 29 64  1  0
 30 65  1  0
 31 66  1  0
 31 67  1  0
 31 68  1  0
 32 69  1  0
 32 70  1  0
 32 71  1  0
 33 72  1  0
 34 73  1  0
 37 74  1  0
 37 75  1  0
 37 76  1  0
M  END
$$$$
