
     RDKit          3D

 52 56  0  0  0  0  0  0  0  0999 V2000
    4.3999   -5.0879    0.1750 C   0  0  0  0  0  0  0  0  0  0  0  0
    3.9515   -3.7208    0.4836 N   0  0  0  0  0  0  0  0  0  0  0  0
    3.7151   -2.7876   -0.5592 C   0  0  0  0  0  0  0  0  0  0  0  0
    3.9042   -3.1805   -1.7526 O   0  0  0  0  0  0  0  0  0  0  0  0
    3.2736   -1.4337   -0.2808 C   0  0  0  0  0  0  0  0  0  0  0  0
    3.9972   -0.3665    0.2645 C   0  0  0  0  0  0  0  0  0  0  0  0
    3.2494    0.7386    0.3223 N   0  0  0  0  0  0  0  0  0  0  0  0
    3.5900    2.0561    0.8168 C   0  0  0  0  0  0  0  0  0  0  0  0
    2.0227    0.4057   -0.1882 C   0  0  0  0  0  0  0  0  0  0  0  0
    2.0153   -0.9016   -0.5514 C   0  0  0  0  0  0  0  0  0  0  0  0
    0.6593   -1.2613   -0.9509 C   0  0  0  0  0  0  0  0  0  0  0  0
    0.3458   -2.3983   -1.3506 O   0  0  0  0  0  0  0  0  0  0  0  0
   -0.1486   -0.0845   -0.7840 N   0  0  0  0  0  0  0  0  0  0  0  0
   -1.5706   -0.2481   -0.8152 C   0  0  0  0  0  0  0  0  0  0  0  0
   -2.3042   -0.0834   -1.9698 C   0  0  0  0  0  0  0  0  0  0  0  0
   -3.6732   -0.2652   -2.0060 C   0  0  0  0  0  0  0  0  0  0  0  0
   -4.4309   -0.0856   -3.2559 C   0  0  0  0  0  0  0  0  0  0  0  0
   -4.3336   -0.6265   -0.8345 C   0  0  0  0  0  0  0  0  0  0  0  0
   -5.6217   -0.8774   -0.5181 N   0  0  0  0  0  0  0  0  0  0  0  0
   -5.6743   -1.1806    0.7661 N   0  0  0  0  0  0  0  0  0  0  0  0
   -4.4632   -1.1320    1.2837 N   0  0  0  0  0  0  0  0  0  0  0  0
   -4.0665   -1.3989    2.6641 C   0  0  0  0  0  0  0  0  0  0  0  0
   -3.5871   -0.7854    0.3026 C   0  0  0  0  0  0  0  0  0  0  0  0
   -2.2535   -0.6002    0.3015 N   0  0  0  0  0  0  0  0  0  0  0  0
    0.7281    0.9944   -0.6144 C   0  0  0  0  0  0  0  0  0  0  0  0
    0.3500    2.1867    0.1025 C   0  0  0  0  0  0  0  0  0  0  0  0
    0.7783    3.4194   -0.3943 C   0  0  0  0  0  0  0  0  0  0  0  0
    0.4440    4.5782    0.2605 C   0  0  0  0  0  0  0  0  0  0  0  0
   -0.3092    4.5915    1.4072 C   0  0  0  0  0  0  0  0  0  0  0  0
   -0.7379    6.0519    2.2658 Cl  0  0  0  0  0  0  0  0  0  0  0  0
   -0.7442    3.3876    1.9151 C   0  0  0  0  0  0  0  0  0  0  0  0
   -0.4028    2.2171    1.2500 C   0  0  0  0  0  0  0  0  0  0  0  0
    4.7702   -5.1484   -0.8673 H   0  0  0  0  0  0  0  0  0  0  0  0
    5.2782   -5.3643    0.8170 H   0  0  0  0  0  0  0  0  0  0  0  0
    3.6067   -5.8090    0.4235 H   0  0  0  0  0  0  0  0  0  0  0  0
    3.8221   -3.4864    1.4868 H   0  0  0  0  0  0  0  0  0  0  0  0
    5.0233   -0.4654    0.5825 H   0  0  0  0  0  0  0  0  0  0  0  0
    2.7886    2.4488    1.4987 H   0  0  0  0  0  0  0  0  0  0  0  0
    4.4958    2.0296    1.4534 H   0  0  0  0  0  0  0  0  0  0  0  0
    3.7948    2.7684   -0.0067 H   0  0  0  0  0  0  0  0  0  0  0  0
   -1.7462    0.1972   -2.8527 H   0  0  0  0  0  0  0  0  0  0  0  0
   -5.4600   -0.4899   -3.1893 H   0  0  0  0  0  0  0  0  0  0  0  0
   -3.8779   -0.5849   -4.0801 H   0  0  0  0  0  0  0  0  0  0  0  0
   -4.5232    1.0081   -3.5237 H   0  0  0  0  0  0  0  0  0  0  0  0
   -2.9911   -1.5915    2.7594 H   0  0  0  0  0  0  0  0  0  0  0  0
   -4.3351   -0.5033    3.2973 H   0  0  0  0  0  0  0  0  0  0  0  0
   -4.6996   -2.2301    3.0623 H   0  0  0  0  0  0  0  0  0  0  0  0
    0.9125    1.3664   -1.7155 H   0  0  0  0  0  0  0  0  0  0  0  0
    1.3893    3.4800   -1.2991 H   0  0  0  0  0  0  0  0  0  0  0  0
    0.7829    5.5577   -0.1330 H   0  0  0  0  0  0  0  0  0  0  0  0
   -1.3434    3.3984    2.8137 H   0  0  0  0  0  0  0  0  0  0  0  0
   -0.7908    1.2975    1.7177 H   0  0  0  0  0  0  0  0  0  0  0  0
  1  2  1  0
  2  3  1  0
  3  4  2  0
  3  5  1  0
  5  6  2  0
  6  7  1  0
  7  8  1  0
  7  9  1  0
  9 10  2  0
 10 11  1  0
 11 12  2  0
 11 13  1  0
 13 14  1  0
 14 15  2  0
 15 16  1  0
 16 17  1  0
 16 18  2  0
 18 19  1  0
 19 20  2  0
 20 21  1  0
 21 22  1  0
 21 23  1  0
 23 24  2  0
 13 25  1  0
 25 26  1  0
 26 27  2  0
 27 28  1  0
 28 29  2  0
 29 30  1  0
 29 31  1  0
 31 32  2  0
 10  5  1  0
 24 14  1  0
 32 26  1  0
 25  9  1  0
 23 18  1  0
  1 33  1  0
  1 34  1  0
  1 35  1  0
  2 36  1  0
  6 37  1  0
  8 38  1  0
  8 39  1  0
  8 40  1  0
 15 41  1  0
 17 42  1  0
 17 43  1  0
 17 44  1  0
 22 45  1  0
 22 46  1  0
 22 47  1  0
 25 48  1  0
 27 49  1  0
 28 50  1  0
 31 51  1  0
 32 52  1  0
M  END
$$$$
