@<TRIPOS>MOLECULE
*****
 52 56 0 0 0
SMALL
GASTEIGER

@<TRIPOS>ATOM
      1 C           4.3999   -5.0879    0.1750 C.3     1  UNL1        0.0004
      2 N           3.9515   -3.7208    0.4836 N.am    1  UNL1       -0.3144
      3 C           3.7151   -2.7876   -0.5592 C.2     1  UNL1        0.2460
      4 O           3.9042   -3.1805   -1.7526 O.2     1  UNL1       -0.2701
      5 C           3.2736   -1.4337   -0.2808 C.ar    1  UNL1        0.0666
      6 C           3.9972   -0.3665    0.2645 C.ar    1  UNL1        0.0175
      7 N           3.2494    0.7386    0.3223 N.ar    1  UNL1       -0.3503
      8 C           3.5900    2.0561    0.8168 C.3     1  UNL1        0.0117
      9 C           2.0227    0.4057   -0.1882 C.ar    1  UNL1        0.0570
     10 C           2.0153   -0.9016   -0.5514 C.ar    1  UNL1        0.0722
     11 C           0.6593   -1.2613   -0.9509 C.2     1  UNL1        0.2553
     12 O           0.3458   -2.3983   -1.3506 O.2     1  UNL1       -0.2695
     13 N          -0.1486   -0.0845   -0.7840 N.am    1  UNL1       -0.2388
     14 C          -1.5706   -0.2481   -0.8152 C.ar    1  UNL1        0.1313
     15 C          -2.3042   -0.0834   -1.9698 C.ar    1  UNL1       -0.0161
     16 C          -3.6732   -0.2652   -2.0060 C.ar    1  UNL1       -0.0164
     17 C          -4.4309   -0.0856   -3.2559 C.3     1  UNL1       -0.0374
     18 C          -4.3336   -0.6265   -0.8345 C.ar    1  UNL1        0.1345
     19 N          -5.6217   -0.8774   -0.5181 N.ar    1  UNL1       -0.1276
     20 N          -5.6743   -1.1806    0.7661 N.ar    1  UNL1       -0.0635
     21 N          -4.4632   -1.1320    1.2837 N.ar    1  UNL1       -0.2297
     22 C          -4.0665   -1.3989    2.6641 C.3     1  UNL1        0.0341
     23 C          -3.5871   -0.7854    0.3026 C.ar    1  UNL1        0.1803
     24 N          -2.2535   -0.6002    0.3015 N.ar    1  UNL1       -0.2108
     25 C           0.7281    0.9944   -0.6144 C.3     1  UNL1        0.0986
     26 C           0.3500    2.1867    0.1025 C.ar    1  UNL1       -0.0207
     27 C           0.7783    3.4194   -0.3943 C.ar    1  UNL1       -0.0550
     28 C           0.4440    4.5782    0.2605 C.ar    1  UNL1       -0.0431
     29 C          -0.3092    4.5915    1.4072 C.ar    1  UNL1        0.0410
     30 CL         -0.7379    6.0519    2.2658 Cl      1  UNL1       -0.0835
     31 C          -0.7442    3.3876    1.9151 C.ar    1  UNL1       -0.0431
     32 C          -0.4028    2.2171    1.2500 C.ar    1  UNL1       -0.0550
     33 H           4.7702   -5.1484   -0.8673 H       1  UNL1        0.0426
     34 H           5.2782   -5.3643    0.8170 H       1  UNL1        0.0426
     35 H           3.6067   -5.8090    0.4235 H       1  UNL1        0.0426
     36 H           3.8221   -3.4864    1.4868 H       1  UNL1        0.1487
     37 H           5.0233   -0.4654    0.5825 H       1  UNL1        0.0817
     38 H           2.7886    2.4488    1.4987 H       1  UNL1        0.0456
     39 H           4.4958    2.0296    1.4534 H       1  UNL1        0.0456
     40 H           3.7948    2.7684   -0.0067 H       1  UNL1        0.0456
     41 H          -1.7462    0.1972   -2.8527 H       1  UNL1        0.0655
     42 H          -5.4600   -0.4899   -3.1893 H       1  UNL1        0.0278
     43 H          -3.8779   -0.5849   -4.0801 H       1  UNL1        0.0278
     44 H          -4.5232    1.0081   -3.5237 H       1  UNL1        0.0278
     45 H          -2.9911   -1.5915    2.7594 H       1  UNL1        0.0474
     46 H          -4.3351   -0.5033    3.2973 H       1  UNL1        0.0474
     47 H          -4.6996   -2.2301    3.0623 H       1  UNL1        0.0474
     48 H           0.9125    1.3664   -1.7155 H       1  UNL1        0.0620
     49 H           1.3893    3.4800   -1.2991 H       1  UNL1        0.0621
     50 H           0.7829    5.5577   -0.1330 H       1  UNL1        0.0632
     51 H          -1.3434    3.3984    2.8137 H       1  UNL1        0.0632
     52 H          -0.7908    1.2975    1.7177 H       1  UNL1        0.0621
@<TRIPOS>BOND
     1     1     2    1
     2     2     3   am
     3     3     4    2
     4     3     5    1
     5     5     6   ar
     6     6     7   ar
     7     7     8    1
     8     7     9   ar
     9     9    10   ar
    10    10    11    1
    11    11    12    2
    12    11    13   am
    13    13    14    1
    14    14    15   ar
    15    15    16   ar
    16    16    17    1
    17    16    18   ar
    18    18    19   ar
    19    19    20   ar
    20    20    21   ar
    21    21    22    1
    22    21    23   ar
    23    23    24   ar
    24    13    25    1
    25    25    26    1
    26    26    27   ar
    27    27    28   ar
    28    28    29   ar
    29    29    30    1
    30    29    31   ar
    31    31    32   ar
    32    10     5   ar
    33    24    14   ar
    34    32    26   ar
    35    25     9    1
    36    23    18   ar
    37     1    33    1
    38     1    34    1
    39     1    35    1
    40     2    36    1
    41     6    37    1
    42     8    38    1
    43     8    39    1
    44     8    40    1
    45    15    41    1
    46    17    42    1
    47    17    43    1
    48    17    44    1
    49    22    45    1
    50    22    46    1
    51    22    47    1
    52    25    48    1
    53    27    49    1
    54    28    50    1
    55    31    51    1
    56    32    52    1
