@<TRIPOS>MOLECULE
*****
 41 40 0 0 0
SMALL
GASTEIGER

@<TRIPOS>ATOM
      1 C          -4.3824    0.1795    1.0795 C.3     1  UNL1       -0.0440
      2 C          -4.5094   -0.4522   -0.2539 C.2     1  UNL1       -0.0796
      3 C          -5.8697   -0.6763   -0.8130 C.3     1  UNL1       -0.0440
      4 C          -3.4589   -0.8206   -0.9580 C.2     1  UNL1       -0.0853
      5 C          -2.0626   -0.5979   -0.3993 C.3     1  UNL1       -0.0343
      6 C          -1.2857    0.2820   -1.2998 C.3     1  UNL1       -0.0467
      7 C           0.1264    0.5646   -0.7452 C.3     1  UNL1       -0.0401
      8 C          -0.0764    1.2384    0.5648 C.3     1  UNL1       -0.0621
      9 C           0.8858   -0.6823   -0.7687 C.3     1  UNL1       -0.0308
     10 C           2.2607   -0.8265   -0.3559 C.2     1  UNL1       -0.0611
     11 C           3.2503   -0.1438    0.0744 C.2     1  UNL1        0.1473
     12 P           4.8453   -1.0344    0.4332 P.3     1  UNL1        0.3657
     13 O           5.8662   -0.4434   -0.5015 O.2     1  UNL1       -0.2532
     14 O           5.2046   -0.6499    2.0280 O.3     1  UNL1       -0.3205
     15 O           4.6300   -2.6739    0.2397 O.3     1  UNL1       -0.3205
     16 P           3.3470    1.5838    0.3887 P.3     1  UNL1        0.3657
     17 O           2.7721    2.4164   -0.7104 O.2     1  UNL1       -0.2532
     18 O           2.7127    1.9796    1.9146 O.3     1  UNL1       -0.3205
     19 O           5.0175    2.0661    0.5251 O.3     1  UNL1       -0.3205
     20 H          -3.8721   -0.5583    1.7383 H       1  UNL1        0.0274
     21 H          -5.3613    0.4299    1.4994 H       1  UNL1        0.0274
     22 H          -3.7898    1.1234    0.9785 H       1  UNL1        0.0274
     23 H          -6.6540   -0.6375   -0.0333 H       1  UNL1        0.0274
     24 H          -6.0594    0.1395   -1.5626 H       1  UNL1        0.0274
     25 H          -5.8710   -1.6483   -1.3515 H       1  UNL1        0.0274
     26 H          -3.5228   -1.2769   -1.9192 H       1  UNL1        0.0571
     27 H          -2.1812   -0.2800    0.6282 H       1  UNL1        0.0307
     28 H          -1.5878   -1.6106   -0.3689 H       1  UNL1        0.0307
     29 H          -1.7380    1.2984   -1.4211 H       1  UNL1        0.0271
     30 H          -1.1130   -0.1732   -2.2978 H       1  UNL1        0.0271
     31 H           0.6043    1.2816   -1.4610 H       1  UNL1        0.0301
     32 H          -1.1673    1.3785    0.7552 H       1  UNL1        0.0233
     33 H           0.3577    2.2831    0.5611 H       1  UNL1        0.0233
     34 H           0.3520    0.7182    1.4211 H       1  UNL1        0.0233
     35 H           0.2897   -1.4659   -0.1747 H       1  UNL1        0.0310
     36 H           0.8238   -1.1234   -1.8318 H       1  UNL1        0.0310
     37 H           2.5911   -1.9686   -0.4477 H       1  UNL1        0.0583
     38 H           6.1542   -0.8144    2.2448 H       1  UNL1        0.2201
     39 H           4.7896   -2.8976   -0.7195 H       1  UNL1        0.2201
     40 H           2.3776    2.8967    1.9546 H       1  UNL1        0.2201
     41 H           5.3045    1.5959    1.3656 H       1  UNL1        0.2201
@<TRIPOS>BOND
     1     1     2    1
     2     2     3    1
     3     2     4    2
     4     4     5    1
     5     5     6    1
     6     6     7    1
     7     7     8    1
     8     7     9    1
     9     9    10    1
    10    10    11    2
    11    11    12    1
    12    12    13    2
    13    12    14    1
    14    12    15    1
    15    11    16    1
    16    16    17    2
    17    16    18    1
    18    16    19    1
    19     1    20    1
    20     1    21    1
    21     1    22    1
    22     3    23    1
    23     3    24    1
    24     3    25    1
    25     4    26    1
    26     5    27    1
    27     5    28    1
    28     6    29    1
    29     6    30    1
    30     7    31    1
    31     8    32    1
    32     8    33    1
    33     8    34    1
    34     9    35    1
    35     9    36    1
    36    10    37    1
    37    14    38    1
    38    15    39    1
    39    18    40    1
    40    19    41    1
