@<TRIPOS>MOLECULE
*****
 74 76 0 0 0
SMALL
GASTEIGER

@<TRIPOS>ATOM
      1 C          -2.7501   -0.2349   -4.7618 C.3     1  UNL1       -0.0626
      2 C          -2.3438   -0.3395   -3.2797 C.3     1  UNL1       -0.0446
      3 C          -0.8879   -0.6665   -3.2851 C.3     1  UNL1       -0.0626
      4 C          -2.7379    0.9397   -2.6439 C.3     1  UNL1       -0.0236
      5 C          -2.4650    1.1027   -1.1999 C.3     1  UNL1        0.1011
      6 N          -3.0879    0.1446   -0.3474 N.am    1  UNL1       -0.2879
      7 C          -4.0128    0.5077    0.6705 C.2     1  UNL1        0.3029
      8 O          -4.2423    1.7592    0.7615 O.2     1  UNL1       -0.2526
      9 N          -4.6550   -0.4072    1.5396 N.am    1  UNL1       -0.2813
     10 C          -5.5901    0.1217    2.5436 C.3     1  UNL1        0.0396
     11 C          -6.2026   -1.0233    3.3152 C.3     1  UNL1        0.0635
     12 O          -5.2646   -1.8855    3.8306 O.3     1  UNL1       -0.3767
     13 C          -4.3978   -2.4300    2.9227 C.3     1  UNL1        0.0635
     14 C          -4.4758   -1.8330    1.5339 C.3     1  UNL1        0.0396
     15 C          -0.9925    1.2568   -0.9850 C.2     1  UNL1        0.2339
     16 O          -0.4635    2.1220   -1.7279 O.2     1  UNL1       -0.2738
     17 N          -0.2749    0.5126   -0.0492 N.am    1  UNL1       -0.3075
     18 C           1.1357    0.6643    0.1679 C.3     1  UNL1        0.0433
     19 C           1.9731    0.0828   -0.9132 C.2     1  UNL1       -0.0460
     20 C           2.6683   -1.0191   -0.7959 C.2     1  UNL1        0.0552
     21 S           2.6780   -1.9386    0.6887 S.O2    1  UNL1        0.0182
     22 O           3.3419   -1.1726    1.8007 O.2     1  UNL1       -0.1649
     23 O           1.2362   -2.2284    1.0563 O.2     1  UNL1       -0.1649
     24 C           3.5081   -3.4510    0.5149 C.ar    1  UNL1        0.0929
     25 C           4.8627   -3.4873    0.7801 C.ar    1  UNL1       -0.0365
     26 C           5.5889   -4.6720    0.6573 C.ar    1  UNL1       -0.0599
     27 C           4.9538   -5.8464    0.2620 C.ar    1  UNL1       -0.0616
     28 C           3.6076   -5.8092   -0.0010 C.ar    1  UNL1       -0.0599
     29 C           2.9111   -4.6171    0.1295 C.ar    1  UNL1       -0.0365
     30 C           1.5460    2.1308    0.3211 C.3     1  UNL1       -0.0269
     31 C           3.0501    2.2195    0.5665 C.3     1  UNL1       -0.0257
     32 C           3.3701    3.6629    0.7140 C.ar    1  UNL1       -0.0473
     33 C           3.3359    4.2738    1.9515 C.ar    1  UNL1       -0.0586
     34 C           3.6244    5.6056    2.1370 C.ar    1  UNL1       -0.0615
     35 C           3.9649    6.3833    1.0561 C.ar    1  UNL1       -0.0617
     36 C           4.0086    5.8053   -0.1932 C.ar    1  UNL1       -0.0615
     37 C           3.7143    4.4650   -0.3525 C.ar    1  UNL1       -0.0586
     38 H          -2.8074   -1.2589   -5.2085 H       1  UNL1        0.0232
     39 H          -3.6407    0.3693   -4.9018 H       1  UNL1        0.0232
     40 H          -1.8990    0.2713   -5.2765 H       1  UNL1        0.0232
     41 H          -2.9748   -1.1492   -2.8731 H       1  UNL1        0.0296
     42 H          -0.7400   -1.4488   -4.0991 H       1  UNL1        0.0232
     43 H          -0.4744   -1.0242   -2.3412 H       1  UNL1        0.0232
     44 H          -0.2627    0.1799   -3.6324 H       1  UNL1        0.0232
     45 H          -2.2509    1.7601   -3.2523 H       1  UNL1        0.0290
     46 H          -3.8376    1.0813   -2.8711 H       1  UNL1        0.0290
     47 H          -2.8737    2.1188   -0.9063 H       1  UNL1        0.0595
     48 H          -2.8998   -0.9003   -0.4208 H       1  UNL1        0.1510
     49 H          -6.4289    0.5753    1.9455 H       1  UNL1        0.0488
     50 H          -5.1320    0.8793    3.1824 H       1  UNL1        0.0488
     51 H          -6.9592   -1.5601    2.7156 H       1  UNL1        0.0575
     52 H          -6.7631   -0.5964    4.1846 H       1  UNL1        0.0575
     53 H          -4.5315   -3.5408    2.7880 H       1  UNL1        0.0575
     54 H          -3.3576   -2.2741    3.2839 H       1  UNL1        0.0575
     55 H          -5.4016   -2.2712    1.0569 H       1  UNL1        0.0488
     56 H          -3.5708   -2.1583    0.9865 H       1  UNL1        0.0488
     57 H          -0.8521   -0.1959    0.5110 H       1  UNL1        0.1493
     58 H           1.3617    0.1761    1.1622 H       1  UNL1        0.0543
     59 H           1.9810    0.6477   -1.8569 H       1  UNL1        0.0603
     60 H           3.2543   -1.3800   -1.6303 H       1  UNL1        0.0821
     61 H           5.4180   -2.5984    1.0953 H       1  UNL1        0.0637
     62 H           6.6311   -4.6877    0.8643 H       1  UNL1        0.0618
     63 H           5.5503   -6.7578    0.1747 H       1  UNL1        0.0618
     64 H           3.0982   -6.7320   -0.3139 H       1  UNL1        0.0618
     65 H           1.8474   -4.6040   -0.0823 H       1  UNL1        0.0637
     66 H           1.0658    2.6144    1.1934 H       1  UNL1        0.0289
     67 H           1.3931    2.6532   -0.6403 H       1  UNL1        0.0289
     68 H           3.3813    1.5994    1.3974 H       1  UNL1        0.0314
     69 H           3.5458    1.8562   -0.3625 H       1  UNL1        0.0314
     70 H           3.0626    3.6401    2.8040 H       1  UNL1        0.0620
     71 H           3.5860    6.0431    3.1181 H       1  UNL1        0.0618
     72 H           4.2002    7.4516    1.1812 H       1  UNL1        0.0618
     73 H           4.2815    6.4591   -1.0102 H       1  UNL1        0.0618
     74 H           3.7641    4.0632   -1.3511 H       1  UNL1        0.0620
@<TRIPOS>BOND
     1     1     2    1
     2     2     3    1
     3     2     4    1
     4     4     5    1
     5     5     6    1
     6     6     7   am
     7     7     8    2
     8     7     9   am
     9     9    10    1
    10    10    11    1
    11    11    12    1
    12    12    13    1
    13    13    14    1
    14     5    15    1
    15    15    16    2
    16    15    17   am
    17    17    18    1
    18    18    19    1
    19    19    20    2
    20    20    21    1
    21    21    22    2
    22    21    23    2
    23    21    24    1
    24    24    25   ar
    25    25    26   ar
    26    26    27   ar
    27    27    28   ar
    28    28    29   ar
    29    18    30    1
    30    30    31    1
    31    31    32    1
    32    32    33   ar
    33    33    34   ar
    34    34    35   ar
    35    35    36   ar
    36    36    37   ar
    37    14     9    1
    38    29    24   ar
    39    37    32   ar
    40     1    38    1
    41     1    39    1
    42     1    40    1
    43     2    41    1
    44     3    42    1
    45     3    43    1
    46     3    44    1
    47     4    45    1
    48     4    46    1
    49     5    47    1
    50     6    48    1
    51    10    49    1
    52    10    50    1
    53    11    51    1
    54    11    52    1
    55    13    53    1
    56    13    54    1
    57    14    55    1
    58    14    56    1
    59    17    57    1
    60    18    58    1
    61    19    59    1
    62    20    60    1
    63    25    61    1
    64    26    62    1
    65    27    63    1
    66    28    64    1
    67    29    65    1
    68    30    66    1
    69    30    67    1
    70    31    68    1
    71    31    69    1
    72    33    70    1
    73    34    71    1
    74    35    72    1
    75    36    73    1
    76    37    74    1
