
     RDKit          3D

 65 68  0  0  0  0  0  0  0  0999 V2000
   -2.1525    4.2675    1.6093 C   0  0  0  0  0  0  0  0  0  0  0  0
   -2.9190    3.7358    0.4256 C   0  0  0  0  0  0  0  0  0  0  0  0
   -2.3694    2.3981    0.0526 C   0  0  0  0  0  0  0  0  0  0  0  0
   -1.3453    1.7142    0.6430 N   0  0  0  0  0  0  0  0  0  0  0  0
   -1.2038    0.5733   -0.0191 N   0  0  0  0  0  0  0  0  0  0  0  0
   -0.2699   -0.5334    0.1761 C   0  0  0  0  0  0  0  0  0  0  0  0
    1.0098   -0.3087   -0.6419 C   0  0  0  0  0  0  0  0  0  0  0  0
    1.9595   -1.4577   -0.4288 C   0  0  0  0  0  0  0  0  0  0  0  0
    2.3298   -1.5947    0.9488 N   0  0  0  0  0  0  0  0  0  0  0  0
    3.2309   -2.6832    1.1596 C   0  0  0  0  0  0  0  0  0  0  0  0
    4.5579   -2.5341    0.4635 C   0  0  0  0  0  0  0  0  0  0  0  0
    4.9742   -1.1445    0.4270 N   0  0  0  0  0  0  0  0  0  0  0  0
    4.1567    0.0139    0.7147 C   0  0  0  0  0  0  0  0  0  0  0  0
    2.9093   -0.3931    1.4573 C   0  0  0  0  0  0  0  0  0  0  0  0
    6.3390   -0.9028    0.0675 C   0  0  0  0  0  0  0  0  0  0  0  0
    6.8771    0.3638   -0.0111 C   0  0  0  0  0  0  0  0  0  0  0  0
    8.1808    0.6370   -0.3520 C   0  0  0  0  0  0  0  0  0  0  0  0
    8.8214    2.2728   -0.4387 Cl  0  0  0  0  0  0  0  0  0  0  0  0
    9.0212   -0.3952   -0.6370 C   0  0  0  0  0  0  0  0  0  0  0  0
    8.5487   -1.6689   -0.5767 C   0  0  0  0  0  0  0  0  0  0  0  0
    7.2356   -1.9049   -0.2311 C   0  0  0  0  0  0  0  0  0  0  0  0
   -2.1162    0.5027   -1.0283 C   0  0  0  0  0  0  0  0  0  0  0  0
   -2.3461   -0.3590   -1.8821 O   0  0  0  0  0  0  0  0  0  0  0  0
   -2.8397    1.6566   -0.9685 N   0  0  0  0  0  0  0  0  0  0  0  0
   -3.9464    2.0459   -1.8549 C   0  0  0  0  0  0  0  0  0  0  0  0
   -5.2665    1.5629   -1.2972 C   0  0  0  0  0  0  0  0  0  0  0  0
   -5.3076    0.1752   -1.1604 O   0  0  0  0  0  0  0  0  0  0  0  0
   -6.4586   -0.4171   -0.6592 C   0  0  0  0  0  0  0  0  0  0  0  0
   -7.6340    0.1647   -0.2506 C   0  0  0  0  0  0  0  0  0  0  0  0
   -8.6436   -0.6407    0.2139 C   0  0  0  0  0  0  0  0  0  0  0  0
   -8.5516   -2.0053    0.2967 C   0  0  0  0  0  0  0  0  0  0  0  0
   -7.3589   -2.6059   -0.1170 C   0  0  0  0  0  0  0  0  0  0  0  0
   -6.3274   -1.8024   -0.5899 C   0  0  0  0  0  0  0  0  0  0  0  0
   -1.6868    3.4466    2.2082 H   0  0  0  0  0  0  0  0  0  0  0  0
   -1.3148    4.9322    1.2985 H   0  0  0  0  0  0  0  0  0  0  0  0
   -2.7955    4.8545    2.2864 H   0  0  0  0  0  0  0  0  0  0  0  0
   -4.0086    3.6971    0.6270 H   0  0  0  0  0  0  0  0  0  0  0  0
   -2.6777    4.3955   -0.4385 H   0  0  0  0  0  0  0  0  0  0  0  0
   -0.7131   -1.4978   -0.0638 H   0  0  0  0  0  0  0  0  0  0  0  0
    0.0199   -0.5371    1.2276 H   0  0  0  0  0  0  0  0  0  0  0  0
    1.4287    0.6832   -0.4653 H   0  0  0  0  0  0  0  0  0  0  0  0
    0.7176   -0.3353   -1.7166 H   0  0  0  0  0  0  0  0  0  0  0  0
    1.3989   -2.3724   -0.7664 H   0  0  0  0  0  0  0  0  0  0  0  0
    2.7990   -1.3443   -1.1346 H   0  0  0  0  0  0  0  0  0  0  0  0
    3.4452   -2.7288    2.2597 H   0  0  0  0  0  0  0  0  0  0  0  0
    2.8037   -3.6724    0.9069 H   0  0  0  0  0  0  0  0  0  0  0  0
    5.2715   -3.1781    1.0158 H   0  0  0  0  0  0  0  0  0  0  0  0
    4.4764   -2.9497   -0.5666 H   0  0  0  0  0  0  0  0  0  0  0  0
    4.6982    0.7171    1.4093 H   0  0  0  0  0  0  0  0  0  0  0  0
    3.9614    0.6142   -0.1905 H   0  0  0  0  0  0  0  0  0  0  0  0
    2.2164    0.4728    1.4564 H   0  0  0  0  0  0  0  0  0  0  0  0
    3.1801   -0.5289    2.5352 H   0  0  0  0  0  0  0  0  0  0  0  0
    6.2619    1.2272    0.2033 H   0  0  0  0  0  0  0  0  0  0  0  0
   10.0672   -0.2673   -0.9155 H   0  0  0  0  0  0  0  0  0  0  0  0
    9.2022   -2.5078   -0.8002 H   0  0  0  0  0  0  0  0  0  0  0  0
    6.8967   -2.9405   -0.1944 H   0  0  0  0  0  0  0  0  0  0  0  0
   -4.0014    3.1363   -1.9431 H   0  0  0  0  0  0  0  0  0  0  0  0
   -3.8554    1.6177   -2.8588 H   0  0  0  0  0  0  0  0  0  0  0  0
   -6.0223    1.8548   -2.0605 H   0  0  0  0  0  0  0  0  0  0  0  0
   -5.5617    2.1111   -0.3767 H   0  0  0  0  0  0  0  0  0  0  0  0
   -7.6415    1.2244   -0.3398 H   0  0  0  0  0  0  0  0  0  0  0  0
   -9.5610   -0.1563    0.5302 H   0  0  0  0  0  0  0  0  0  0  0  0
   -9.3542   -2.6371    0.6652 H   0  0  0  0  0  0  0  0  0  0  0  0
   -7.2887   -3.6880   -0.0503 H   0  0  0  0  0  0  0  0  0  0  0  0
   -5.4575   -2.3755   -0.8799 H   0  0  0  0  0  0  0  0  0  0  0  0
  1  2  1  0
  2  3  1  0
  3  4  2  0
  4  5  1  0
  5  6  1  0
  6  7  1  0
  7  8  1  0
  8  9  1  0
  9 10  1  0
 10 11  1  0
 11 12  1  0
 12 13  1  0
 13 14  1  0
 12 15  1  0
 15 16  2  0
 16 17  1  0
 17 18  1  0
 17 19  2  0
 19 20  1  0
 20 21  2  0
  5 22  1  0
 22 23  2  0
 22 24  1  0
 24 25  1  0
 25 26  1  0
 26 27  1  0
 27 28  1  0
 28 29  2  0
 29 30  1  0
 30 31  2  0
 31 32  1  0
 32 33  2  0
 24  3  1  0
 33 28  1  0
 14  9  1  0
 21 15  1  0
  1 34  1  0
  1 35  1  0
  1 36  1  0
  2 37  1  0
  2 38  1  0
  6 39  1  0
  6 40  1  0
  7 41  1  0
  7 42  1  0
  8 43  1  0
  8 44  1  0
 10 45  1  0
 10 46  1  0
 11 47  1  0
 11 48  1  0
 13 49  1  0
 13 50  1  0
 14 51  1  0
 14 52  1  0
 16 53  1  0
 19 54  1  0
 20 55  1  0
 21 56  1  0
 25 57  1  0
 25 58  1  0
 26 59  1  0
 26 60  1  0
 29 61  1  0
 30 62  1  0
 31 63  1  0
 32 64  1  0
 33 65  1  0
M  END
$$$$
