@<TRIPOS>MOLECULE
*****
 29 29 0 0 0
SMALL
GASTEIGER

@<TRIPOS>ATOM
      1 C          -2.0322   -0.4677    1.0961 C.3     1  UNL1       -0.0533
      2 C          -1.8584    0.0056   -0.3325 C.3     1  UNL1        0.0417
      3 C          -2.9592   -0.5980   -1.1720 C.3     1  UNL1        0.0015
      4 S          -4.6030   -0.1215   -0.6116 S.3     1  UNL1       -0.1775
      5 C          -0.5600   -0.3723   -0.9073 C.2     1  UNL1        0.2198
      6 O          -0.4818   -1.1057   -1.9459 O.2     1  UNL1       -0.2753
      7 N           0.6384    0.0656   -0.3261 N.am    1  UNL1       -0.2878
      8 C           0.6850    0.9060    0.8600 C.3     1  UNL1        0.0156
      9 C           1.8431    1.8154    0.5465 C.3     1  UNL1       -0.0349
     10 C           2.7429    1.0302   -0.3738 C.3     1  UNL1       -0.0225
     11 C           2.0043   -0.2147   -0.7653 C.3     1  UNL1        0.1228
     12 C           2.5335   -1.3934    0.0103 C.2     1  UNL1        0.3255
     13 O           3.6841   -1.8254   -0.1869 O.2     1  UNL1       -0.2489
     14 O           1.7353   -2.0129    0.9595 O.3     1  UNL1       -0.4793
     15 H          -1.1419   -1.0136    1.4714 H       1  UNL1        0.0237
     16 H          -2.1820    0.3819    1.8040 H       1  UNL1        0.0237
     17 H          -2.8786   -1.2037    1.1756 H       1  UNL1        0.0237
     18 H          -2.0052    1.1231   -0.3928 H       1  UNL1        0.0399
     19 H          -2.9042   -1.7162   -1.1410 H       1  UNL1        0.0381
     20 H          -2.8613   -0.3223   -2.2378 H       1  UNL1        0.0381
     21 H          -4.5406    1.2384   -0.1967 H       1  UNL1        0.1017
     22 H          -0.2309    1.5121    0.9809 H       1  UNL1        0.0465
     23 H           0.8598    0.2797    1.7556 H       1  UNL1        0.0465
     24 H           1.4339    2.7197    0.0563 H       1  UNL1        0.0281
     25 H           2.3397    2.0996    1.4888 H       1  UNL1        0.0281
     26 H           3.7031    0.8262    0.1208 H       1  UNL1        0.0289
     27 H           2.9677    1.6519   -1.2675 H       1  UNL1        0.0289
     28 H           2.0357   -0.3888   -1.8488 H       1  UNL1        0.0616
     29 H           2.0328   -2.8995    1.3799 H       1  UNL1        0.2951
@<TRIPOS>BOND
     1     1     2    1
     2     2     3    1
     3     3     4    1
     4     2     5    1
     5     5     6    2
     6     5     7   am
     7     7     8    1
     8     8     9    1
     9     9    10    1
    10    10    11    1
    11    11    12    1
    12    12    13    2
    13    12    14    1
    14    11     7    1
    15     1    15    1
    16     1    16    1
    17     1    17    1
    18     2    18    1
    19     3    19    1
    20     3    20    1
    21     4    21    1
    22     8    22    1
    23     8    23    1
    24     9    24    1
    25     9    25    1
    26    10    26    1
    27    10    27    1
    28    11    28    1
    29    14    29    1
