@<TRIPOS>MOLECULE
*****
 22 23 0 0 0
SMALL
GASTEIGER

@<TRIPOS>ATOM
      1 O          -3.8048    0.8192    1.2671 O.3     1  UNL1       -0.2498
      2 S          -3.2950   -0.0758   -0.0812 S.O2    1  UNL1        0.1096
      3 O          -3.5443    0.6219   -1.3631 O.2     1  UNL1       -0.1421
      4 O          -4.0421   -1.3985   -0.0472 O.2     1  UNL1       -0.1421
      5 C          -1.5729   -0.3324    0.0783 C.ar    1  UNL1        0.1174
      6 C          -0.7068    0.6123   -0.4729 C.ar    1  UNL1       -0.0267
      7 C           0.6663    0.4503   -0.3708 C.ar    1  UNL1       -0.0160
      8 C           1.1305   -0.6748    0.2930 C.ar    1  UNL1       -0.0178
      9 C           2.4992   -0.8255    0.3885 C.ar    1  UNL1       -0.0540
     10 C           3.3525    0.1166   -0.1612 C.ar    1  UNL1       -0.0612
     11 C           2.8521    1.2408   -0.8247 C.ar    1  UNL1       -0.0612
     12 C           1.4867    1.4080   -0.9298 C.ar    1  UNL1       -0.0540
     13 C           0.2606   -1.6124    0.8400 C.ar    1  UNL1       -0.0522
     14 C          -1.0959   -1.4596    0.7434 C.ar    1  UNL1       -0.0338
     15 H          -3.8585    1.7658    0.9724 H       1  UNL1        0.2449
     16 H          -1.0761    1.4825   -0.9863 H       1  UNL1        0.0643
     17 H           2.8774   -1.7121    0.9116 H       1  UNL1        0.0624
     18 H           4.4396   -0.0333   -0.0677 H       1  UNL1        0.0618
     19 H           3.5296    1.9897   -1.2617 H       1  UNL1        0.0618
     20 H           1.0549    2.2753   -1.4419 H       1  UNL1        0.0624
     21 H           0.6283   -2.4861    1.3555 H       1  UNL1        0.0624
     22 H          -1.7815   -2.1719    1.1588 H       1  UNL1        0.0637
@<TRIPOS>BOND
     1     1     2    1
     2     2     3    2
     3     2     4    2
     4     2     5    1
     5     5     6   ar
     6     6     7   ar
     7     7     8   ar
     8     8     9   ar
     9     9    10   ar
    10    10    11   ar
    11    11    12   ar
    12     8    13   ar
    13    13    14   ar
    14    14     5   ar
    15    12     7   ar
    16     1    15    1
    17     6    16    1
    18     9    17    1
    19    10    18    1
    20    11    19    1
    21    12    20    1
    22    13    21    1
    23    14    22    1
