
     RDKit          3D

 44 47  0  0  0  0  0  0  0  0999 V2000
    4.4937   -0.3346    2.7240 N   0  0  0  0  0  0  0  0  0  0  0  0
    5.5745    0.0011    1.8791 C   0  0  0  0  0  0  0  0  0  0  0  0
    6.7319    0.0590    2.3564 O   0  0  0  0  0  0  0  0  0  0  0  0
    5.3765    0.2824    0.4628 C   0  0  0  0  0  0  0  0  0  0  0  0
    6.4444    0.6083   -0.3463 C   0  0  0  0  0  0  0  0  0  0  0  0
    6.2693    0.8779   -1.6941 C   0  0  0  0  0  0  0  0  0  0  0  0
    4.9821    0.8047   -2.1845 C   0  0  0  0  0  0  0  0  0  0  0  0
    3.9091    0.4787   -1.3783 C   0  0  0  0  0  0  0  0  0  0  0  0
    2.5442    0.3343   -1.5919 C   0  0  0  0  0  0  0  0  0  0  0  0
    1.9276   -0.0022   -0.4451 N   0  0  0  0  0  0  0  0  0  0  0  0
    0.5162   -0.2434   -0.2448 C   0  0  0  0  0  0  0  0  0  0  0  0
   -0.0098   -1.4806   -0.4430 C   0  0  0  0  0  0  0  0  0  0  0  0
   -1.3563   -1.6982   -0.2491 C   0  0  0  0  0  0  0  0  0  0  0  0
   -2.2328   -0.6983    0.1485 C   0  0  0  0  0  0  0  0  0  0  0  0
   -3.6447   -1.0361    0.3387 C   0  0  2  0  0  0  0  0  0  0  0  0
   -4.4421   -0.8617   -0.9147 C   0  0  0  0  0  0  0  0  0  0  0  0
   -4.8872    0.5668   -1.0439 C   0  0  0  0  0  0  0  0  0  0  0  0
   -5.8145    0.8347    0.1424 C   0  0  0  0  0  0  0  0  0  0  0  0
   -5.0127    0.7869    1.3148 N   0  0  0  0  0  0  0  0  0  0  0  0
   -4.2875   -0.4149    1.5152 C   0  0  0  0  0  0  0  0  0  0  0  0
   -1.6686    0.5406    0.3406 C   0  0  0  0  0  0  0  0  0  0  0  0
   -0.3224    0.7756    0.1507 C   0  0  0  0  0  0  0  0  0  0  0  0
    2.8790   -0.0687    0.4698 N   0  0  0  0  0  0  0  0  0  0  0  0
    4.0862    0.2134   -0.0489 C   0  0  0  0  0  0  0  0  0  0  0  0
    4.4141   -1.3167    3.0497 H   0  0  0  0  0  0  0  0  0  0  0  0
    3.7769    0.3591    3.0322 H   0  0  0  0  0  0  0  0  0  0  0  0
    7.4654    0.6691    0.0302 H   0  0  0  0  0  0  0  0  0  0  0  0
    7.1214    1.1322   -2.3133 H   0  0  0  0  0  0  0  0  0  0  0  0
    4.7856    1.0045   -3.2262 H   0  0  0  0  0  0  0  0  0  0  0  0
    2.0236    0.4662   -2.5303 H   0  0  0  0  0  0  0  0  0  0  0  0
    0.6440   -2.2896   -0.7546 H   0  0  0  0  0  0  0  0  0  0  0  0
   -1.7179   -2.7008   -0.4216 H   0  0  0  0  0  0  0  0  0  0  0  0
   -3.6689   -2.1688    0.5160 H   0  0  0  0  0  0  0  0  0  0  0  0
   -3.9174   -1.2328   -1.8156 H   0  0  0  0  0  0  0  0  0  0  0  0
   -5.3575   -1.4808   -0.8164 H   0  0  0  0  0  0  0  0  0  0  0  0
   -4.0200    1.2457   -0.9469 H   0  0  0  0  0  0  0  0  0  0  0  0
   -5.4355    0.7420   -2.0039 H   0  0  0  0  0  0  0  0  0  0  0  0
   -6.5636    0.0208    0.1298 H   0  0  0  0  0  0  0  0  0  0  0  0
   -6.2759    1.8396    0.0642 H   0  0  0  0  0  0  0  0  0  0  0  0
   -4.5342    1.6738    1.4722 H   0  0  0  0  0  0  0  0  0  0  0  0
   -5.0137   -1.1598    1.9595 H   0  0  0  0  0  0  0  0  0  0  0  0
   -3.5667   -0.2318    2.3512 H   0  0  0  0  0  0  0  0  0  0  0  0
   -2.3087    1.3431    0.6570 H   0  0  0  0  0  0  0  0  0  0  0  0
    0.0930    1.7590    0.3088 H   0  0  0  0  0  0  0  0  0  0  0  0
  1  2  1  0
  2  3  2  0
  2  4  1  0
  4  5  2  0
  5  6  1  0
  6  7  2  0
  7  8  1  0
  8  9  2  0
  9 10  1  0
 10 11  1  0
 11 12  2  0
 12 13  1  0
 13 14  2  0
 14 15  1  0
 15 16  1  0
 16 17  1  0
 17 18  1  0
 18 19  1  0
 19 20  1  0
 14 21  1  0
 21 22  2  0
 10 23  1  0
 23 24  2  0
 24  4  1  0
 24  8  1  0
 22 11  1  0
 20 15  1  0
  1 25  1  0
  1 26  1  0
  5 27  1  0
  6 28  1  0
  7 29  1  0
  9 30  1  0
 12 31  1  0
 13 32  1  0
 15 33  1  1
 16 34  1  0
 16 35  1  0
 17 36  1  0
 17 37  1  0
 18 38  1  0
 18 39  1  0
 19 40  1  0
 20 41  1  0
 20 42  1  0
 21 43  1  0
 22 44  1  0
M  END
$$$$
