@<TRIPOS>MOLECULE
*****
 44 47 0 0 0
SMALL
GASTEIGER

@<TRIPOS>ATOM
      1 N           4.4937   -0.3346    2.7240 N.am    1  UNL1       -0.3253
      2 C           5.5745    0.0011    1.8791 C.2     1  UNL1        0.2437
      3 O           6.7319    0.0590    2.3564 O.2     1  UNL1       -0.2703
      4 C           5.3765    0.2824    0.4628 C.ar    1  UNL1        0.0641
      5 C           6.4444    0.6083   -0.3463 C.ar    1  UNL1       -0.0475
      6 C           6.2693    0.8779   -1.6941 C.ar    1  UNL1       -0.0603
      7 C           4.9821    0.8047   -2.1845 C.ar    1  UNL1       -0.0510
      8 C           3.9091    0.4787   -1.3783 C.ar    1  UNL1        0.0209
      9 C           2.5442    0.3343   -1.5919 C.ar    1  UNL1        0.0390
     10 N           1.9276   -0.0022   -0.4451 N.ar    1  UNL1       -0.2387
     11 C           0.5162   -0.2434   -0.2448 C.ar    1  UNL1        0.0654
     12 C          -0.0098   -1.4806   -0.4430 C.ar    1  UNL1       -0.0360
     13 C          -1.3563   -1.6982   -0.2491 C.ar    1  UNL1       -0.0563
     14 C          -2.2328   -0.6983    0.1485 C.ar    1  UNL1       -0.0429
     15 C          -3.6447   -1.0361    0.3387 C.3     1  UNL1       -0.0033
     16 C          -4.4421   -0.8617   -0.9147 C.3     1  UNL1       -0.0439
     17 C          -4.8872    0.5668   -1.0439 C.3     1  UNL1       -0.0399
     18 C          -5.8145    0.8347    0.1424 C.3     1  UNL1       -0.0041
     19 N          -5.0127    0.7869    1.3148 N.3     1  UNL1       -0.3154
     20 C          -4.2875   -0.4149    1.5152 C.3     1  UNL1        0.0027
     21 C          -1.6686    0.5406    0.3406 C.ar    1  UNL1       -0.0563
     22 C          -0.3224    0.7756    0.1507 C.ar    1  UNL1       -0.0360
     23 N           2.8790   -0.0687    0.4698 N.ar    1  UNL1       -0.1656
     24 C           4.0862    0.2134   -0.0489 C.ar    1  UNL1        0.1052
     25 H           4.4141   -1.3167    3.0497 H       1  UNL1        0.1453
     26 H           3.7769    0.3591    3.0322 H       1  UNL1        0.1453
     27 H           7.4654    0.6691    0.0302 H       1  UNL1        0.0626
     28 H           7.1214    1.1322   -2.3133 H       1  UNL1        0.0618
     29 H           4.7856    1.0045   -3.2262 H       1  UNL1        0.0625
     30 H           2.0236    0.4662   -2.5303 H       1  UNL1        0.0837
     31 H           0.6440   -2.2896   -0.7546 H       1  UNL1        0.0639
     32 H          -1.7179   -2.7008   -0.4216 H       1  UNL1        0.0621
     33 H          -3.6689   -2.1688    0.5160 H       1  UNL1        0.0361
     34 H          -3.9174   -1.2328   -1.8156 H       1  UNL1        0.0272
     35 H          -5.3575   -1.4808   -0.8164 H       1  UNL1        0.0272
     36 H          -4.0200    1.2457   -0.9469 H       1  UNL1        0.0278
     37 H          -5.4355    0.7420   -2.0039 H       1  UNL1        0.0278
     38 H          -6.5636    0.0208    0.1298 H       1  UNL1        0.0424
     39 H          -6.2759    1.8396    0.0642 H       1  UNL1        0.0424
     40 H          -4.5342    1.6738    1.4722 H       1  UNL1        0.1220
     41 H          -5.0137   -1.1598    1.9595 H       1  UNL1        0.0430
     42 H          -3.5667   -0.2318    2.3512 H       1  UNL1        0.0430
     43 H          -2.3087    1.3431    0.6570 H       1  UNL1        0.0621
     44 H           0.0930    1.7590    0.3088 H       1  UNL1        0.0639
@<TRIPOS>BOND
     1     1     2   am
     2     2     3    2
     3     2     4    1
     4     4     5   ar
     5     5     6   ar
     6     6     7   ar
     7     7     8   ar
     8     8     9   ar
     9     9    10   ar
    10    10    11    1
    11    11    12   ar
    12    12    13   ar
    13    13    14   ar
    14    14    15    1
    15    15    16    1
    16    16    17    1
    17    17    18    1
    18    18    19    1
    19    19    20    1
    20    14    21   ar
    21    21    22   ar
    22    10    23   ar
    23    23    24   ar
    24    24     4   ar
    25    24     8   ar
    26    22    11   ar
    27    20    15    1
    28     1    25    1
    29     1    26    1
    30     5    27    1
    31     6    28    1
    32     7    29    1
    33     9    30    1
    34    12    31    1
    35    13    32    1
    36    15    33    1
    37    16    34    1
    38    16    35    1
    39    17    36    1
    40    17    37    1
    41    18    38    1
    42    18    39    1
    43    19    40    1
    44    20    41    1
    45    20    42    1
    46    21    43    1
    47    22    44    1
