@<TRIPOS>MOLECULE
*****
 75 78 0 0 0
SMALL
GASTEIGER

@<TRIPOS>ATOM
      1 C           5.3823    1.7613   -1.7516 C.3     1  UNL1        0.0515
      2 C           5.1011    2.1753   -0.3272 C.3     1  UNL1       -0.0184
      3 C           5.3472    3.6486   -0.3441 C.3     1  UNL1        0.0512
      4 O           5.2193    4.0758   -1.6637 O.3     1  UNL1       -0.3509
      5 C           5.6625    3.0402   -2.4713 C.3     1  UNL1        0.1656
      6 O           4.8666    3.0378   -3.6208 O.3     1  UNL1       -0.3473
      7 C           3.6521    2.5817   -3.1024 C.3     1  UNL1        0.0881
      8 C           4.1187    1.2713   -2.4368 C.3     1  UNL1        0.1354
      9 O           3.1329    0.8985   -1.5000 O.3     1  UNL1       -0.4443
     10 C           2.4783   -0.3099   -1.6532 C.2     1  UNL1        0.4009
     11 O           2.8023   -1.0300   -2.6371 O.2     1  UNL1       -0.2265
     12 N           1.4648   -0.6755   -0.6836 N.am    1  UNL1       -0.2754
     13 C           0.6695   -1.9151   -0.6965 C.3     1  UNL1        0.0573
     14 C           1.0172   -2.7195    0.4860 C.3     1  UNL1       -0.0066
     15 C           0.3102   -4.0125    0.6311 C.ar    1  UNL1       -0.0455
     16 C           0.8393   -5.1399   -0.0161 C.ar    1  UNL1       -0.0585
     17 C           0.3078   -6.4169    0.0280 C.ar    1  UNL1       -0.0615
     18 C          -0.8288   -6.6143    0.7604 C.ar    1  UNL1       -0.0617
     19 C          -1.3777   -5.5470    1.4065 C.ar    1  UNL1       -0.0615
     20 C          -0.8413   -4.2938    1.3527 C.ar    1  UNL1       -0.0585
     21 C          -0.7429   -1.6391   -1.0109 C.3     1  UNL1        0.0882
     22 O          -0.6848   -1.0300   -2.3137 O.3     1  UNL1       -0.3886
     23 C          -1.5664   -0.8067   -0.1129 C.3     1  UNL1        0.0483
     24 N          -1.1808    0.4928    0.2063 N.3     1  UNL1       -0.1738
     25 C          -1.1730    1.5189   -0.7358 C.3     1  UNL1        0.0229
     26 C          -2.4566    2.1909   -1.0876 C.3     1  UNL1       -0.0323
     27 C          -2.0843    3.2522   -2.1377 C.3     1  UNL1       -0.0615
     28 C          -3.4798    1.3237   -1.7474 C.3     1  UNL1       -0.0615
     29 S          -0.9271    0.9061    1.8203 S.O2    1  UNL1        0.0609
     30 O           0.1996    0.1767    2.4657 O.2     1  UNL1       -0.1528
     31 O          -0.5611    2.3730    1.8838 O.2     1  UNL1       -0.1528
     32 C          -2.3992    0.7210    2.7466 C.ar    1  UNL1        0.1056
     33 C          -3.2887    1.8002    2.8383 C.ar    1  UNL1       -0.0336
     34 C          -4.4741    1.7511    3.5464 C.ar    1  UNL1       -0.0392
     35 C          -4.7724    0.5486    4.1939 C.ar    1  UNL1        0.0247
     36 N          -6.0063    0.5661    4.9038 N.pl3   1  UNL1       -0.3580
     37 C          -3.9191   -0.5394    4.1267 C.ar    1  UNL1       -0.0392
     38 C          -2.7292   -0.4702    3.4073 C.ar    1  UNL1       -0.0336
     39 H           6.2295    1.0745   -1.8535 H       1  UNL1        0.0387
     40 H           5.9277    1.7030    0.2876 H       1  UNL1        0.0293
     41 H           4.1018    1.9102    0.0418 H       1  UNL1        0.0293
     42 H           4.5272    4.1442    0.2369 H       1  UNL1        0.0561
     43 H           6.3036    3.9673    0.1176 H       1  UNL1        0.0561
     44 H           6.7012    3.1455   -2.7970 H       1  UNL1        0.0913
     45 H           2.9050    2.3659   -3.8845 H       1  UNL1        0.0598
     46 H           3.2665    3.2387   -2.2892 H       1  UNL1        0.0598
     47 H           4.3055    0.5581   -3.2390 H       1  UNL1        0.0762
     48 H           1.3160    0.0197    0.0618 H       1  UNL1        0.1524
     49 H           1.0428   -2.5372   -1.5972 H       1  UNL1        0.0528
     50 H           2.1122   -2.9992    0.3708 H       1  UNL1        0.0332
     51 H           0.9999   -2.1920    1.4630 H       1  UNL1        0.0332
     52 H           1.7486   -4.9908   -0.6050 H       1  UNL1        0.0620
     53 H           0.8208   -7.2006   -0.5234 H       1  UNL1        0.0618
     54 H          -1.2586   -7.6050    0.8071 H       1  UNL1        0.0618
     55 H          -2.2895   -5.6387    2.0115 H       1  UNL1        0.0618
     56 H          -1.2774   -3.4552    1.8717 H       1  UNL1        0.0620
     57 H          -1.2366   -2.6434   -1.1956 H       1  UNL1        0.0625
     58 H          -0.3185   -1.6749   -2.9641 H       1  UNL1        0.2099
     59 H          -1.6830   -1.3785    0.8501 H       1  UNL1        0.0470
     60 H          -2.6354   -0.8548   -0.5284 H       1  UNL1        0.0470
     61 H          -0.7309    1.1777   -1.6913 H       1  UNL1        0.0446
     62 H          -0.4835    2.3234   -0.3790 H       1  UNL1        0.0446
     63 H          -2.9541    2.7476   -0.2778 H       1  UNL1        0.0308
     64 H          -2.8766    3.3890   -2.8868 H       1  UNL1        0.0233
     65 H          -1.1588    3.0008   -2.6803 H       1  UNL1        0.0233
     66 H          -1.8810    4.2355   -1.6512 H       1  UNL1        0.0233
     67 H          -4.2248    0.8895   -1.0309 H       1  UNL1        0.0233
     68 H          -3.0577    0.5848   -2.4379 H       1  UNL1        0.0233
     69 H          -4.1136    2.0005   -2.3954 H       1  UNL1        0.0233
     70 H          -3.0211    2.7105    2.3225 H       1  UNL1        0.0638
     71 H          -5.0967    2.6266    3.5626 H       1  UNL1        0.0636
     72 H          -6.7803    0.6537    4.2134 H       1  UNL1        0.1423
     73 H          -6.0604    0.4994    5.9466 H       1  UNL1        0.1423
     74 H          -4.2003   -1.4473    4.6500 H       1  UNL1        0.0636
     75 H          -2.0477   -1.3005    3.3392 H       1  UNL1        0.0638
@<TRIPOS>BOND
     1     1     2    1
     2     2     3    1
     3     3     4    1
     4     4     5    1
     5     5     6    1
     6     6     7    1
     7     7     8    1
     8     8     9    1
     9     9    10    1
    10    10    11    2
    11    10    12   am
    12    12    13    1
    13    13    14    1
    14    14    15    1
    15    15    16   ar
    16    16    17   ar
    17    17    18   ar
    18    18    19   ar
    19    19    20   ar
    20    13    21    1
    21    21    22    1
    22    21    23    1
    23    23    24    1
    24    24    25    1
    25    25    26    1
    26    26    27    1
    27    26    28    1
    28    24    29    1
    29    29    30    2
    30    29    31    2
    31    29    32    1
    32    32    33   ar
    33    33    34   ar
    34    34    35   ar
    35    35    36    1
    36    35    37   ar
    37    37    38   ar
    38     5     1    1
    39    20    15   ar
    40    38    32   ar
    41     8     1    1
    42     1    39    1
    43     2    40    1
    44     2    41    1
    45     3    42    1
    46     3    43    1
    47     5    44    1
    48     7    45    1
    49     7    46    1
    50     8    47    1
    51    12    48    1
    52    13    49    1
    53    14    50    1
    54    14    51    1
    55    16    52    1
    56    17    53    1
    57    18    54    1
    58    19    55    1
    59    20    56    1
    60    21    57    1
    61    22    58    1
    62    23    59    1
    63    23    60    1
    64    25    61    1
    65    25    62    1
    66    26    63    1
    67    27    64    1
    68    27    65    1
    69    27    66    1
    70    28    67    1
    71    28    68    1
    72    28    69    1
    73    33    70    1
    74    34    71    1
    75    36    72    1
    76    36    73    1
    77    37    74    1
    78    38    75    1
