
     RDKit          3D

 63 65  0  0  0  0  0  0  0  0999 V2000
    4.0467   -0.1826    2.0906 C   0  0  0  0  0  0  0  0  0  0  0  0
    4.5913   -0.6265    0.9680 C   0  0  0  0  0  0  0  0  0  0  0  0
    4.5187    0.3660   -0.1213 C   0  0  0  0  0  0  0  0  0  0  0  0
    3.4524    1.1109   -0.2381 C   0  0  0  0  0  0  0  0  0  0  0  0
    2.2912    1.0523    0.6281 C   0  0  0  0  0  0  0  0  0  0  0  0
    1.2687    1.8738    0.4101 C   0  0  0  0  0  0  0  0  0  0  0  0
    1.1650    2.8953   -0.6641 C   0  0  0  0  0  0  0  0  0  0  0  0
   -0.0102    2.6307   -1.5812 C   0  0  0  0  0  0  0  0  0  0  0  0
   -1.2894    2.4289   -0.8516 C   0  0  0  0  0  0  0  0  0  0  0  0
   -1.1158    1.4560    0.2887 C   0  0  2  0  0  0  0  0  0  0  0  0
   -0.8238    0.0762   -0.2147 C   0  0  0  0  0  0  0  0  0  0  0  0
   -2.2562    1.5206    1.2714 C   0  0  2  0  0  0  0  0  0  0  0  0
   -1.6387    1.0430    2.5477 C   0  0  0  0  0  0  0  0  0  0  0  0
   -0.1179    1.0153    2.3239 C   0  0  0  0  0  0  0  0  0  0  0  0
    0.0028    1.9720    1.1676 C   0  0  1  0  0  0  0  0  0  0  0  0
   -3.3225    0.6435    0.7967 C   0  0  0  0  0  0  0  0  0  0  0  0
   -4.2248   -0.0840    0.4141 C   0  0  0  0  0  0  0  0  0  0  0  0
   -5.2593   -0.9339   -0.0504 C   0  0  0  0  0  0  0  0  0  0  0  0
   -6.1560   -1.6464   -0.4568 C   0  0  0  0  0  0  0  0  0  0  0  0
   -7.2589   -2.4902   -0.9498 C   0  0  0  0  0  0  0  0  0  0  0  0
   -6.8471   -3.1743   -2.2229 C   0  0  0  0  0  0  0  0  0  0  0  0
   -7.6229   -3.4209    0.0192 O   0  0  0  0  0  0  0  0  0  0  0  0
   -8.4776   -1.6208   -1.2765 C   0  0  0  0  0  0  0  0  0  0  0  0
    5.7001    0.4600   -1.0627 C   0  0  0  0  0  0  0  0  0  0  0  0
    6.7868   -0.3528   -0.3797 C   0  0  1  0  0  0  0  0  0  0  0  0
    7.1064    0.1919    0.8694 O   0  0  0  0  0  0  0  0  0  0  0  0
    6.4120   -1.8069   -0.2057 C   0  0  0  0  0  0  0  0  0  0  0  0
    5.2389   -1.9711    0.7403 C   0  0  2  0  0  0  0  0  0  0  0  0
    4.2621   -2.7775    0.1600 O   0  0  0  0  0  0  0  0  0  0  0  0
    3.6885   -0.1040    3.1124 H   0  0  0  0  0  0  0  0  0  0  0  0
    3.9156   -0.6075    3.0661 H   0  0  0  0  0  0  0  0  0  0  0  0
    3.5161    1.7844   -1.0528 H   0  0  0  0  0  0  0  0  0  0  0  0
    1.9510    0.4922    1.4770 H   0  0  0  0  0  0  0  0  0  0  0  0
    2.0504    3.0238   -1.2774 H   0  0  0  0  0  0  0  0  0  0  0  0
    0.9460    3.8997   -0.1977 H   0  0  0  0  0  0  0  0  0  0  0  0
    0.2025    1.8136   -2.2692 H   0  0  0  0  0  0  0  0  0  0  0  0
   -0.1249    3.5774   -2.1831 H   0  0  0  0  0  0  0  0  0  0  0  0
   -1.9998    1.9465   -1.5769 H   0  0  0  0  0  0  0  0  0  0  0  0
   -1.7665    3.3315   -0.4598 H   0  0  0  0  0  0  0  0  0  0  0  0
   -1.2293   -0.0920   -1.2544 H   0  0  0  0  0  0  0  0  0  0  0  0
    0.2851   -0.0965   -0.3231 H   0  0  0  0  0  0  0  0  0  0  0  0
   -1.3080   -0.6962    0.4150 H   0  0  0  0  0  0  0  0  0  0  0  0
   -2.5581    2.5663    1.3559 H   0  0  0  0  0  0  0  0  0  0  0  0
   -2.0300    0.0570    2.8522 H   0  0  0  0  0  0  0  0  0  0  0  0
   -1.8911    1.7715    3.3594 H   0  0  0  0  0  0  0  0  0  0  0  0
    0.0978   -0.0333    2.0679 H   0  0  0  0  0  0  0  0  0  0  0  0
    0.3470    1.3995    3.2293 H   0  0  0  0  0  0  0  0  0  0  0  0
   -0.2238    2.9753    1.5371 H   0  0  0  0  0  0  0  0  0  0  0  0
   -6.3547   -2.3890   -2.8485 H   0  0  0  0  0  0  0  0  0  0  0  0
   -6.1549   -4.0259   -2.0595 H   0  0  0  0  0  0  0  0  0  0  0  0
   -7.7744   -3.4533   -2.7732 H   0  0  0  0  0  0  0  0  0  0  0  0
   -8.1399   -2.9981    0.7395 H   0  0  0  0  0  0  0  0  0  0  0  0
   -8.5966   -0.7925   -0.5475 H   0  0  0  0  0  0  0  0  0  0  0  0
   -9.3558   -2.3165   -1.2899 H   0  0  0  0  0  0  0  0  0  0  0  0
   -8.2720   -1.1871   -2.2703 H   0  0  0  0  0  0  0  0  0  0  0  0
    6.0648    1.4804   -1.1734 H   0  0  0  0  0  0  0  0  0  0  0  0
    5.4649   -0.0790   -1.9952 H   0  0  0  0  0  0  0  0  0  0  0  0
    7.7102   -0.3165   -0.9898 H   0  0  0  0  0  0  0  0  0  0  0  0
    7.5942   -0.5039    1.3913 H   0  0  0  0  0  0  0  0  0  0  0  0
    7.3157   -2.3100    0.1959 H   0  0  0  0  0  0  0  0  0  0  0  0
    6.1867   -2.2580   -1.1825 H   0  0  0  0  0  0  0  0  0  0  0  0
    5.5090   -2.4209    1.7101 H   0  0  0  0  0  0  0  0  0  0  0  0
    4.5124   -3.0873   -0.7404 H   0  0  0  0  0  0  0  0  0  0  0  0
  1  2  2  0
  2  3  1  0
  3  4  2  0
  4  5  1  0
  5  6  2  0
  6  7  1  0
  7  8  1  0
  8  9  1  0
  9 10  1  0
 10 11  1  6
 10 12  1  0
 12 13  1  0
 13 14  1  0
 14 15  1  0
 12 16  1  0
 16 17  3  0
 17 18  1  0
 18 19  3  0
 19 20  1  0
 20 21  1  0
 20 22  1  0
 20 23  1  0
  3 24  1  0
 24 25  1  0
 25 26  1  0
 25 27  1  0
 27 28  1  0
 28 29  1  0
 28  2  1  0
 15  6  1  0
 15 10  1  0
  1 30  1  0
  1 31  1  0
  4 32  1  0
  5 33  1  0
  7 34  1  0
  7 35  1  0
  8 36  1  0
  8 37  1  0
  9 38  1  0
  9 39  1  0
 11 40  1  0
 11 41  1  0
 11 42  1  0
 12 43  1  1
 13 44  1  0
 13 45  1  0
 14 46  1  0
 14 47  1  0
 15 48  1  1
 21 49  1  0
 21 50  1  0
 21 51  1  0
 22 52  1  0
 23 53  1  0
 23 54  1  0
 23 55  1  0
 24 56  1  0
 24 57  1  0
 25 58  1  6
 26 59  1  0
 27 60  1  0
 27 61  1  0
 28 62  1  1
 29 63  1  0
M  END
$$$$
