@<TRIPOS>MOLECULE
*****
 63 65 0 0 0
SMALL
GASTEIGER

@<TRIPOS>ATOM
      1 C           4.0467   -0.1826    2.0906 C.2     1  UNL1       -0.0928
      2 C           4.5913   -0.6265    0.9680 C.2     1  UNL1       -0.0229
      3 C           4.5187    0.3660   -0.1213 C.2     1  UNL1       -0.0399
      4 C           3.4524    1.1109   -0.2381 C.2     1  UNL1       -0.0582
      5 C           2.2912    1.0523    0.6281 C.2     1  UNL1       -0.0620
      6 C           1.2687    1.8738    0.4101 C.2     1  UNL1       -0.0659
      7 C           1.1650    2.8953   -0.6641 C.3     1  UNL1       -0.0312
      8 C          -0.0102    2.6307   -1.5812 C.3     1  UNL1       -0.0488
      9 C          -1.2894    2.4289   -0.8516 C.3     1  UNL1       -0.0457
     10 C          -1.1158    1.4560    0.2887 C.3     1  UNL1       -0.0119
     11 C          -0.8238    0.0762   -0.2147 C.3     1  UNL1       -0.0579
     12 C          -2.2562    1.5206    1.2714 C.3     1  UNL1        0.0275
     13 C          -1.6387    1.0430    2.5477 C.3     1  UNL1       -0.0382
     14 C          -0.1179    1.0153    2.3239 C.3     1  UNL1       -0.0448
     15 C           0.0028    1.9720    1.1676 C.3     1  UNL1       -0.0131
     16 C          -3.3225    0.6435    0.7967 C.1     1  UNL1       -0.0845
     17 C          -4.2248   -0.0840    0.4141 C.1     1  UNL1       -0.0145
     18 C          -5.2593   -0.9339   -0.0504 C.1     1  UNL1       -0.0120
     19 C          -6.1560   -1.6464   -0.4568 C.1     1  UNL1       -0.0544
     20 C          -7.2589   -2.4902   -0.9498 C.3     1  UNL1        0.1218
     21 C          -6.8471   -3.1743   -2.2229 C.3     1  UNL1       -0.0249
     22 O          -7.6229   -3.4209    0.0192 O.3     1  UNL1       -0.3771
     23 C          -8.4776   -1.6208   -1.2765 C.3     1  UNL1       -0.0249
     24 C           5.7001    0.4600   -1.0627 C.3     1  UNL1       -0.0011
     25 C           6.7868   -0.3528   -0.3797 C.3     1  UNL1        0.0619
     26 O           7.1064    0.1919    0.8694 O.3     1  UNL1       -0.3914
     27 C           6.4120   -1.8069   -0.2057 C.3     1  UNL1        0.0037
     28 C           5.2389   -1.9711    0.7403 C.3     1  UNL1        0.0822
     29 O           4.2621   -2.7775    0.1600 O.3     1  UNL1       -0.3871
     30 H           3.6885   -0.1040    3.1124 H       1  UNL1        0.0538
     31 H           3.9156   -0.6075    3.0661 H       1  UNL1        0.0538
     32 H           3.5161    1.7844   -1.0528 H       1  UNL1        0.0620
     33 H           1.9510    0.4922    1.4770 H       1  UNL1        0.0617
     34 H           2.0504    3.0238   -1.2774 H       1  UNL1        0.0310
     35 H           0.9460    3.8997   -0.1977 H       1  UNL1        0.0310
     36 H           0.2025    1.8136   -2.2692 H       1  UNL1        0.0268
     37 H          -0.1249    3.5774   -2.1831 H       1  UNL1        0.0268
     38 H          -1.9998    1.9465   -1.5769 H       1  UNL1        0.0271
     39 H          -1.7665    3.3315   -0.4598 H       1  UNL1        0.0271
     40 H          -1.2293   -0.0920   -1.2544 H       1  UNL1        0.0236
     41 H           0.2851   -0.0965   -0.3231 H       1  UNL1        0.0236
     42 H          -1.3080   -0.6962    0.4150 H       1  UNL1        0.0236
     43 H          -2.5581    2.5663    1.3559 H       1  UNL1        0.0439
     44 H          -2.0300    0.0570    2.8522 H       1  UNL1        0.0277
     45 H          -1.8911    1.7715    3.3594 H       1  UNL1        0.0277
     46 H           0.0978   -0.0333    2.0679 H       1  UNL1        0.0272
     47 H           0.3470    1.3995    3.2293 H       1  UNL1        0.0272
     48 H          -0.2238    2.9753    1.5371 H       1  UNL1        0.0351
     49 H          -6.3547   -2.3890   -2.8485 H       1  UNL1        0.0267
     50 H          -6.1549   -4.0259   -2.0595 H       1  UNL1        0.0267
     51 H          -7.7744   -3.4533   -2.7732 H       1  UNL1        0.0267
     52 H          -8.1399   -2.9981    0.7395 H       1  UNL1        0.2114
     53 H          -8.5966   -0.7925   -0.5475 H       1  UNL1        0.0267
     54 H          -9.3558   -2.3165   -1.2899 H       1  UNL1        0.0267
     55 H          -8.2720   -1.1871   -2.2703 H       1  UNL1        0.0267
     56 H           6.0648    1.4804   -1.1734 H       1  UNL1        0.0338
     57 H           5.4649   -0.0790   -1.9952 H       1  UNL1        0.0338
     58 H           7.7102   -0.3165   -0.9898 H       1  UNL1        0.0597
     59 H           7.5942   -0.5039    1.3913 H       1  UNL1        0.2098
     60 H           7.3157   -2.3100    0.1959 H       1  UNL1        0.0318
     61 H           6.1867   -2.2580   -1.1825 H       1  UNL1        0.0318
     62 H           5.5090   -2.4209    1.7101 H       1  UNL1        0.0644
     63 H           4.5124   -3.0873   -0.7404 H       1  UNL1        0.2102
@<TRIPOS>BOND
     1     1     2    2
     2     2     3    1
     3     3     4    2
     4     4     5    1
     5     5     6    2
     6     6     7    1
     7     7     8    1
     8     8     9    1
     9     9    10    1
    10    10    11    1
    11    10    12    1
    12    12    13    1
    13    13    14    1
    14    14    15    1
    15    12    16    1
    16    16    17    3
    17    17    18    1
    18    18    19    3
    19    19    20    1
    20    20    21    1
    21    20    22    1
    22    20    23    1
    23     3    24    1
    24    24    25    1
    25    25    26    1
    26    25    27    1
    27    27    28    1
    28    28    29    1
    29    28     2    1
    30    15     6    1
    31    15    10    1
    32     1    30    1
    33     1    31    1
    34     4    32    1
    35     5    33    1
    36     7    34    1
    37     7    35    1
    38     8    36    1
    39     8    37    1
    40     9    38    1
    41     9    39    1
    42    11    40    1
    43    11    41    1
    44    11    42    1
    45    12    43    1
    46    13    44    1
    47    13    45    1
    48    14    46    1
    49    14    47    1
    50    15    48    1
    51    21    49    1
    52    21    50    1
    53    21    51    1
    54    22    52    1
    55    23    53    1
    56    23    54    1
    57    23    55    1
    58    24    56    1
    59    24    57    1
    60    25    58    1
    61    26    59    1
    62    27    60    1
    63    27    61    1
    64    28    62    1
    65    29    63    1
