@<TRIPOS>MOLECULE
*****
 49 52 0 0 0
SMALL
GASTEIGER

@<TRIPOS>ATOM
      1 C          -1.7291   -3.9802   -0.2889 C.3     1  UNL1       -0.0122
      2 N          -1.6981   -2.6279   -0.6833 N.3     1  UNL1       -0.2987
      3 C          -2.7128   -1.8019   -0.0839 C.3     1  UNL1        0.0110
      4 C          -2.2885   -1.9072    1.3848 C.3     1  UNL1       -0.0359
      5 C          -0.7939   -1.7163    1.2118 C.3     1  UNL1       -0.0352
      6 C          -0.4735   -1.9234   -0.2038 C.3     1  UNL1        0.0221
      7 C          -0.3691   -0.7323   -1.1110 C.3     1  UNL1        0.0581
      8 C           0.9428   -0.1842   -1.3823 C.2     1  UNL1        0.2209
      9 O           1.2802   -0.0713   -2.6490 O.2     1  UNL1       -0.2752
     10 N           1.9715    0.2689   -0.5608 N.am    1  UNL1       -0.2968
     11 C           3.1956    0.7836   -1.1454 C.3     1  UNL1        0.0382
     12 C           4.3771    0.0656   -0.5244 C.3     1  UNL1        0.0635
     13 O           4.4305    0.2912    0.8421 O.3     1  UNL1       -0.3767
     14 C           3.3310    0.9122    1.3656 C.3     1  UNL1        0.0635
     15 C           2.0059    0.2969    0.8748 C.3     1  UNL1        0.0382
     16 C          -1.5242    0.2330   -1.0279 C.3     1  UNL1       -0.0019
     17 C          -1.2147    1.5551   -0.4589 C.ar    1  UNL1       -0.0434
     18 C          -1.4475    1.8331    0.8520 C.ar    1  UNL1       -0.0569
     19 C          -1.1624    3.0665    1.4343 C.ar    1  UNL1       -0.0431
     20 C          -0.6233    4.0569    0.6686 C.ar    1  UNL1        0.0410
     21 CL         -0.2706    5.6016    1.4147 Cl      1  UNL1       -0.0835
     22 C          -0.3724    3.8235   -0.6537 C.ar    1  UNL1       -0.0431
     23 C          -0.6591    2.6105   -1.2005 C.ar    1  UNL1       -0.0569
     24 C          -2.7817   -0.4082   -0.5577 C.3     1  UNL1       -0.0297
     25 H          -1.7929   -4.6190   -1.2119 H       1  UNL1        0.0391
     26 H          -2.5406   -4.2872    0.3681 H       1  UNL1        0.0391
     27 H          -0.7397   -4.2488    0.1745 H       1  UNL1        0.0391
     28 H          -3.6850   -2.3036   -0.1611 H       1  UNL1        0.0463
     29 H          -2.7803   -1.0812    1.9184 H       1  UNL1        0.0281
     30 H          -2.5596   -2.8597    1.8314 H       1  UNL1        0.0281
     31 H          -0.4443   -0.7653    1.5858 H       1  UNL1        0.0281
     32 H          -0.3196   -2.4898    1.8934 H       1  UNL1        0.0281
     33 H           0.4054   -2.5614   -0.4030 H       1  UNL1        0.0470
     34 H          -0.6168   -1.2883   -2.1215 H       1  UNL1        0.0416
     35 H           3.2206    0.6493   -2.2409 H       1  UNL1        0.0487
     36 H           3.3366    1.8572   -0.9493 H       1  UNL1        0.0487
     37 H           4.3136   -1.0352   -0.6641 H       1  UNL1        0.0575
     38 H           5.3229    0.3776   -1.0150 H       1  UNL1        0.0575
     39 H           3.2590    1.9964    1.0844 H       1  UNL1        0.0575
     40 H           3.2906    0.8079    2.4696 H       1  UNL1        0.0575
     41 H           1.9355   -0.7525    1.2816 H       1  UNL1        0.0487
     42 H           1.2372    0.9296    1.3428 H       1  UNL1        0.0487
     43 H          -1.7333    0.5001   -2.1291 H       1  UNL1        0.0357
     44 H          -1.8767    1.0899    1.4937 H       1  UNL1        0.0621
     45 H          -1.3724    3.2259    2.4909 H       1  UNL1        0.0632
     46 H           0.0491    4.5980   -1.2529 H       1  UNL1        0.0632
     47 H          -0.4725    2.3843   -2.2574 H       1  UNL1        0.0621
     48 H          -3.2315    0.2081    0.2788 H       1  UNL1        0.0286
     49 H          -3.6186   -0.3779   -1.3245 H       1  UNL1        0.0286
@<TRIPOS>BOND
     1     1     2    1
     2     2     3    1
     3     3     4    1
     4     4     5    1
     5     5     6    1
     6     6     7    1
     7     7     8    1
     8     8     9    2
     9     8    10   am
    10    10    11    1
    11    11    12    1
    12    12    13    1
    13    13    14    1
    14    14    15    1
    15     7    16    1
    16    16    17    1
    17    17    18   ar
    18    18    19   ar
    19    19    20   ar
    20    20    21    1
    21    20    22   ar
    22    22    23   ar
    23    16    24    1
    24     6     2    1
    25    15    10    1
    26    23    17   ar
    27    24     3    1
    28     1    25    1
    29     1    26    1
    30     1    27    1
    31     3    28    1
    32     4    29    1
    33     4    30    1
    34     5    31    1
    35     5    32    1
    36     6    33    1
    37     7    34    1
    38    11    35    1
    39    11    36    1
    40    12    37    1
    41    12    38    1
    42    14    39    1
    43    14    40    1
    44    15    41    1
    45    15    42    1
    46    16    43    1
    47    18    44    1
    48    19    45    1
    49    22    46    1
    50    23    47    1
    51    24    48    1
    52    24    49    1
