
     RDKit          3D

 49 52  0  0  0  0  0  0  0  0999 V2000
   -1.7291   -3.9802   -0.2889 C   0  0  0  0  0  0  0  0  0  0  0  0
   -1.6981   -2.6279   -0.6833 N   0  0  0  0  0  0  0  0  0  0  0  0
   -2.7128   -1.8019   -0.0839 C   0  0  0  0  0  0  0  0  0  0  0  0
   -2.2885   -1.9072    1.3848 C   0  0  0  0  0  0  0  0  0  0  0  0
   -0.7939   -1.7163    1.2118 C   0  0  0  0  0  0  0  0  0  0  0  0
   -0.4735   -1.9234   -0.2038 C   0  0  0  0  0  0  0  0  0  0  0  0
   -0.3691   -0.7323   -1.1110 C   0  0  0  0  0  0  0  0  0  0  0  0
    0.9428   -0.1842   -1.3823 C   0  0  0  0  0  0  0  0  0  0  0  0
    1.2802   -0.0713   -2.6490 O   0  0  0  0  0  0  0  0  0  0  0  0
    1.9715    0.2689   -0.5608 N   0  0  0  0  0  0  0  0  0  0  0  0
    3.1956    0.7836   -1.1454 C   0  0  0  0  0  0  0  0  0  0  0  0
    4.3771    0.0656   -0.5244 C   0  0  0  0  0  0  0  0  0  0  0  0
    4.4305    0.2912    0.8421 O   0  0  0  0  0  0  0  0  0  0  0  0
    3.3310    0.9122    1.3656 C   0  0  0  0  0  0  0  0  0  0  0  0
    2.0059    0.2969    0.8748 C   0  0  0  0  0  0  0  0  0  0  0  0
   -1.5242    0.2330   -1.0279 C   0  0  0  0  0  0  0  0  0  0  0  0
   -1.2147    1.5551   -0.4589 C   0  0  0  0  0  0  0  0  0  0  0  0
   -1.4475    1.8331    0.8520 C   0  0  0  0  0  0  0  0  0  0  0  0
   -1.1624    3.0665    1.4343 C   0  0  0  0  0  0  0  0  0  0  0  0
   -0.6233    4.0569    0.6686 C   0  0  0  0  0  0  0  0  0  0  0  0
   -0.2706    5.6016    1.4147 Cl  0  0  0  0  0  0  0  0  0  0  0  0
   -0.3724    3.8235   -0.6537 C   0  0  0  0  0  0  0  0  0  0  0  0
   -0.6591    2.6105   -1.2005 C   0  0  0  0  0  0  0  0  0  0  0  0
   -2.7817   -0.4082   -0.5577 C   0  0  0  0  0  0  0  0  0  0  0  0
   -1.7929   -4.6190   -1.2119 H   0  0  0  0  0  0  0  0  0  0  0  0
   -2.5406   -4.2872    0.3681 H   0  0  0  0  0  0  0  0  0  0  0  0
   -0.7397   -4.2488    0.1745 H   0  0  0  0  0  0  0  0  0  0  0  0
   -3.6850   -2.3036   -0.1611 H   0  0  0  0  0  0  0  0  0  0  0  0
   -2.7803   -1.0812    1.9184 H   0  0  0  0  0  0  0  0  0  0  0  0
   -2.5596   -2.8597    1.8314 H   0  0  0  0  0  0  0  0  0  0  0  0
   -0.4443   -0.7653    1.5858 H   0  0  0  0  0  0  0  0  0  0  0  0
   -0.3196   -2.4898    1.8934 H   0  0  0  0  0  0  0  0  0  0  0  0
    0.4054   -2.5614   -0.4030 H   0  0  0  0  0  0  0  0  0  0  0  0
   -0.6168   -1.2883   -2.1215 H   0  0  0  0  0  0  0  0  0  0  0  0
    3.2206    0.6493   -2.2409 H   0  0  0  0  0  0  0  0  0  0  0  0
    3.3366    1.8572   -0.9493 H   0  0  0  0  0  0  0  0  0  0  0  0
    4.3136   -1.0352   -0.6641 H   0  0  0  0  0  0  0  0  0  0  0  0
    5.3229    0.3776   -1.0150 H   0  0  0  0  0  0  0  0  0  0  0  0
    3.2590    1.9964    1.0844 H   0  0  0  0  0  0  0  0  0  0  0  0
    3.2906    0.8079    2.4696 H   0  0  0  0  0  0  0  0  0  0  0  0
    1.9355   -0.7525    1.2816 H   0  0  0  0  0  0  0  0  0  0  0  0
    1.2372    0.9296    1.3428 H   0  0  0  0  0  0  0  0  0  0  0  0
   -1.7333    0.5001   -2.1291 H   0  0  0  0  0  0  0  0  0  0  0  0
   -1.8767    1.0899    1.4937 H   0  0  0  0  0  0  0  0  0  0  0  0
   -1.3724    3.2259    2.4909 H   0  0  0  0  0  0  0  0  0  0  0  0
    0.0491    4.5980   -1.2529 H   0  0  0  0  0  0  0  0  0  0  0  0
   -0.4725    2.3843   -2.2574 H   0  0  0  0  0  0  0  0  0  0  0  0
   -3.2315    0.2081    0.2788 H   0  0  0  0  0  0  0  0  0  0  0  0
   -3.6186   -0.3779   -1.3245 H   0  0  0  0  0  0  0  0  0  0  0  0
  1  2  1  0
  2  3  1  0
  3  4  1  0
  4  5  1  0
  5  6  1  0
  6  7  1  0
  7  8  1  0
  8  9  2  0
  8 10  1  0
 10 11  1  0
 11 12  1  0
 12 13  1  0
 13 14  1  0
 14 15  1  0
  7 16  1  0
 16 17  1  0
 17 18  2  0
 18 19  1  0
 19 20  2  0
 20 21  1  0
 20 22  1  0
 22 23  2  0
 16 24  1  0
  6  2  1  0
 15 10  1  0
 23 17  1  0
 24  3  1  0
  1 25  1  0
  1 26  1  0
  1 27  1  0
  3 28  1  0
  4 29  1  0
  4 30  1  0
  5 31  1  0
  5 32  1  0
  6 33  1  0
  7 34  1  0
 11 35  1  0
 11 36  1  0
 12 37  1  0
 12 38  1  0
 14 39  1  0
 14 40  1  0
 15 41  1  0
 15 42  1  0
 16 43  1  0
 18 44  1  0
 19 45  1  0
 22 46  1  0
 23 47  1  0
 24 48  1  0
 24 49  1  0
M  END
$$$$
