@<TRIPOS>MOLECULE
*****
 28 29 0 0 0
SMALL
GASTEIGER

@<TRIPOS>ATOM
      1 C          -1.4784   -1.9341   -0.1994 C.3     1  UNL1       -0.0470
      2 C          -1.0659   -0.8216    0.7380 C.3     1  UNL1        0.0353
      3 N          -2.3029   -0.2280    1.2545 N.3     1  UNL1       -0.3086
      4 C          -2.8910    0.7003    0.3116 C.3     1  UNL1        0.0197
      5 C          -1.9299    1.8506    0.1142 C.3     1  UNL1        0.0610
      6 O          -0.6150    1.5178    0.4338 O.3     1  UNL1       -0.3692
      7 C          -0.2891    0.2313    0.0104 C.3     1  UNL1        0.0987
      8 C           1.1662    0.1017    0.0648 C.ar    1  UNL1       -0.0174
      9 C           1.8615   -0.9631    0.5745 C.ar    1  UNL1       -0.0561
     10 C           3.2411   -0.9399    0.5557 C.ar    1  UNL1       -0.0614
     11 C           3.9572    0.1042    0.0482 C.ar    1  UNL1       -0.0617
     12 C           3.2559    1.1805   -0.4669 C.ar    1  UNL1       -0.0614
     13 C           1.8697    1.1764   -0.4573 C.ar    1  UNL1       -0.0561
     14 H          -2.4820   -1.7343   -0.6403 H       1  UNL1        0.0246
     15 H          -1.5071   -2.9059    0.3030 H       1  UNL1        0.0246
     16 H          -0.7629   -1.9932   -1.0363 H       1  UNL1        0.0246
     17 H          -0.5642   -1.2508    1.6219 H       1  UNL1        0.0486
     18 H          -2.9669   -0.9686    1.5410 H       1  UNL1        0.1224
     19 H          -3.1124    0.2224   -0.6655 H       1  UNL1        0.0447
     20 H          -3.8165    1.0693    0.7699 H       1  UNL1        0.0447
     21 H          -2.2282    2.6776    0.7925 H       1  UNL1        0.0573
     22 H          -2.0466    2.2554   -0.9148 H       1  UNL1        0.0573
     23 H          -0.5860    0.1711   -1.0607 H       1  UNL1        0.0662
     24 H           1.2943   -1.7924    0.9775 H       1  UNL1        0.0621
     25 H           3.7151   -1.8142    0.9747 H       1  UNL1        0.0618
     26 H           5.0367    0.0179    0.0839 H       1  UNL1        0.0618
     27 H           3.8533    2.0040   -0.8674 H       1  UNL1        0.0618
     28 H           1.3937    2.0656   -0.8835 H       1  UNL1        0.0621
@<TRIPOS>BOND
     1     1     2    1
     2     2     3    1
     3     3     4    1
     4     4     5    1
     5     5     6    1
     6     6     7    1
     7     7     8    1
     8     8     9   ar
     9     9    10   ar
    10    10    11   ar
    11    11    12   ar
    12    12    13   ar
    13     7     2    1
    14    13     8   ar
    15     1    14    1
    16     1    15    1
    17     1    16    1
    18     2    17    1
    19     3    18    1
    20     4    19    1
    21     4    20    1
    22     5    21    1
    23     5    22    1
    24     7    23    1
    25     9    24    1
    26    10    25    1
    27    11    26    1
    28    12    27    1
    29    13    28    1
