
     RDKit          3D

 28 29  0  0  0  0  0  0  0  0999 V2000
   -1.4784   -1.9341   -0.1994 C   0  0  0  0  0  0  0  0  0  0  0  0
   -1.0659   -0.8216    0.7380 C   0  0  0  0  0  0  0  0  0  0  0  0
   -2.3029   -0.2280    1.2545 N   0  0  0  0  0  0  0  0  0  0  0  0
   -2.8910    0.7003    0.3116 C   0  0  0  0  0  0  0  0  0  0  0  0
   -1.9299    1.8506    0.1142 C   0  0  0  0  0  0  0  0  0  0  0  0
   -0.6150    1.5178    0.4338 O   0  0  0  0  0  0  0  0  0  0  0  0
   -0.2891    0.2313    0.0104 C   0  0  0  0  0  0  0  0  0  0  0  0
    1.1662    0.1017    0.0648 C   0  0  0  0  0  0  0  0  0  0  0  0
    1.8615   -0.9631    0.5745 C   0  0  0  0  0  0  0  0  0  0  0  0
    3.2411   -0.9399    0.5557 C   0  0  0  0  0  0  0  0  0  0  0  0
    3.9572    0.1042    0.0482 C   0  0  0  0  0  0  0  0  0  0  0  0
    3.2559    1.1805   -0.4669 C   0  0  0  0  0  0  0  0  0  0  0  0
    1.8697    1.1764   -0.4573 C   0  0  0  0  0  0  0  0  0  0  0  0
   -2.4820   -1.7343   -0.6403 H   0  0  0  0  0  0  0  0  0  0  0  0
   -1.5071   -2.9059    0.3030 H   0  0  0  0  0  0  0  0  0  0  0  0
   -0.7629   -1.9932   -1.0363 H   0  0  0  0  0  0  0  0  0  0  0  0
   -0.5642   -1.2508    1.6219 H   0  0  0  0  0  0  0  0  0  0  0  0
   -2.9669   -0.9686    1.5410 H   0  0  0  0  0  0  0  0  0  0  0  0
   -3.1124    0.2224   -0.6655 H   0  0  0  0  0  0  0  0  0  0  0  0
   -3.8165    1.0693    0.7699 H   0  0  0  0  0  0  0  0  0  0  0  0
   -2.2282    2.6776    0.7925 H   0  0  0  0  0  0  0  0  0  0  0  0
   -2.0466    2.2554   -0.9148 H   0  0  0  0  0  0  0  0  0  0  0  0
   -0.5860    0.1711   -1.0607 H   0  0  0  0  0  0  0  0  0  0  0  0
    1.2943   -1.7924    0.9775 H   0  0  0  0  0  0  0  0  0  0  0  0
    3.7151   -1.8142    0.9747 H   0  0  0  0  0  0  0  0  0  0  0  0
    5.0367    0.0179    0.0839 H   0  0  0  0  0  0  0  0  0  0  0  0
    3.8533    2.0040   -0.8674 H   0  0  0  0  0  0  0  0  0  0  0  0
    1.3937    2.0656   -0.8835 H   0  0  0  0  0  0  0  0  0  0  0  0
  1  2  1  0
  2  3  1  0
  3  4  1  0
  4  5  1  0
  5  6  1  0
  6  7  1  0
  7  8  1  0
  8  9  2  0
  9 10  1  0
 10 11  2  0
 11 12  1  0
 12 13  2  0
  7  2  1  0
 13  8  1  0
  1 14  1  0
  1 15  1  0
  1 16  1  0
  2 17  1  0
  3 18  1  0
  4 19  1  0
  4 20  1  0
  5 21  1  0
  5 22  1  0
  7 23  1  0
  9 24  1  0
 10 25  1  0
 11 26  1  0
 12 27  1  0
 13 28  1  0
M  END
$$$$
