@<TRIPOS>MOLECULE
*****
 48 51 0 0 0
SMALL
GASTEIGER

@<TRIPOS>ATOM
      1 C           5.7077   -2.3434   -1.1621 C.3     1  UNL1       -0.0222
      2 C           4.9117   -1.2989   -0.4905 C.ar    1  UNL1        0.0441
      3 C           5.4803   -0.5313    0.4954 C.ar    1  UNL1       -0.0081
      4 CA          4.7438    0.4589    1.1396 C.ar    1  UNL1        0.1527
      5 C           5.3384    1.2763    2.1846 C.2     1  UNL1        0.3555
      6 O           6.5363    1.0622    2.4882 O.2     1  UNL1       -0.2434
      7 OXT         4.6487    2.2586    2.8416 O.3     1  UNL1       -0.4761
      8 N           3.4572    0.6159    0.7423 N.ar    1  UNL1       -0.2077
      9 C           2.8846   -0.1292   -0.2235 C.ar    1  UNL1        0.2188
     10 N           1.5335    0.0831   -0.5956 N.pl3   1  UNL1       -0.2991
     11 C           0.8658   -0.6937   -1.6216 C.3     1  UNL1        0.0180
     12 C          -0.5047   -0.1071   -1.8146 C.3     1  UNL1       -0.0204
     13 C          -1.5298   -0.7391   -0.8945 C.3     1  UNL1       -0.0416
     14 C          -2.5640    0.3503   -0.7926 C.3     1  UNL1       -0.0147
     15 C          -3.4473    0.2191    0.3622 C.ar    1  UNL1       -0.0326
     16 C          -3.0385    0.5984    1.6195 C.ar    1  UNL1       -0.0578
     17 C          -3.8890    0.4512    2.7188 C.ar    1  UNL1       -0.0615
     18 C          -5.1538   -0.0752    2.5747 C.ar    1  UNL1       -0.0612
     19 C          -5.5610   -0.4521    1.3281 C.ar    1  UNL1       -0.0498
     20 C          -4.7148   -0.3067    0.2267 C.ar    1  UNL1        0.0582
     21 C          -5.2587   -0.7372   -1.0866 C.3     1  UNL1        0.4177
     22 F          -6.5567   -1.2368   -0.9312 F       1  UNL1       -0.1659
     23 F          -4.5414   -1.7160   -1.6998 F       1  UNL1       -0.1659
     24 F          -5.3996    0.3805   -1.9122 F       1  UNL1       -0.1659
     25 C          -1.7565    1.6119   -0.7532 C.3     1  UNL1       -0.0416
     26 C          -0.3569    1.2633   -1.2268 C.3     1  UNL1       -0.0204
     27 C           0.5926    1.0569   -0.0672 C.3     1  UNL1        0.0180
     28 N           3.6334   -1.0743   -0.8187 N.ar    1  UNL1       -0.2196
     29 H           6.6198   -1.9439   -1.6436 H       1  UNL1        0.0293
     30 H           5.1000   -2.7783   -2.0075 H       1  UNL1        0.0293
     31 H           5.8940   -3.1633   -0.4673 H       1  UNL1        0.0293
     32 H           6.4956   -0.6573    0.8067 H       1  UNL1        0.0659
     33 HXT         5.1319    3.1252    3.0957 H       1  UNL1        0.2955
     34 H           0.8414   -1.7746   -1.3753 H       1  UNL1        0.0467
     35 H           1.4464   -0.5377   -2.5598 H       1  UNL1        0.0467
     36 H          -0.8121   -0.1165   -2.8711 H       1  UNL1        0.0319
     37 H          -1.0091   -0.8906    0.0809 H       1  UNL1        0.0274
     38 H          -1.8890   -1.6857   -1.3110 H       1  UNL1        0.0274
     39 H          -3.1346    0.3440   -1.7483 H       1  UNL1        0.0349
     40 H          -2.0793    1.0138    1.8482 H       1  UNL1        0.0620
     41 H          -3.5790    0.7465    3.7157 H       1  UNL1        0.0618
     42 H          -5.8202   -0.1954    3.4088 H       1  UNL1        0.0618
     43 H          -6.5695   -0.8715    1.2150 H       1  UNL1        0.0623
     44 H          -1.7725    2.1212    0.2074 H       1  UNL1        0.0274
     45 H          -2.1484    2.3427   -1.5245 H       1  UNL1        0.0274
     46 H           0.0469    2.0017   -1.9388 H       1  UNL1        0.0319
     47 H           1.1151    1.9936    0.2108 H       1  UNL1        0.0467
     48 H           0.0609    0.6801    0.8195 H       1  UNL1        0.0467
@<TRIPOS>BOND
     1     1     2    1
     2     2     3   ar
     3     3     4   ar
     4     4     5    1
     5     5     6    2
     6     5     7    1
     7     4     8   ar
     8     8     9   ar
     9     9    10    1
    10    10    11    1
    11    11    12    1
    12    12    13    1
    13    13    14    1
    14    14    15    1
    15    15    16   ar
    16    16    17   ar
    17    17    18   ar
    18    18    19   ar
    19    19    20   ar
    20    20    21    1
    21    21    22    1
    22    21    23    1
    23    21    24    1
    24    14    25    1
    25    25    26    1
    26    26    27    1
    27     9    28   ar
    28    28     2   ar
    29    27    10    1
    30    26    12    1
    31    20    15   ar
    32     1    29    1
    33     1    30    1
    34     1    31    1
    35     3    32    1
    36     7    33    1
    37    11    34    1
    38    11    35    1
    39    12    36    1
    40    13    37    1
    41    13    38    1
    42    14    39    1
    43    16    40    1
    44    17    41    1
    45    18    42    1
    46    19    43    1
    47    25    44    1
    48    25    45    1
    49    26    46    1
    50    27    47    1
    51    27    48    1
