
     RDKit          3D

 48 51  0  0  0  0  0  0  0  0999 V2000
    5.7077   -2.3434   -1.1621 C   0  0  0  0  0  0  0  0  0  0  0  0
    4.9117   -1.2989   -0.4905 C   0  0  0  0  0  0  0  0  0  0  0  0
    5.4803   -0.5313    0.4954 C   0  0  0  0  0  0  0  0  0  0  0  0
    4.7438    0.4589    1.1396 C   0  0  0  0  0  0  0  0  0  0  0  0
    5.3384    1.2763    2.1846 C   0  0  0  0  0  0  0  0  0  0  0  0
    6.5363    1.0622    2.4882 O   0  0  0  0  0  0  0  0  0  0  0  0
    4.6487    2.2586    2.8416 O   0  0  0  0  0  0  0  0  0  0  0  0
    3.4572    0.6159    0.7423 N   0  0  0  0  0  0  0  0  0  0  0  0
    2.8846   -0.1292   -0.2235 C   0  0  0  0  0  0  0  0  0  0  0  0
    1.5335    0.0831   -0.5956 N   0  0  0  0  0  0  0  0  0  0  0  0
    0.8658   -0.6937   -1.6216 C   0  0  0  0  0  0  0  0  0  0  0  0
   -0.5047   -0.1071   -1.8146 C   0  0  1  0  0  0  0  0  0  0  0  0
   -1.5298   -0.7391   -0.8945 C   0  0  0  0  0  0  0  0  0  0  0  0
   -2.5640    0.3503   -0.7926 C   0  0  1  0  0  0  0  0  0  0  0  0
   -3.4473    0.2191    0.3622 C   0  0  0  0  0  0  0  0  0  0  0  0
   -3.0385    0.5984    1.6195 C   0  0  0  0  0  0  0  0  0  0  0  0
   -3.8890    0.4512    2.7188 C   0  0  0  0  0  0  0  0  0  0  0  0
   -5.1538   -0.0752    2.5747 C   0  0  0  0  0  0  0  0  0  0  0  0
   -5.5610   -0.4521    1.3281 C   0  0  0  0  0  0  0  0  0  0  0  0
   -4.7148   -0.3067    0.2267 C   0  0  0  0  0  0  0  0  0  0  0  0
   -5.2587   -0.7372   -1.0866 C   0  0  0  0  0  0  0  0  0  0  0  0
   -6.5567   -1.2368   -0.9312 F   0  0  0  0  0  0  0  0  0  0  0  0
   -4.5414   -1.7160   -1.6998 F   0  0  0  0  0  0  0  0  0  0  0  0
   -5.3996    0.3805   -1.9122 F   0  0  0  0  0  0  0  0  0  0  0  0
   -1.7565    1.6119   -0.7532 C   0  0  0  0  0  0  0  0  0  0  0  0
   -0.3569    1.2633   -1.2268 C   0  0  1  0  0  0  0  0  0  0  0  0
    0.5926    1.0569   -0.0672 C   0  0  0  0  0  0  0  0  0  0  0  0
    3.6334   -1.0743   -0.8187 N   0  0  0  0  0  0  0  0  0  0  0  0
    6.6198   -1.9439   -1.6436 H   0  0  0  0  0  0  0  0  0  0  0  0
    5.1000   -2.7783   -2.0075 H   0  0  0  0  0  0  0  0  0  0  0  0
    5.8940   -3.1633   -0.4673 H   0  0  0  0  0  0  0  0  0  0  0  0
    6.4956   -0.6573    0.8067 H   0  0  0  0  0  0  0  0  0  0  0  0
    5.1319    3.1252    3.0957 H   0  0  0  0  0  0  0  0  0  0  0  0
    0.8414   -1.7746   -1.3753 H   0  0  0  0  0  0  0  0  0  0  0  0
    1.4464   -0.5377   -2.5598 H   0  0  0  0  0  0  0  0  0  0  0  0
   -0.8121   -0.1165   -2.8711 H   0  0  0  0  0  0  0  0  0  0  0  0
   -1.0091   -0.8906    0.0809 H   0  0  0  0  0  0  0  0  0  0  0  0
   -1.8890   -1.6857   -1.3110 H   0  0  0  0  0  0  0  0  0  0  0  0
   -3.1346    0.3440   -1.7483 H   0  0  0  0  0  0  0  0  0  0  0  0
   -2.0793    1.0138    1.8482 H   0  0  0  0  0  0  0  0  0  0  0  0
   -3.5790    0.7465    3.7157 H   0  0  0  0  0  0  0  0  0  0  0  0
   -5.8202   -0.1954    3.4088 H   0  0  0  0  0  0  0  0  0  0  0  0
   -6.5695   -0.8715    1.2150 H   0  0  0  0  0  0  0  0  0  0  0  0
   -1.7725    2.1212    0.2074 H   0  0  0  0  0  0  0  0  0  0  0  0
   -2.1484    2.3427   -1.5245 H   0  0  0  0  0  0  0  0  0  0  0  0
    0.0469    2.0017   -1.9388 H   0  0  0  0  0  0  0  0  0  0  0  0
    1.1151    1.9936    0.2108 H   0  0  0  0  0  0  0  0  0  0  0  0
    0.0609    0.6801    0.8195 H   0  0  0  0  0  0  0  0  0  0  0  0
  1  2  1  0
  2  3  2  0
  3  4  1  0
  4  5  1  0
  5  6  2  0
  5  7  1  0
  4  8  2  0
  8  9  1  0
  9 10  1  0
 10 11  1  0
 11 12  1  0
 12 13  1  0
 13 14  1  0
 14 15  1  0
 15 16  2  0
 16 17  1  0
 17 18  2  0
 18 19  1  0
 19 20  2  0
 20 21  1  0
 21 22  1  0
 21 23  1  0
 21 24  1  0
 14 25  1  0
 25 26  1  0
 26 27  1  0
  9 28  2  0
 28  2  1  0
 27 10  1  0
 26 12  1  0
 20 15  1  0
  1 29  1  0
  1 30  1  0
  1 31  1  0
  3 32  1  0
  7 33  1  0
 11 34  1  0
 11 35  1  0
 12 36  1  6
 13 37  1  0
 13 38  1  0
 14 39  1  6
 16 40  1  0
 17 41  1  0
 18 42  1  0
 19 43  1  0
 25 44  1  0
 25 45  1  0
 26 46  1  6
 27 47  1  0
 27 48  1  0
M  END
$$$$
