@<TRIPOS>MOLECULE
*****
 19 18 0 0 0
SMALL
GASTEIGER

@<TRIPOS>ATOM
      1 CG1        -1.9347   -0.4731    0.3046 C.3     1  VAL1       -0.0607
      2 CB         -0.7256   -0.0088   -0.4638 C.3     1  VAL1       -0.0211
      3 CG2        -0.6363    1.4855   -0.3643 C.3     1  VAL1       -0.0607
      4 CA          0.5125   -0.7019    0.0405 C.3     1  VAL1        0.1056
      5 N           0.7937   -0.4676    1.4258 N.3     1  VAL1       -0.3182
      6 C           1.6944   -0.2887   -0.7548 C.2     1  VAL1        0.3220
      7 O           2.8551    0.2358   -0.1611 O.3     1  VAL1       -0.4795
      8 OXT         1.7596   -0.3694   -1.9978 O.2     1  VAL1       -0.2492
      9 HG11       -2.3771   -1.3334   -0.2506 H       1  VAL1        0.0233
     10 HG12       -1.7086   -0.7486    1.3551 H       1  VAL1        0.0233
     11 HG13       -2.7063    0.3415    0.2910 H       1  VAL1        0.0233
     12 HB         -0.8457   -0.2771   -1.5260 H       1  VAL1        0.0316
     13 HG21        0.4106    1.8565   -0.4038 H       1  VAL1        0.0233
     14 HG22       -1.1645    1.8836    0.5392 H       1  VAL1        0.0233
     15 HG23       -1.1585    1.9561   -1.2313 H       1  VAL1        0.0233
     16 HA          0.3334   -1.7964   -0.1149 H       1  VAL1        0.0576
     17 H1          1.0730   -1.3112    1.9424 H       1  VAL1        0.1190
     18 H2          0.0689    0.0586    1.9474 H       1  VAL1        0.1190
     19 H           3.7561   -0.0414   -0.5776 H       1  VAL1        0.2951
@<TRIPOS>BOND
     1     1     2    1
     2     2     3    1
     3     2     4    1
     4     4     5    1
     5     4     6    1
     6     6     7    1
     7     6     8    2
     8     1     9    1
     9     1    10    1
    10     1    11    1
    11     2    12    1
    12     3    13    1
    13     3    14    1
    14     3    15    1
    15     4    16    1
    16     5    17    1
    17     5    18    1
    18     7    19    1
