@<TRIPOS>MOLECULE
*****
 60 62 0 0 0
SMALL
GASTEIGER

@<TRIPOS>ATOM
      1 C          -4.6611    0.9748    2.0627 C.3     1  UNL1       -0.0554
      2 C          -4.6209    0.9551    0.5390 C.3     1  UNL1        0.0182
      3 C          -3.4505    1.5750   -0.0733 C.3     1  UNL1       -0.0183
      4 C          -2.0785    1.0556    0.2086 C.3     1  UNL1        0.0821
      5 C          -1.9333   -0.3849   -0.2488 C.3     1  UNL1       -0.0396
      6 C          -1.1615    1.9033   -0.6314 C.3     1  UNL1        0.1053
      7 S           0.5360    1.6382   -0.5232 S.O2    1  UNL1        0.0340
      8 O           1.1273    2.0349    0.8118 O.2     1  UNL1       -0.1580
      9 O           1.1954    2.6193   -1.5026 O.2     1  UNL1       -0.1580
     10 N           1.1317    0.0953   -0.9426 N.3     1  UNL1       -0.1781
     11 C           1.6698   -0.5800    0.2287 C.3     1  UNL1        0.0359
     12 C           2.8876   -1.4365   -0.1192 C.3     1  UNL1        0.0266
     13 N           3.9245   -0.5324   -0.5667 N.pl3   1  UNL1       -0.3273
     14 C           5.2927   -0.6555   -0.2645 C.ar    1  UNL1        0.0299
     15 C           6.1952    0.3253   -0.6101 C.ar    1  UNL1       -0.0379
     16 C           7.5320    0.1978   -0.3176 C.ar    1  UNL1       -0.0247
     17 C           7.9838   -0.9140    0.3252 C.ar    1  UNL1        0.1235
     18 F           9.3030   -1.1048    0.6470 F       1  UNL1       -0.2055
     19 C           7.1079   -1.9163    0.6864 C.ar    1  UNL1       -0.0247
     20 C           5.7509   -1.7727    0.3822 C.ar    1  UNL1       -0.0379
     21 C           3.4694    0.5776   -1.4012 C.3     1  UNL1        0.0266
     22 C           2.1226    0.1148   -1.9765 C.3     1  UNL1        0.0359
     23 N          -1.7051    1.1390    1.6161 N.am    1  UNL1       -0.1788
     24 O          -1.3885    0.0017    2.2902 O.3     1  UNL1       -0.2921
     25 C          -1.6545    2.3662    2.3073 C.2     1  UNL1        0.2256
     26 O          -1.9197    3.4766    1.7883 O.2     1  UNL1       -0.2772
     27 C          -5.0730   -0.3486    0.0567 C.ar    1  UNL1        0.1320
     28 N          -5.9151   -0.5067   -0.9878 N.ar    1  UNL1       -0.2372
     29 C          -6.3442   -1.7083   -1.3996 C.ar    1  UNL1        0.0663
     30 C          -5.9296   -2.8535   -0.7539 C.ar    1  UNL1        0.1594
     31 F          -6.3587   -4.0947   -1.1614 F       1  UNL1       -0.2023
     32 C          -5.0730   -2.7043    0.3098 C.ar    1  UNL1        0.0663
     33 N          -4.6777   -1.4731    0.6758 N.ar    1  UNL1       -0.2372
     34 H          -5.7457    0.7388    2.2990 H       1  UNL1        0.0236
     35 H          -4.1067    0.1533    2.5123 H       1  UNL1        0.0236
     36 H          -4.5065    1.9713    2.4855 H       1  UNL1        0.0236
     37 H          -5.4850    1.6617    0.2507 H       1  UNL1        0.0377
     38 H          -3.4432    2.6619    0.2159 H       1  UNL1        0.0294
     39 H          -3.5873    1.5892   -1.1728 H       1  UNL1        0.0294
     40 H          -0.9985   -0.5709   -0.8036 H       1  UNL1        0.0252
     41 H          -1.9253   -1.0780    0.6124 H       1  UNL1        0.0252
     42 H          -2.7306   -0.6313   -1.0091 H       1  UNL1        0.0252
     43 H          -1.3740    2.9923   -0.5020 H       1  UNL1        0.0538
     44 H          -1.4728    1.7161   -1.7084 H       1  UNL1        0.0538
     45 H           0.8863   -1.2332    0.6514 H       1  UNL1        0.0459
     46 H           2.0161    0.1908    0.9338 H       1  UNL1        0.0459
     47 H           3.2039   -1.9039    0.8348 H       1  UNL1        0.0477
     48 H           2.6365   -2.2148   -0.8523 H       1  UNL1        0.0477
     49 H           5.8232    1.2238   -1.1286 H       1  UNL1        0.0637
     50 H           8.2149    0.9734   -0.5963 H       1  UNL1        0.0647
     51 H           7.4522   -2.8137    1.2019 H       1  UNL1        0.0647
     52 H           5.0931   -2.5700    0.6736 H       1  UNL1        0.0637
     53 H           3.2907    1.4293   -0.7461 H       1  UNL1        0.0477
     54 H           4.1772    0.8097   -2.2236 H       1  UNL1        0.0477
     55 H           2.2710   -0.8965   -2.3826 H       1  UNL1        0.0459
     56 H           1.8276    0.7657   -2.8218 H       1  UNL1        0.0459
     57 H          -1.6613    0.0455    3.2417 H       1  UNL1        0.2417
     58 H          -1.3732    2.3772    3.3471 H       1  UNL1        0.1274
     59 H          -7.0234   -1.8430   -2.2413 H       1  UNL1        0.0860
     60 H          -4.7442   -3.6090    0.8215 H       1  UNL1        0.0860
@<TRIPOS>BOND
     1     1     2    1
     2     2     3    1
     3     3     4    1
     4     4     5    1
     5     4     6    1
     6     6     7    1
     7     7     8    2
     8     7     9    2
     9     7    10    1
    10    10    11    1
    11    11    12    1
    12    12    13    1
    13    13    14    1
    14    14    15   ar
    15    15    16   ar
    16    16    17   ar
    17    17    18    1
    18    17    19   ar
    19    19    20   ar
    20    13    21    1
    21    21    22    1
    22     4    23    1
    23    23    24    1
    24    23    25   am
    25    25    26    2
    26     2    27    1
    27    27    28   ar
    28    28    29   ar
    29    29    30   ar
    30    30    31    1
    31    30    32   ar
    32    32    33   ar
    33    22    10    1
    34    33    27   ar
    35    20    14   ar
    36     1    34    1
    37     1    35    1
    38     1    36    1
    39     2    37    1
    40     3    38    1
    41     3    39    1
    42     5    40    1
    43     5    41    1
    44     5    42    1
    45     6    43    1
    46     6    44    1
    47    11    45    1
    48    11    46    1
    49    12    47    1
    50    12    48    1
    51    15    49    1
    52    16    50    1
    53    19    51    1
    54    20    52    1
    55    21    53    1
    56    21    54    1
    57    22    55    1
    58    22    56    1
    59    24    57    1
    60    25    58    1
    61    29    59    1
    62    32    60    1
