
     RDKit          3D

 48 52  0  0  0  0  0  0  0  0999 V2000
    5.7167   -2.2532    1.1703 C   0  0  0  0  0  0  0  0  0  0  0  0
    4.8257   -1.3357    1.8745 C   0  0  0  0  0  0  0  0  0  0  0  0
    5.0837   -1.1325    3.1216 O   0  0  0  0  0  0  0  0  0  0  0  0
    3.7303   -0.6817    1.2953 N   0  0  0  0  0  0  0  0  0  0  0  0
    2.8787    0.0645    2.2744 C   0  0  0  0  0  0  0  0  0  0  0  0
    3.3300   -0.6273   -0.0453 C   0  0  0  0  0  0  0  0  0  0  0  0
    4.1346   -0.9506   -1.0974 C   0  0  0  0  0  0  0  0  0  0  0  0
    3.6875   -0.9235   -2.4320 C   0  0  0  0  0  0  0  0  0  0  0  0
    2.3901   -0.5583   -2.7154 C   0  0  0  0  0  0  0  0  0  0  0  0
    1.6664   -0.4345   -3.8747 C   0  0  0  0  0  0  0  0  0  0  0  0
    0.3983   -0.0274   -3.5241 C   0  0  0  0  0  0  0  0  0  0  0  0
    0.3719    0.0874   -2.1857 N   0  0  0  0  0  0  0  0  0  0  0  0
   -0.8038    0.4952   -1.4856 C   0  0  0  0  0  0  0  0  0  0  0  0
   -1.2876   -0.2443   -0.4329 C   0  0  0  0  0  0  0  0  0  0  0  0
   -2.4375    0.0980    0.2994 C   0  0  0  0  0  0  0  0  0  0  0  0
   -2.8384   -0.7315    1.3426 N   0  0  0  0  0  0  0  0  0  0  0  0
   -3.8518   -0.7712    2.3010 C   0  0  0  0  0  0  0  0  0  0  0  0
   -5.2923   -0.7815    1.7599 C   0  0  0  0  0  0  0  0  0  0  0  0
   -4.8397    0.1745    2.7719 C   0  0  0  0  0  0  0  0  0  0  0  0
   -3.0519    1.2056   -0.0888 N   0  0  0  0  0  0  0  0  0  0  0  0
   -4.1342    1.8366    0.3357 N   0  0  0  0  0  0  0  0  0  0  0  0
   -4.4009    2.9374   -0.3578 C   0  0  0  0  0  0  0  0  0  0  0  0
   -3.4310    3.0632   -1.3219 C   0  0  0  0  0  0  0  0  0  0  0  0
   -3.3488    4.1108   -2.2787 C   0  0  0  0  0  0  0  0  0  0  0  0
   -3.2800    4.9756   -3.0420 N   0  0  0  0  0  0  0  0  0  0  0  0
   -2.6002    1.9791   -1.1417 C   0  0  0  0  0  0  0  0  0  0  0  0
   -1.4938    1.5996   -1.8038 N   0  0  0  0  0  0  0  0  0  0  0  0
    1.5640   -0.2267   -1.6558 C   0  0  0  0  0  0  0  0  0  0  0  0
    1.9982   -0.2533   -0.3549 C   0  0  0  0  0  0  0  0  0  0  0  0
    6.1965   -2.9130    1.9829 H   0  0  0  0  0  0  0  0  0  0  0  0
    6.5837   -1.7857    0.6938 H   0  0  0  0  0  0  0  0  0  0  0  0
    5.2010   -2.9522    0.4542 H   0  0  0  0  0  0  0  0  0  0  0  0
    2.1039   -0.6049    2.6817 H   0  0  0  0  0  0  0  0  0  0  0  0
    2.4879    0.9856    1.7981 H   0  0  0  0  0  0  0  0  0  0  0  0
    3.5114    0.4022    3.1068 H   0  0  0  0  0  0  0  0  0  0  0  0
    5.1697   -1.2224   -0.9934 H   0  0  0  0  0  0  0  0  0  0  0  0
    4.3714   -1.1913   -3.2248 H   0  0  0  0  0  0  0  0  0  0  0  0
    2.0786   -0.6353   -4.8486 H   0  0  0  0  0  0  0  0  0  0  0  0
   -0.3842    0.1496   -4.2386 H   0  0  0  0  0  0  0  0  0  0  0  0
   -0.7192   -1.1401   -0.1819 H   0  0  0  0  0  0  0  0  0  0  0  0
   -2.1630   -1.6333    1.4503 H   0  0  0  0  0  0  0  0  0  0  0  0
   -3.6607   -1.6356    3.0712 H   0  0  0  0  0  0  0  0  0  0  0  0
   -5.5026   -0.4502    0.7504 H   0  0  0  0  0  0  0  0  0  0  0  0
   -5.8575   -1.7046    2.0364 H   0  0  0  0  0  0  0  0  0  0  0  0
   -4.9120    1.2403    2.6370 H   0  0  0  0  0  0  0  0  0  0  0  0
   -5.2740   -0.0776    3.8218 H   0  0  0  0  0  0  0  0  0  0  0  0
   -5.2518    3.5807   -0.1484 H   0  0  0  0  0  0  0  0  0  0  0  0
    1.3367    0.0070    0.4429 H   0  0  0  0  0  0  0  0  0  0  0  0
  1  2  1  0
  2  3  2  0
  2  4  1  0
  4  5  1  0
  4  6  1  0
  6  7  2  0
  7  8  1  0
  8  9  2  0
  9 10  1  0
 10 11  2  0
 11 12  1  0
 12 13  1  0
 13 14  1  0
 14 15  2  0
 15 16  1  0
 16 17  1  0
 17 18  1  0
 18 19  1  0
 15 20  1  0
 20 21  1  0
 21 22  2  0
 22 23  1  0
 23 24  1  0
 24 25  3  0
 23 26  2  0
 26 27  1  0
 12 28  1  0
 28 29  2  0
 29  6  1  0
 28  9  1  0
 27 13  2  0
 19 17  1  0
 26 20  1  0
  1 30  1  0
  1 31  1  0
  1 32  1  0
  5 33  1  0
  5 34  1  0
  5 35  1  0
  7 36  1  0
  8 37  1  0
 10 38  1  0
 11 39  1  0
 14 40  1  0
 16 41  1  0
 17 42  1  0
 18 43  1  0
 18 44  1  0
 19 45  1  0
 19 46  1  0
 22 47  1  0
 29 48  1  0
M  END
$$$$
