@<TRIPOS>MOLECULE
*****
 48 52 0 0 0
SMALL
GASTEIGER

@<TRIPOS>ATOM
      1 C           5.7167   -2.2532    1.1703 C.3     1  UNL1        0.0127
      2 C           4.8257   -1.3357    1.8745 C.2     1  UNL1        0.2164
      3 O           5.0837   -1.1325    3.1216 O.2     1  UNL1       -0.2756
      4 N           3.7303   -0.6817    1.2953 N.am    1  UNL1       -0.2746
      5 C           2.8787    0.0645    2.2744 C.3     1  UNL1        0.0083
      6 C           3.3300   -0.6273   -0.0453 C.ar    1  UNL1        0.0379
      7 C           4.1346   -0.9506   -1.0974 C.ar    1  UNL1       -0.0396
      8 C           3.6875   -0.9235   -2.4320 C.ar    1  UNL1       -0.0508
      9 C           2.3901   -0.5583   -2.7154 C.ar    1  UNL1        0.0004
     10 C           1.6664   -0.4345   -3.8747 C.ar    1  UNL1       -0.0360
     11 C           0.3983   -0.0274   -3.5241 C.ar    1  UNL1        0.0123
     12 N           0.3719    0.0874   -2.1857 N.ar    1  UNL1       -0.3006
     13 C          -0.8038    0.4952   -1.4856 C.ar    1  UNL1        0.1436
     14 C          -1.2876   -0.2443   -0.4329 C.ar    1  UNL1        0.0211
     15 C          -2.4375    0.0980    0.2994 C.ar    1  UNL1        0.1262
     16 N          -2.8384   -0.7315    1.3426 N.pl3   1  UNL1       -0.3260
     17 C          -3.8518   -0.7712    2.3010 C.3     1  UNL1        0.0221
     18 C          -5.2923   -0.7815    1.7599 C.3     1  UNL1       -0.0329
     19 C          -4.8397    0.1745    2.7719 C.3     1  UNL1       -0.0329
     20 N          -3.0519    1.2056   -0.0888 N.ar    1  UNL1       -0.1992
     21 N          -4.1342    1.8366    0.3357 N.ar    1  UNL1       -0.1704
     22 C          -4.4009    2.9374   -0.3578 C.ar    1  UNL1        0.0694
     23 C          -3.4310    3.0632   -1.3219 C.ar    1  UNL1        0.1156
     24 C          -3.3488    4.1108   -2.2787 C.1     1  UNL1        0.1045
     25 N          -3.2800    4.9756   -3.0420 N.1     1  UNL1       -0.1907
     26 C          -2.6002    1.9791   -1.1417 C.ar    1  UNL1        0.1770
     27 N          -1.4938    1.5996   -1.8038 N.ar    1  UNL1       -0.2089
     28 C           1.5640   -0.2267   -1.6558 C.ar    1  UNL1        0.0569
     29 C           1.9982   -0.2533   -0.3549 C.ar    1  UNL1       -0.0158
     30 H           6.1965   -2.9130    1.9829 H       1  UNL1        0.0323
     31 H           6.5837   -1.7857    0.6938 H       1  UNL1        0.0323
     32 H           5.2010   -2.9522    0.4542 H       1  UNL1        0.0323
     33 H           2.1039   -0.6049    2.6817 H       1  UNL1        0.0433
     34 H           2.4879    0.9856    1.7981 H       1  UNL1        0.0433
     35 H           3.5114    0.4022    3.1068 H       1  UNL1        0.0433
     36 H           5.1697   -1.2224   -0.9934 H       1  UNL1        0.0636
     37 H           4.3714   -1.1913   -3.2248 H       1  UNL1        0.0625
     38 H           2.0786   -0.6353   -4.8486 H       1  UNL1        0.0639
     39 H          -0.3842    0.1496   -4.2386 H       1  UNL1        0.0813
     40 H          -0.7192   -1.1401   -0.1819 H       1  UNL1        0.0689
     41 H          -2.1630   -1.6333    1.4503 H       1  UNL1        0.1477
     42 H          -3.6607   -1.6356    3.0712 H       1  UNL1        0.0498
     43 H          -5.5026   -0.4502    0.7504 H       1  UNL1        0.0284
     44 H          -5.8575   -1.7046    2.0364 H       1  UNL1        0.0284
     45 H          -4.9120    1.2403    2.6370 H       1  UNL1        0.0284
     46 H          -5.2740   -0.0776    3.8218 H       1  UNL1        0.0284
     47 H          -5.2518    3.5807   -0.1484 H       1  UNL1        0.0862
     48 H           1.3367    0.0070    0.4429 H       1  UNL1        0.0657
@<TRIPOS>BOND
     1     1     2    1
     2     2     3    2
     3     2     4   am
     4     4     5    1
     5     4     6    1
     6     6     7   ar
     7     7     8   ar
     8     8     9   ar
     9     9    10   ar
    10    10    11   ar
    11    11    12   ar
    12    12    13    1
    13    13    14   ar
    14    14    15   ar
    15    15    16    1
    16    16    17    1
    17    17    18    1
    18    18    19    1
    19    15    20   ar
    20    20    21   ar
    21    21    22   ar
    22    22    23   ar
    23    23    24    1
    24    24    25    3
    25    23    26   ar
    26    26    27   ar
    27    12    28   ar
    28    28    29   ar
    29    29     6   ar
    30    28     9   ar
    31    27    13   ar
    32    19    17    1
    33    26    20   ar
    34     1    30    1
    35     1    31    1
    36     1    32    1
    37     5    33    1
    38     5    34    1
    39     5    35    1
    40     7    36    1
    41     8    37    1
    42    10    38    1
    43    11    39    1
    44    14    40    1
    45    16    41    1
    46    17    42    1
    47    18    43    1
    48    18    44    1
    49    19    45    1
    50    19    46    1
    51    22    47    1
    52    29    48    1
