@<TRIPOS>MOLECULE
*****
 33 36 0 0 0
SMALL
GASTEIGER

@<TRIPOS>ATOM
      1 O          -0.1384    4.0282    0.1617 O.2     1  UNL1       -0.2870
      2 C          -0.1531    2.7720    0.1101 C.ar    1  UNL1        0.1931
      3 C          -1.3334    2.0435   -0.0357 C.ar    1  UNL1        0.0287
      4 C          -1.3230    0.6720   -0.0894 C.ar    1  UNL1        0.1392
      5 C          -2.5715   -0.0985   -0.2436 C.ar    1  UNL1        0.0174
      6 C          -3.8098    0.4852   -0.3430 C.ar    1  UNL1       -0.0511
      7 C          -4.9629   -0.2402   -0.4860 C.ar    1  UNL1       -0.0611
      8 C          -4.8687   -1.6161   -0.5314 C.ar    1  UNL1       -0.0617
      9 C          -3.6588   -2.2644   -0.4374 C.ar    1  UNL1       -0.0611
     10 C          -2.5320   -1.4845   -0.2949 C.ar    1  UNL1       -0.0511
     11 O          -0.1881    0.0430   -0.0021 O.2     1  UNL1       -0.4539
     12 C           0.9780    0.6413    0.1371 C.ar    1  UNL1        0.1498
     13 C           2.1325   -0.1254    0.2208 C.ar    1  UNL1        0.0594
     14 C           3.3604    0.5210    0.3681 C.ar    1  UNL1        0.1316
     15 C           3.3943    1.9068    0.4267 C.ar    1  UNL1       -0.0184
     16 C           2.2439    2.6586    0.3428 C.ar    1  UNL1       -0.0439
     17 C           1.0124    2.0290    0.1959 C.ar    1  UNL1        0.0648
     18 O           4.5073   -0.2277    0.4518 O.3     1  UNL1       -0.4872
     19 C           4.5064   -1.6119    0.3965 C.3     1  UNL1        0.1081
     20 C           3.1987   -2.2548    0.2414 C.2     1  UNL1       -0.0463
     21 C           2.0886   -1.5810    0.1584 C.2     1  UNL1       -0.0483
     22 H          -2.2351    2.6306   -0.1016 H       1  UNL1        0.0693
     23 H          -3.9121    1.5559   -0.3106 H       1  UNL1        0.0625
     24 H          -5.9495    0.2392   -0.5646 H       1  UNL1        0.0618
     25 H          -5.7806   -2.2010   -0.6450 H       1  UNL1        0.0618
     26 H          -3.5660   -3.3384   -0.4710 H       1  UNL1        0.0618
     27 H          -1.5377   -1.9256   -0.2140 H       1  UNL1        0.0625
     28 H           4.3639    2.4050    0.5425 H       1  UNL1        0.0654
     29 H           2.2753    3.7437    0.3892 H       1  UNL1        0.0627
     30 H           4.9769   -2.0048    1.3425 H       1  UNL1        0.0742
     31 H           5.2120   -1.9998   -0.4003 H       1  UNL1        0.0742
     32 H           3.1643   -3.3326    0.1950 H       1  UNL1        0.0606
     33 H           1.1058   -2.0682    0.0418 H       1  UNL1        0.0624
@<TRIPOS>BOND
     1     1     2    2
     2     2     3   ar
     3     3     4   ar
     4     4     5    1
     5     5     6   ar
     6     6     7   ar
     7     7     8   ar
     8     8     9   ar
     9     9    10   ar
    10     4    11   ar
    11    11    12   ar
    12    12    13   ar
    13    13    14   ar
    14    14    15   ar
    15    15    16   ar
    16    16    17   ar
    17    14    18    1
    18    18    19    1
    19    19    20    1
    20    20    21    2
    21    17     2   ar
    22    10     5   ar
    23    17    12   ar
    24    21    13    1
    25     3    22    1
    26     6    23    1
    27     7    24    1
    28     8    25    1
    29     9    26    1
    30    10    27    1
    31    15    28    1
    32    16    29    1
    33    19    30    1
    34    19    31    1
    35    20    32    1
    36    21    33    1
