@<TRIPOS>MOLECULE
*****
 69 74 0 0 0
SMALL
GASTEIGER

@<TRIPOS>ATOM
      1 C          -8.5638    1.5221   -0.6415 C.3     1  UNL1        0.0032
      2 N          -7.1287    1.3407   -0.6336 N.am    1  UNL1       -0.3024
      3 C          -6.4783    0.9478   -1.8921 C.3     1  UNL1        0.0032
      4 C          -6.4036    1.5508    0.5587 C.2     1  UNL1        0.2627
      5 O          -6.9700    1.8912    1.6076 O.2     1  UNL1       -0.2684
      6 C          -4.9677    1.3563    0.5148 C.ar    1  UNL1        0.1071
      7 C          -4.1371    2.3915    0.0507 C.ar    1  UNL1       -0.0209
      8 C          -2.8742    1.8745    0.1068 C.ar    1  UNL1        0.0378
      9 C          -1.6033    2.3584   -0.2262 C.ar    1  UNL1        0.0419
     10 N          -0.5609    1.5379   -0.0550 N.ar    1  UNL1       -0.2219
     11 C          -0.6093    0.2908    0.4058 C.ar    1  UNL1        0.2224
     12 N           0.4793   -0.6104    0.5343 N.pl3   1  UNL1       -0.2685
     13 C           1.7372   -0.4508   -0.0149 C.ar    1  UNL1        0.1250
     14 C           2.1211    0.6292   -0.7481 C.ar    1  UNL1       -0.0208
     15 C           3.3675    0.7470   -1.3361 C.ar    1  UNL1       -0.0449
     16 C           4.2686   -0.3129   -1.1559 C.ar    1  UNL1        0.0551
     17 C           5.5758   -0.2519   -1.7817 C.2     1  UNL1        0.2482
     18 O           5.6835   -0.3454   -3.0372 O.2     1  UNL1       -0.2699
     19 N           6.7404   -0.0844   -0.9864 N.am    1  UNL1       -0.2945
     20 C           6.6687    0.0177    0.4328 C.3     1  UNL1        0.0304
     21 C           7.9293   -0.4357    1.1140 C.3     1  UNL1        0.0237
     22 C           8.8495    0.7602    1.2476 C.3     1  UNL1       -0.0346
     23 C           9.6700    0.7071   -0.0219 C.3     1  UNL1       -0.0346
     24 C           9.1224   -0.4765   -0.7916 C.3     1  UNL1        0.0237
     25 C           8.0244   -0.0033   -1.6921 C.3     1  UNL1        0.0304
     26 N           8.6084   -1.3558    0.2213 N.3     1  UNL1       -0.3075
     27 C           3.8837   -1.4063   -0.4140 C.ar    1  UNL1        0.0418
     28 N           2.6693   -1.4328    0.1125 N.ar    1  UNL1       -0.2394
     29 N          -1.8640   -0.1734    0.7308 N.ar    1  UNL1       -0.1962
     30 C          -2.9440    0.6075    0.5779 C.ar    1  UNL1        0.1467
     31 N          -4.2562    0.2816    0.8347 N.ar    1  UNL1       -0.3158
     32 C          -4.6768   -1.0235    1.3463 C.3     1  UNL1        0.0599
     33 C          -4.9113   -1.9968    0.2118 C.3     1  UNL1       -0.0278
     34 C          -6.3488   -2.3481   -0.0104 C.3     1  UNL1       -0.0275
     35 C          -7.1514   -2.4012    1.2793 C.3     1  UNL1        0.0478
     36 O          -7.0205   -1.1638    1.8918 O.3     1  UNL1       -0.3777
     37 C          -5.7431   -0.9802    2.3669 C.3     1  UNL1        0.0684
     38 H          -8.7221    2.5837   -0.9976 H       1  UNL1        0.0428
     39 H          -9.0296    1.3720    0.3324 H       1  UNL1        0.0428
     40 H          -8.9994    0.8275   -1.4130 H       1  UNL1        0.0428
     41 H          -5.4744    0.5176   -1.5953 H       1  UNL1        0.0428
     42 H          -7.0398    0.1355   -2.3589 H       1  UNL1        0.0428
     43 H          -6.3565    1.8343   -2.5468 H       1  UNL1        0.0428
     44 H          -4.4215    3.3809   -0.2820 H       1  UNL1        0.0647
     45 H          -1.5297    3.3687   -0.6022 H       1  UNL1        0.0838
     46 H           0.3280   -1.4969    1.1136 H       1  UNL1        0.1564
     47 H           1.4651    1.4892   -0.9325 H       1  UNL1        0.0652
     48 H           3.6516    1.6073   -1.9150 H       1  UNL1        0.0627
     49 H           5.8433   -0.6076    0.8932 H       1  UNL1        0.0480
     50 H           6.4026    1.0616    0.7444 H       1  UNL1        0.0480
     51 H           7.7265   -0.9174    2.0845 H       1  UNL1        0.0476
     52 H           8.2545    1.6783    1.3548 H       1  UNL1        0.0281
     53 H           9.4682    0.5783    2.1510 H       1  UNL1        0.0281
     54 H          10.7171    0.5779    0.2609 H       1  UNL1        0.0281
     55 H           9.5281    1.6156   -0.6031 H       1  UNL1        0.0281
     56 H           9.9185   -0.9912   -1.3665 H       1  UNL1        0.0476
     57 H           7.9691   -0.6804   -2.5999 H       1  UNL1        0.0480
     58 H           8.1865    1.0017   -2.1176 H       1  UNL1        0.0480
     59 H           9.3910   -1.7843    0.7412 H       1  UNL1        0.1226
     60 H           4.6109   -2.2185   -0.2998 H       1  UNL1        0.0838
     61 H          -3.7654   -1.4497    1.8783 H       1  UNL1        0.0551
     62 H          -4.3394   -2.9588    0.3443 H       1  UNL1        0.0287
     63 H          -4.5168   -1.5367   -0.7167 H       1  UNL1        0.0287
     64 H          -6.8218   -1.6381   -0.6939 H       1  UNL1        0.0288
     65 H          -6.3938   -3.3660   -0.4983 H       1  UNL1        0.0288
     66 H          -6.7662   -3.2255    1.9294 H       1  UNL1        0.0560
     67 H          -8.2051   -2.5642    0.9519 H       1  UNL1        0.0560
     68 H          -5.6938   -0.0527    2.9419 H       1  UNL1        0.0580
     69 H          -5.5716   -1.8173    3.1096 H       1  UNL1        0.0580
@<TRIPOS>BOND
     1     1     2    1
     2     2     3    1
     3     2     4   am
     4     4     5    2
     5     4     6    1
     6     6     7   ar
     7     7     8   ar
     8     8     9   ar
     9     9    10   ar
    10    10    11   ar
    11    11    12    1
    12    12    13    1
    13    13    14   ar
    14    14    15   ar
    15    15    16   ar
    16    16    17    1
    17    17    18    2
    18    17    19   am
    19    19    20    1
    20    20    21    1
    21    21    22    1
    22    22    23    1
    23    23    24    1
    24    24    25    1
    25    24    26    1
    26    16    27   ar
    27    27    28   ar
    28    11    29   ar
    29    29    30   ar
    30    30    31   ar
    31    31    32    1
    32    32    33    1
    33    33    34    1
    34    34    35    1
    35    35    36    1
    36    36    37    1
    37    31     6   ar
    38    37    32    1
    39    30     8   ar
    40    28    13   ar
    41    25    19    1
    42    26    21    1
    43     1    38    1
    44     1    39    1
    45     1    40    1
    46     3    41    1
    47     3    42    1
    48     3    43    1
    49     7    44    1
    50     9    45    1
    51    12    46    1
    52    14    47    1
    53    15    48    1
    54    20    49    1
    55    20    50    1
    56    21    51    1
    57    22    52    1
    58    22    53    1
    59    23    54    1
    60    23    55    1
    61    24    56    1
    62    25    57    1
    63    25    58    1
    64    26    59    1
    65    27    60    1
    66    32    61    1
    67    33    62    1
    68    33    63    1
    69    34    64    1
    70    34    65    1
    71    35    66    1
    72    35    67    1
    73    37    68    1
    74    37    69    1
