
     RDKit          3D

 69 74  0  0  0  0  0  0  0  0999 V2000
   -8.5638    1.5221   -0.6415 C   0  0  0  0  0  0  0  0  0  0  0  0
   -7.1287    1.3407   -0.6336 N   0  0  0  0  0  0  0  0  0  0  0  0
   -6.4783    0.9478   -1.8921 C   0  0  0  0  0  0  0  0  0  0  0  0
   -6.4036    1.5508    0.5587 C   0  0  0  0  0  0  0  0  0  0  0  0
   -6.9700    1.8912    1.6076 O   0  0  0  0  0  0  0  0  0  0  0  0
   -4.9677    1.3563    0.5148 C   0  0  0  0  0  0  0  0  0  0  0  0
   -4.1371    2.3915    0.0507 C   0  0  0  0  0  0  0  0  0  0  0  0
   -2.8742    1.8745    0.1068 C   0  0  0  0  0  0  0  0  0  0  0  0
   -1.6033    2.3584   -0.2262 C   0  0  0  0  0  0  0  0  0  0  0  0
   -0.5609    1.5379   -0.0550 N   0  0  0  0  0  0  0  0  0  0  0  0
   -0.6093    0.2908    0.4058 C   0  0  0  0  0  0  0  0  0  0  0  0
    0.4793   -0.6104    0.5343 N   0  0  0  0  0  0  0  0  0  0  0  0
    1.7372   -0.4508   -0.0149 C   0  0  0  0  0  0  0  0  0  0  0  0
    2.1211    0.6292   -0.7481 C   0  0  0  0  0  0  0  0  0  0  0  0
    3.3675    0.7470   -1.3361 C   0  0  0  0  0  0  0  0  0  0  0  0
    4.2686   -0.3129   -1.1559 C   0  0  0  0  0  0  0  0  0  0  0  0
    5.5758   -0.2519   -1.7817 C   0  0  0  0  0  0  0  0  0  0  0  0
    5.6835   -0.3454   -3.0372 O   0  0  0  0  0  0  0  0  0  0  0  0
    6.7404   -0.0844   -0.9864 N   0  0  0  0  0  0  0  0  0  0  0  0
    6.6687    0.0177    0.4328 C   0  0  0  0  0  0  0  0  0  0  0  0
    7.9293   -0.4357    1.1140 C   0  0  0  0  0  0  0  0  0  0  0  0
    8.8495    0.7602    1.2476 C   0  0  0  0  0  0  0  0  0  0  0  0
    9.6700    0.7071   -0.0219 C   0  0  0  0  0  0  0  0  0  0  0  0
    9.1224   -0.4765   -0.7916 C   0  0  0  0  0  0  0  0  0  0  0  0
    8.0244   -0.0033   -1.6921 C   0  0  0  0  0  0  0  0  0  0  0  0
    8.6084   -1.3558    0.2213 N   0  0  0  0  0  0  0  0  0  0  0  0
    3.8837   -1.4063   -0.4140 C   0  0  0  0  0  0  0  0  0  0  0  0
    2.6693   -1.4328    0.1125 N   0  0  0  0  0  0  0  0  0  0  0  0
   -1.8640   -0.1734    0.7308 N   0  0  0  0  0  0  0  0  0  0  0  0
   -2.9440    0.6075    0.5779 C   0  0  0  0  0  0  0  0  0  0  0  0
   -4.2562    0.2816    0.8347 N   0  0  0  0  0  0  0  0  0  0  0  0
   -4.6768   -1.0235    1.3463 C   0  0  0  0  0  0  0  0  0  0  0  0
   -4.9113   -1.9968    0.2118 C   0  0  0  0  0  0  0  0  0  0  0  0
   -6.3488   -2.3481   -0.0104 C   0  0  0  0  0  0  0  0  0  0  0  0
   -7.1514   -2.4012    1.2793 C   0  0  0  0  0  0  0  0  0  0  0  0
   -7.0205   -1.1638    1.8918 O   0  0  0  0  0  0  0  0  0  0  0  0
   -5.7431   -0.9802    2.3669 C   0  0  0  0  0  0  0  0  0  0  0  0
   -8.7221    2.5837   -0.9976 H   0  0  0  0  0  0  0  0  0  0  0  0
   -9.0296    1.3720    0.3324 H   0  0  0  0  0  0  0  0  0  0  0  0
   -8.9994    0.8275   -1.4130 H   0  0  0  0  0  0  0  0  0  0  0  0
   -5.4744    0.5176   -1.5953 H   0  0  0  0  0  0  0  0  0  0  0  0
   -7.0398    0.1355   -2.3589 H   0  0  0  0  0  0  0  0  0  0  0  0
   -6.3565    1.8343   -2.5468 H   0  0  0  0  0  0  0  0  0  0  0  0
   -4.4215    3.3809   -0.2820 H   0  0  0  0  0  0  0  0  0  0  0  0
   -1.5297    3.3687   -0.6022 H   0  0  0  0  0  0  0  0  0  0  0  0
    0.3280   -1.4969    1.1136 H   0  0  0  0  0  0  0  0  0  0  0  0
    1.4651    1.4892   -0.9325 H   0  0  0  0  0  0  0  0  0  0  0  0
    3.6516    1.6073   -1.9150 H   0  0  0  0  0  0  0  0  0  0  0  0
    5.8433   -0.6076    0.8932 H   0  0  0  0  0  0  0  0  0  0  0  0
    6.4026    1.0616    0.7444 H   0  0  0  0  0  0  0  0  0  0  0  0
    7.7265   -0.9174    2.0845 H   0  0  0  0  0  0  0  0  0  0  0  0
    8.2545    1.6783    1.3548 H   0  0  0  0  0  0  0  0  0  0  0  0
    9.4682    0.5783    2.1510 H   0  0  0  0  0  0  0  0  0  0  0  0
   10.7171    0.5779    0.2609 H   0  0  0  0  0  0  0  0  0  0  0  0
    9.5281    1.6156   -0.6031 H   0  0  0  0  0  0  0  0  0  0  0  0
    9.9185   -0.9912   -1.3665 H   0  0  0  0  0  0  0  0  0  0  0  0
    7.9691   -0.6804   -2.5999 H   0  0  0  0  0  0  0  0  0  0  0  0
    8.1865    1.0017   -2.1176 H   0  0  0  0  0  0  0  0  0  0  0  0
    9.3910   -1.7843    0.7412 H   0  0  0  0  0  0  0  0  0  0  0  0
    4.6109   -2.2185   -0.2998 H   0  0  0  0  0  0  0  0  0  0  0  0
   -3.7654   -1.4497    1.8783 H   0  0  0  0  0  0  0  0  0  0  0  0
   -4.3394   -2.9588    0.3443 H   0  0  0  0  0  0  0  0  0  0  0  0
   -4.5168   -1.5367   -0.7167 H   0  0  0  0  0  0  0  0  0  0  0  0
   -6.8218   -1.6381   -0.6939 H   0  0  0  0  0  0  0  0  0  0  0  0
   -6.3938   -3.3660   -0.4983 H   0  0  0  0  0  0  0  0  0  0  0  0
   -6.7662   -3.2255    1.9294 H   0  0  0  0  0  0  0  0  0  0  0  0
   -8.2051   -2.5642    0.9519 H   0  0  0  0  0  0  0  0  0  0  0  0
   -5.6938   -0.0527    2.9419 H   0  0  0  0  0  0  0  0  0  0  0  0
   -5.5716   -1.8173    3.1096 H   0  0  0  0  0  0  0  0  0  0  0  0
  1  2  1  0
  2  3  1  0
  2  4  1  0
  4  5  2  0
  4  6  1  0
  6  7  2  0
  7  8  1  0
  8  9  2  0
  9 10  1  0
 10 11  2  0
 11 12  1  0
 12 13  1  0
 13 14  2  0
 14 15  1  0
 15 16  2  0
 16 17  1  0
 17 18  2  0
 17 19  1  0
 19 20  1  0
 20 21  1  0
 21 22  1  0
 22 23  1  0
 23 24  1  0
 24 25  1  0
 24 26  1  0
 16 27  1  0
 27 28  2  0
 11 29  1  0
 29 30  2  0
 30 31  1  0
 31 32  1  0
 32 33  1  0
 33 34  1  0
 34 35  1  0
 35 36  1  0
 36 37  1  0
 31  6  1  0
 37 32  1  0
 30  8  1  0
 28 13  1  0
 25 19  1  0
 26 21  1  0
  1 38  1  0
  1 39  1  0
  1 40  1  0
  3 41  1  0
  3 42  1  0
  3 43  1  0
  7 44  1  0
  9 45  1  0
 12 46  1  0
 14 47  1  0
 15 48  1  0
 20 49  1  0
 20 50  1  0
 21 51  1  0
 22 52  1  0
 22 53  1  0
 23 54  1  0
 23 55  1  0
 24 56  1  0
 25 57  1  0
 25 58  1  0
 26 59  1  0
 27 60  1  0
 32 61  1  0
 33 62  1  0
 33 63  1  0
 34 64  1  0
 34 65  1  0
 35 66  1  0
 35 67  1  0
 37 68  1  0
 37 69  1  0
M  END
$$$$
