
     RDKit          3D

 64 68  0  0  0  0  0  0  0  0999 V2000
    9.3856    4.4764   -1.1860 N   0  0  0  0  0  0  0  0  0  0  0  0
    8.4396    3.6785   -0.5062 C   0  0  0  0  0  0  0  0  0  0  0  0
    8.2643    3.7823    0.8327 N   0  0  0  0  0  0  0  0  0  0  0  0
    7.3717    3.0369    1.5091 C   0  0  0  0  0  0  0  0  0  0  0  0
    6.6032    2.1406    0.8646 N   0  0  0  0  0  0  0  0  0  0  0  0
    6.7140    1.9748   -0.4641 C   0  0  0  0  0  0  0  0  0  0  0  0
    7.6416    2.7533   -1.1487 C   0  0  0  0  0  0  0  0  0  0  0  0
    7.5405    2.3880   -2.4255 N   0  0  0  0  0  0  0  0  0  0  0  0
    6.5985    1.4318   -2.5289 C   0  0  0  0  0  0  0  0  0  0  0  0
    6.0708    1.1584   -1.3233 N   0  0  0  0  0  0  0  0  0  0  0  0
    5.0323    0.1843   -1.0568 C   0  0  0  0  0  0  0  0  0  0  0  0
    4.5260    0.2775    0.2188 O   0  0  0  0  0  0  0  0  0  0  0  0
    4.6454   -0.9867    0.8063 C   0  0  0  0  0  0  0  0  0  0  0  0
    3.7968   -1.2144    1.9970 C   0  0  0  0  0  0  0  0  0  0  0  0
    2.4393   -1.1658    1.9134 O   0  0  0  0  0  0  0  0  0  0  0  0
    1.5034   -1.9703    1.3422 C   0  0  0  0  0  0  0  0  0  0  0  0
    1.8927   -3.0083    0.7646 O   0  0  0  0  0  0  0  0  0  0  0  0
    0.0738   -1.6938    1.3638 C   0  0  0  0  0  0  0  0  0  0  0  0
   -0.7940   -2.5694    0.7557 C   0  0  0  0  0  0  0  0  0  0  0  0
   -2.1718   -2.3576    0.7433 C   0  0  0  0  0  0  0  0  0  0  0  0
   -2.6773   -1.2214    1.3686 C   0  0  0  0  0  0  0  0  0  0  0  0
   -4.3703   -0.8612    1.4117 S   0  0  0  0  0  5  0  0  0  0  0  0
   -4.5118    0.6507    1.5188 O   0  0  0  0  0  0  0  0  0  0  0  0
   -5.1514   -1.5085    2.7354 O   0  0  0  0  0  1  0  0  0  0  0  0
   -5.1615   -1.3894   -0.0233 O   0  0  0  0  0  0  0  0  0  0  0  0
   -6.4022   -0.8217   -0.2711 C   0  0  0  0  0  0  0  0  0  0  0  0
   -6.5283    0.3421   -0.9991 C   0  0  0  0  0  0  0  0  0  0  0  0
   -7.7682    0.9168   -1.2514 C   0  0  0  0  0  0  0  0  0  0  0  0
   -8.9315    0.3325   -0.7741 C   0  0  0  0  0  0  0  0  0  0  0  0
  -10.2023    0.9852   -1.0727 C   0  0  0  0  0  0  0  0  0  0  0  0
  -11.3793    0.5343   -0.6798 C   0  0  0  0  0  0  0  0  0  0  0  0
  -12.5745    1.2261   -1.0100 N   0  0  0  0  0  4  0  0  0  0  0  0
  -12.9423    2.2364   -0.3849 O   0  0  0  0  0  0  0  0  0  0  0  0
  -13.3579    0.7842   -2.0420 O   0  0  0  0  0  1  0  0  0  0  0  0
   -8.7956   -0.8204   -0.0540 C   0  0  0  0  0  0  0  0  0  0  0  0
   -7.5610   -1.3988    0.2011 C   0  0  0  0  0  0  0  0  0  0  0  0
   -1.7822   -0.3585    1.9719 C   0  0  0  0  0  0  0  0  0  0  0  0
   -0.4216   -0.5688    1.9834 C   0  0  0  0  0  0  0  0  0  0  0  0
    4.5046   -1.9476   -0.3157 C   0  0  0  0  0  0  0  0  0  0  0  0
    4.8605   -3.2380   -0.0821 O   0  0  0  0  0  0  0  0  0  0  0  0
    5.5167   -1.2428   -1.2936 C   0  0  0  0  0  0  0  0  0  0  0  0
    5.2278   -1.7198   -2.5460 O   0  0  0  0  0  0  0  0  0  0  0  0
    9.4515    5.4924   -1.0136 H   0  0  0  0  0  0  0  0  0  0  0  0
   10.0264    4.0420   -1.8696 H   0  0  0  0  0  0  0  0  0  0  0  0
    7.2502    3.1394    2.5836 H   0  0  0  0  0  0  0  0  0  0  0  0
    6.2825    0.9279   -3.4465 H   0  0  0  0  0  0  0  0  0  0  0  0
    4.1943    0.3255   -1.8003 H   0  0  0  0  0  0  0  0  0  0  0  0
    5.7548   -1.0444    1.1005 H   0  0  0  0  0  0  0  0  0  0  0  0
    4.0897   -0.4159    2.7723 H   0  0  0  0  0  0  0  0  0  0  0  0
    4.1726   -2.1498    2.5267 H   0  0  0  0  0  0  0  0  0  0  0  0
   -0.4008   -3.4459    0.2737 H   0  0  0  0  0  0  0  0  0  0  0  0
   -2.8568   -3.0445    0.2659 H   0  0  0  0  0  0  0  0  0  0  0  0
   -5.6507    0.8283   -1.3879 H   0  0  0  0  0  0  0  0  0  0  0  0
   -7.8523    1.8369   -1.8283 H   0  0  0  0  0  0  0  0  0  0  0  0
  -10.2352    1.9101   -1.6566 H   0  0  0  0  0  0  0  0  0  0  0  0
  -11.4282   -0.3808   -0.0947 H   0  0  0  0  0  0  0  0  0  0  0  0
   -9.6815   -1.2992    0.3309 H   0  0  0  0  0  0  0  0  0  0  0  0
   -7.4779   -2.3149    0.7756 H   0  0  0  0  0  0  0  0  0  0  0  0
   -2.1842    0.5313    2.4610 H   0  0  0  0  0  0  0  0  0  0  0  0
    0.2761    0.0927    2.4470 H   0  0  0  0  0  0  0  0  0  0  0  0
    3.4967   -1.8146   -0.7972 H   0  0  0  0  0  0  0  0  0  0  0  0
    5.1162   -3.3293    0.8836 H   0  0  0  0  0  0  0  0  0  0  0  0
    6.5112   -1.4435   -0.9059 H   0  0  0  0  0  0  0  0  0  0  0  0
    5.9809   -1.6719   -3.1883 H   0  0  0  0  0  0  0  0  0  0  0  0
  1  2  1  0
  2  3  2  0
  3  4  1  0
  4  5  2  0
  5  6  1  0
  6  7  2  0
  7  8  1  0
  8  9  2  0
  9 10  1  0
 10 11  1  0
 11 12  1  0
 12 13  1  0
 13 14  1  0
 14 15  1  0
 15 16  1  0
 16 17  2  0
 16 18  1  0
 18 19  2  0
 19 20  1  0
 20 21  2  0
 21 22  1  0
 22 23  2  0
 22 24  1  0
 22 25  1  0
 25 26  1  0
 26 27  2  0
 27 28  1  0
 28 29  2  0
 29 30  1  0
 30 31  2  0
 31 32  1  0
 32 33  2  0
 32 34  1  0
 29 35  1  0
 35 36  2  0
 21 37  1  0
 37 38  2  0
 13 39  1  0
 39 40  1  0
 39 41  1  0
 41 42  1  0
  7  2  1  0
 41 11  1  0
 10  6  1  0
 38 18  1  0
 36 26  1  0
  1 43  1  0
  1 44  1  0
  4 45  1  0
  9 46  1  0
 11 47  1  0
 13 48  1  0
 14 49  1  0
 14 50  1  0
 19 51  1  0
 20 52  1  0
 27 53  1  0
 28 54  1  0
 30 55  1  0
 31 56  1  0
 35 57  1  0
 36 58  1  0
 37 59  1  0
 38 60  1  0
 39 61  1  0
 40 62  1  0
 41 63  1  0
 42 64  1  0
M  CHG  4  22   1  24  -1  32   1  34  -1
M  END
$$$$
