@<TRIPOS>MOLECULE
*****
 64 68 0 0 0
SMALL
GASTEIGER

@<TRIPOS>ATOM
      1 N           9.3856    4.4764   -1.1860 N.pl3   1  UNL1       -0.3413
      2 C           8.4396    3.6785   -0.5062 C.ar    1  UNL1        0.1472
      3 N           8.2643    3.7823    0.8327 N.ar    1  UNL1       -0.2188
      4 C           7.3717    3.0369    1.5091 C.ar    1  UNL1        0.1205
      5 N           6.6032    2.1406    0.8646 N.ar    1  UNL1       -0.2159
      6 C           6.7140    1.9748   -0.4641 C.ar    1  UNL1        0.1674
      7 C           7.6416    2.7533   -1.1487 C.ar    1  UNL1        0.1473
      8 N           7.5405    2.3880   -2.4255 N.ar    1  UNL1       -0.2306
      9 C           6.5985    1.4318   -2.5289 C.ar    1  UNL1        0.1004
     10 N           6.0708    1.1584   -1.3233 N.ar    1  UNL1       -0.2855
     11 C           5.0323    0.1843   -1.0568 C.3     1  UNL1        0.1667
     12 O           4.5260    0.2775    0.2188 O.3     1  UNL1       -0.3446
     13 C           4.6454   -0.9867    0.8063 C.3     1  UNL1        0.1236
     14 C           3.7968   -1.2144    1.9970 C.3     1  UNL1        0.1215
     15 O           2.4393   -1.1658    1.9134 O.3     1  UNL1       -0.4585
     16 C           1.5034   -1.9703    1.3422 C.2     1  UNL1        0.3393
     17 O           1.8927   -3.0083    0.7646 O.2     1  UNL1       -0.2450
     18 C           0.0738   -1.6938    1.3638 C.ar    1  UNL1        0.0594
     19 C          -0.7940   -2.5694    0.7557 C.ar    1  UNL1       -0.0418
     20 C          -2.1718   -2.3576    0.7433 C.ar    1  UNL1        0.0099
     21 C          -2.6773   -1.2214    1.3686 C.ar    1  UNL1        0.2336
     22 S          -4.3703   -0.8612    1.4117 S.3     1  UNL1        0.0713
     23 O          -4.5118    0.6507    1.5188 O.2     1  UNL1       -0.0017
     24 O          -5.1514   -1.5085    2.7354 O.co2   1  UNL1       -0.5318
     25 O          -5.1615   -1.3894   -0.0233 O.3     1  UNL1       -0.2512
     26 C          -6.4022   -0.8217   -0.2711 C.ar    1  UNL1        0.1992
     27 C          -6.5283    0.3421   -0.9991 C.ar    1  UNL1       -0.0123
     28 C          -7.7682    0.9168   -1.2514 C.ar    1  UNL1       -0.0507
     29 C          -8.9315    0.3325   -0.7741 C.ar    1  UNL1       -0.0190
     30 C         -10.2023    0.9852   -1.0727 C.2     1  UNL1        0.0150
     31 C         -11.3793    0.5343   -0.6798 C.2     1  UNL1        0.2387
     32 N         -12.5745    1.2261   -1.0100 N.pl3   1  UNL1        0.0719
     33 O         -12.9423    2.2364   -0.3849 O.2     1  UNL1        0.0408
     34 O         -13.3579    0.7842   -2.0420 O.co2   1  UNL1       -0.5765
     35 C          -8.7956   -0.8204   -0.0540 C.ar    1  UNL1       -0.0507
     36 C          -7.5610   -1.3988    0.2011 C.ar    1  UNL1       -0.0123
     37 C          -1.7822   -0.3585    1.9719 C.ar    1  UNL1        0.0099
     38 C          -0.4216   -0.5688    1.9834 C.ar    1  UNL1       -0.0418
     39 C           4.5046   -1.9476   -0.3157 C.3     1  UNL1        0.1146
     40 O           4.8605   -3.2380   -0.0821 O.3     1  UNL1       -0.3864
     41 C           5.5167   -1.2428   -1.2936 C.3     1  UNL1        0.1286
     42 O           5.2278   -1.7198   -2.5460 O.3     1  UNL1       -0.3847
     43 H           9.4515    5.4924   -1.0136 H       1  UNL1        0.1438
     44 H          10.0264    4.0420   -1.8696 H       1  UNL1        0.1438
     45 H           7.2502    3.1394    2.5836 H       1  UNL1        0.1048
     46 H           6.2825    0.9279   -3.4465 H       1  UNL1        0.1030
     47 H           4.1943    0.3255   -1.8003 H       1  UNL1        0.0866
     48 H           5.7548   -1.0444    1.1005 H       1  UNL1        0.0658
     49 H           4.0897   -0.4159    2.7723 H       1  UNL1        0.0725
     50 H           4.1726   -2.1498    2.5267 H       1  UNL1        0.0725
     51 H          -0.4008   -3.4459    0.2737 H       1  UNL1        0.0628
     52 H          -2.8568   -3.0445    0.2659 H       1  UNL1        0.0681
     53 H          -5.6507    0.8283   -1.3879 H       1  UNL1        0.0657
     54 H          -7.8523    1.8369   -1.8283 H       1  UNL1        0.0625
     55 H         -10.2352    1.9101   -1.6566 H       1  UNL1        0.0685
     56 H         -11.4282   -0.3808   -0.0947 H       1  UNL1        0.1439
     57 H          -9.6815   -1.2992    0.3309 H       1  UNL1        0.0625
     58 H          -7.4779   -2.3149    0.7756 H       1  UNL1        0.0657
     59 H          -2.1842    0.5313    2.4610 H       1  UNL1        0.0681
     60 H           0.2761    0.0927    2.4470 H       1  UNL1        0.0628
     61 H           3.4967   -1.8146   -0.7972 H       1  UNL1        0.0648
     62 H           5.1162   -3.3293    0.8836 H       1  UNL1        0.2100
     63 H           6.5112   -1.4435   -0.9059 H       1  UNL1        0.0665
     64 H           5.9809   -1.6719   -3.1883 H       1  UNL1        0.2101
@<TRIPOS>UNITY_ATOM_ATTR
22 1
charge 1
24 1
charge -1
32 1
charge 1
34 1
charge -1
@<TRIPOS>BOND
     1     1     2    1
     2     2     3   ar
     3     3     4   ar
     4     4     5   ar
     5     5     6   ar
     6     6     7   ar
     7     7     8   ar
     8     8     9   ar
     9     9    10   ar
    10    10    11    1
    11    11    12    1
    12    12    13    1
    13    13    14    1
    14    14    15    1
    15    15    16    1
    16    16    17    2
    17    16    18    1
    18    18    19   ar
    19    19    20   ar
    20    20    21   ar
    21    21    22    1
    22    22    23    2
    23    22    24    1
    24    22    25    1
    25    25    26    1
    26    26    27   ar
    27    27    28   ar
    28    28    29   ar
    29    29    30    1
    30    30    31    2
    31    31    32    1
    32    32    33    2
    33    32    34    1
    34    29    35   ar
    35    35    36   ar
    36    21    37   ar
    37    37    38   ar
    38    13    39    1
    39    39    40    1
    40    39    41    1
    41    41    42    1
    42     7     2   ar
    43    41    11    1
    44    10     6   ar
    45    38    18   ar
    46    36    26   ar
    47     1    43    1
    48     1    44    1
    49     4    45    1
    50     9    46    1
    51    11    47    1
    52    13    48    1
    53    14    49    1
    54    14    50    1
    55    19    51    1
    56    20    52    1
    57    27    53    1
    58    28    54    1
    59    30    55    1
    60    31    56    1
    61    35    57    1
    62    36    58    1
    63    37    59    1
    64    38    60    1
    65    39    61    1
    66    40    62    1
    67    41    63    1
    68    42    64    1
