@<TRIPOS>MOLECULE
*****
 44 47 0 0 0
SMALL
GASTEIGER

@<TRIPOS>ATOM
      1 O           2.6392    0.2898    2.2171 O.3     1  UNL1       -0.3774
      2 C           3.5455    0.3938    1.1577 C.3     1  UNL1        0.1935
      3 C           3.0859   -0.4020   -0.0073 C.ar    1  UNL1        0.1003
      4 C           3.7919   -1.2823   -0.7895 C.ar    1  UNL1        0.0542
      5 N           2.9554   -1.7745   -1.7450 N.ar    1  UNL1       -0.2343
      6 C           1.7477   -1.2232   -1.5771 C.ar    1  UNL1        0.1545
      7 C           0.5334   -1.3521   -2.2458 C.ar    1  UNL1       -0.0153
      8 C          -0.5253   -0.6213   -1.7950 C.ar    1  UNL1       -0.0290
      9 C          -0.3971    0.2126   -0.7186 C.ar    1  UNL1        0.1103
     10 C          -1.5613    0.9921   -0.2471 C.ar    1  UNL1        0.0968
     11 C          -2.6845    0.4142    0.2622 C.ar    1  UNL1        0.0982
     12 C          -2.9439   -0.9879    0.4408 C.ar    1  UNL1        0.0027
     13 C          -4.0028   -1.6030   -0.2198 C.ar    1  UNL1       -0.0498
     14 C          -4.2342   -2.9640   -0.0301 C.ar    1  UNL1       -0.0258
     15 C          -3.4452   -3.7372    0.7976 C.ar    1  UNL1        0.1234
     16 F          -3.6378   -5.0529    1.0053 F       1  UNL1       -0.2055
     17 C          -2.3996   -3.0936    1.4400 C.ar    1  UNL1       -0.0258
     18 C          -2.1520   -1.7478    1.2670 C.ar    1  UNL1       -0.0498
     19 N          -3.4989    1.4475    0.5620 N.ar    1  UNL1       -0.2351
     20 C          -2.9057    2.6115    0.2521 C.ar    1  UNL1        0.0973
     21 N          -1.6729    2.3224   -0.2626 N.ar    1  UNL1       -0.3229
     22 C          -0.6973    3.2857   -0.7222 C.3     1  UNL1        0.0852
     23 C           0.2132    3.7368    0.3985 C.3     1  UNL1        0.2569
     24 F           1.1238    4.6521   -0.0890 F       1  UNL1       -0.2073
     25 F          -0.4883    4.3790    1.4017 F       1  UNL1       -0.2073
     26 N           0.7858    0.3078   -0.1044 N.ar    1  UNL1       -0.1631
     27 N           1.8200   -0.3919   -0.5274 N.ar    1  UNL1       -0.2138
     28 C           4.9299   -0.0177    1.5528 C.3     1  UNL1        0.4210
     29 F           5.7776    0.1134    0.4794 F       1  UNL1       -0.1675
     30 F           4.9083   -1.3534    1.9542 F       1  UNL1       -0.1675
     31 F           5.4194    0.7887    2.5606 F       1  UNL1       -0.1675
     32 H           3.0872    0.4273    3.0931 H       1  UNL1        0.2107
     33 H           3.5886    1.4910    0.9067 H       1  UNL1        0.0751
     34 H           4.8352   -1.5655   -0.6941 H       1  UNL1        0.0849
     35 H           0.4783   -2.0287   -3.0987 H       1  UNL1        0.0655
     36 H          -1.4765   -0.6954   -2.2860 H       1  UNL1        0.0641
     37 H          -4.6560   -1.0494   -0.8814 H       1  UNL1        0.0625
     38 H          -5.0528   -3.4787   -0.5302 H       1  UNL1        0.0646
     39 H          -1.7355   -3.6390    2.1079 H       1  UNL1        0.0646
     40 H          -1.3425   -1.2533    1.7655 H       1  UNL1        0.0625
     41 H          -3.2954    3.6274    0.3705 H       1  UNL1        0.1029
     42 H          -0.0193    2.7730   -1.4666 H       1  UNL1        0.0548
     43 H          -1.1961    4.1371   -1.1908 H       1  UNL1        0.0548
     44 H           0.7547    2.9115    0.8664 H       1  UNL1        0.1037
@<TRIPOS>BOND
     1     1     2    1
     2     2     3    1
     3     3     4   ar
     4     4     5   ar
     5     5     6   ar
     6     6     7   ar
     7     7     8   ar
     8     8     9   ar
     9     9    10    1
    10    10    11   ar
    11    11    12    1
    12    12    13   ar
    13    13    14   ar
    14    14    15   ar
    15    15    16    1
    16    15    17   ar
    17    17    18   ar
    18    11    19   ar
    19    19    20   ar
    20    20    21   ar
    21    21    22    1
    22    22    23    1
    23    23    24    1
    24    23    25    1
    25     9    26   ar
    26    26    27   ar
    27     2    28    1
    28    28    29    1
    29    28    30    1
    30    28    31    1
    31    27     3   ar
    32    27     6   ar
    33    21    10   ar
    34    18    12   ar
    35     1    32    1
    36     2    33    1
    37     4    34    1
    38     7    35    1
    39     8    36    1
    40    13    37    1
    41    14    38    1
    42    17    39    1
    43    18    40    1
    44    20    41    1
    45    22    42    1
    46    22    43    1
    47    23    44    1
