
     RDKit          3D

 44 47  0  0  0  0  0  0  0  0999 V2000
    2.6392    0.2898    2.2171 O   0  0  0  0  0  0  0  0  0  0  0  0
    3.5455    0.3938    1.1577 C   0  0  0  0  0  0  0  0  0  0  0  0
    3.0859   -0.4020   -0.0073 C   0  0  0  0  0  0  0  0  0  0  0  0
    3.7919   -1.2823   -0.7895 C   0  0  0  0  0  0  0  0  0  0  0  0
    2.9554   -1.7745   -1.7450 N   0  0  0  0  0  0  0  0  0  0  0  0
    1.7477   -1.2232   -1.5771 C   0  0  0  0  0  0  0  0  0  0  0  0
    0.5334   -1.3521   -2.2458 C   0  0  0  0  0  0  0  0  0  0  0  0
   -0.5253   -0.6213   -1.7950 C   0  0  0  0  0  0  0  0  0  0  0  0
   -0.3971    0.2126   -0.7186 C   0  0  0  0  0  0  0  0  0  0  0  0
   -1.5613    0.9921   -0.2471 C   0  0  0  0  0  0  0  0  0  0  0  0
   -2.6845    0.4142    0.2622 C   0  0  0  0  0  0  0  0  0  0  0  0
   -2.9439   -0.9879    0.4408 C   0  0  0  0  0  0  0  0  0  0  0  0
   -4.0028   -1.6030   -0.2198 C   0  0  0  0  0  0  0  0  0  0  0  0
   -4.2342   -2.9640   -0.0301 C   0  0  0  0  0  0  0  0  0  0  0  0
   -3.4452   -3.7372    0.7976 C   0  0  0  0  0  0  0  0  0  0  0  0
   -3.6378   -5.0529    1.0053 F   0  0  0  0  0  0  0  0  0  0  0  0
   -2.3996   -3.0936    1.4400 C   0  0  0  0  0  0  0  0  0  0  0  0
   -2.1520   -1.7478    1.2670 C   0  0  0  0  0  0  0  0  0  0  0  0
   -3.4989    1.4475    0.5620 N   0  0  0  0  0  0  0  0  0  0  0  0
   -2.9057    2.6115    0.2521 C   0  0  0  0  0  0  0  0  0  0  0  0
   -1.6729    2.3224   -0.2626 N   0  0  0  0  0  0  0  0  0  0  0  0
   -0.6973    3.2857   -0.7222 C   0  0  0  0  0  0  0  0  0  0  0  0
    0.2132    3.7368    0.3985 C   0  0  0  0  0  0  0  0  0  0  0  0
    1.1238    4.6521   -0.0890 F   0  0  0  0  0  0  0  0  0  0  0  0
   -0.4883    4.3790    1.4017 F   0  0  0  0  0  0  0  0  0  0  0  0
    0.7858    0.3078   -0.1044 N   0  0  0  0  0  0  0  0  0  0  0  0
    1.8200   -0.3919   -0.5274 N   0  0  0  0  0  0  0  0  0  0  0  0
    4.9299   -0.0177    1.5528 C   0  0  0  0  0  0  0  0  0  0  0  0
    5.7776    0.1134    0.4794 F   0  0  0  0  0  0  0  0  0  0  0  0
    4.9083   -1.3534    1.9542 F   0  0  0  0  0  0  0  0  0  0  0  0
    5.4194    0.7887    2.5606 F   0  0  0  0  0  0  0  0  0  0  0  0
    3.0872    0.4273    3.0931 H   0  0  0  0  0  0  0  0  0  0  0  0
    3.5886    1.4910    0.9067 H   0  0  0  0  0  0  0  0  0  0  0  0
    4.8352   -1.5655   -0.6941 H   0  0  0  0  0  0  0  0  0  0  0  0
    0.4783   -2.0287   -3.0987 H   0  0  0  0  0  0  0  0  0  0  0  0
   -1.4765   -0.6954   -2.2860 H   0  0  0  0  0  0  0  0  0  0  0  0
   -4.6560   -1.0494   -0.8814 H   0  0  0  0  0  0  0  0  0  0  0  0
   -5.0528   -3.4787   -0.5302 H   0  0  0  0  0  0  0  0  0  0  0  0
   -1.7355   -3.6390    2.1079 H   0  0  0  0  0  0  0  0  0  0  0  0
   -1.3425   -1.2533    1.7655 H   0  0  0  0  0  0  0  0  0  0  0  0
   -3.2954    3.6274    0.3705 H   0  0  0  0  0  0  0  0  0  0  0  0
   -0.0193    2.7730   -1.4666 H   0  0  0  0  0  0  0  0  0  0  0  0
   -1.1961    4.1371   -1.1908 H   0  0  0  0  0  0  0  0  0  0  0  0
    0.7547    2.9115    0.8664 H   0  0  0  0  0  0  0  0  0  0  0  0
  1  2  1  0
  2  3  1  0
  3  4  2  0
  4  5  1  0
  5  6  2  0
  6  7  1  0
  7  8  2  0
  8  9  1  0
  9 10  1  0
 10 11  2  0
 11 12  1  0
 12 13  2  0
 13 14  1  0
 14 15  2  0
 15 16  1  0
 15 17  1  0
 17 18  2  0
 11 19  1  0
 19 20  2  0
 20 21  1  0
 21 22  1  0
 22 23  1  0
 23 24  1  0
 23 25  1  0
  9 26  2  0
 26 27  1  0
  2 28  1  0
 28 29  1  0
 28 30  1  0
 28 31  1  0
 27  3  1  0
 27  6  1  0
 21 10  1  0
 18 12  1  0
  1 32  1  0
  2 33  1  0
  4 34  1  0
  7 35  1  0
  8 36  1  0
 13 37  1  0
 14 38  1  0
 17 39  1  0
 18 40  1  0
 20 41  1  0
 22 42  1  0
 22 43  1  0
 23 44  1  0
M  END
$$$$
