@<TRIPOS>MOLECULE
*****
 32 31 0 0 0
SMALL
GASTEIGER

@<TRIPOS>ATOM
      1 C          -3.9755    1.3900    0.2070 C.3     1  UNL1       -0.0653
      2 C          -3.6852    0.7646   -1.1260 C.3     1  UNL1       -0.0559
      3 C          -2.9487   -0.5370   -1.0028 C.3     1  UNL1       -0.0533
      4 C          -1.6159   -0.3292   -0.3098 C.3     1  UNL1       -0.0531
      5 C          -0.9840   -1.7233   -0.2349 C.3     1  UNL1       -0.0530
      6 C           0.3198   -1.6026    0.4513 C.3     1  UNL1       -0.0526
      7 C           1.3383   -0.7193   -0.2274 C.3     1  UNL1       -0.0430
      8 C           2.5430   -0.7851    0.6975 C.3     1  UNL1        0.0449
      9 C           3.6981   -0.0258    0.2252 C.2     1  UNL1        0.3068
     10 O           4.7630   -0.6246   -0.1723 O.2     1  UNL1       -0.2509
     11 O           3.6447    1.3624    0.2078 O.3     1  UNL1       -0.4679
     12 C           4.7191    2.1685   -0.2379 C.3     1  UNL1        0.0817
     13 H          -5.0795    1.5378    0.3392 H       1  UNL1        0.0230
     14 H          -3.5402    2.4028    0.2295 H       1  UNL1        0.0230
     15 H          -3.5473    0.8141    1.0503 H       1  UNL1        0.0230
     16 H          -3.1451    1.4325   -1.7947 H       1  UNL1        0.0263
     17 H          -4.6738    0.4879   -1.6032 H       1  UNL1        0.0263
     18 H          -2.6887   -0.8898   -2.0364 H       1  UNL1        0.0265
     19 H          -3.5859   -1.2547   -0.4849 H       1  UNL1        0.0265
     20 H          -1.7056    0.0999    0.6841 H       1  UNL1        0.0265
     21 H          -0.9993    0.2489   -1.0104 H       1  UNL1        0.0265
     22 H          -0.8148   -2.1177   -1.2477 H       1  UNL1        0.0265
     23 H          -1.6713   -2.3842    0.3417 H       1  UNL1        0.0265
     24 H           0.1578   -1.1959    1.4731 H       1  UNL1        0.0265
     25 H           0.8203   -2.5922    0.5466 H       1  UNL1        0.0265
     26 H           0.9874    0.3443   -0.3401 H       1  UNL1        0.0270
     27 H           1.6177   -1.1337   -1.2143 H       1  UNL1        0.0270
     28 H           2.8101   -1.8654    0.7338 H       1  UNL1        0.0377
     29 H           2.2359   -0.4030    1.6749 H       1  UNL1        0.0377
     30 H           4.4325    2.7579   -1.1395 H       1  UNL1        0.0661
     31 H           5.5821    1.5140   -0.4280 H       1  UNL1        0.0661
     32 H           4.9908    2.8580    0.6131 H       1  UNL1        0.0661
@<TRIPOS>BOND
     1     1     2    1
     2     2     3    1
     3     3     4    1
     4     4     5    1
     5     5     6    1
     6     6     7    1
     7     7     8    1
     8     8     9    1
     9     9    10    2
    10     9    11    1
    11    11    12    1
    12     1    13    1
    13     1    14    1
    14     1    15    1
    15     2    16    1
    16     2    17    1
    17     3    18    1
    18     3    19    1
    19     4    20    1
    20     4    21    1
    21     5    22    1
    22     5    23    1
    23     6    24    1
    24     6    25    1
    25     7    26    1
    26     7    27    1
    27     8    28    1
    28     8    29    1
    29    12    30    1
    30    12    31    1
    31    12    32    1
