
     RDKit          3D

 32 31  0  0  0  0  0  0  0  0999 V2000
   -3.9755    1.3900    0.2070 C   0  0  0  0  0  0  0  0  0  0  0  0
   -3.6852    0.7646   -1.1260 C   0  0  0  0  0  0  0  0  0  0  0  0
   -2.9487   -0.5370   -1.0028 C   0  0  0  0  0  0  0  0  0  0  0  0
   -1.6159   -0.3292   -0.3098 C   0  0  0  0  0  0  0  0  0  0  0  0
   -0.9840   -1.7233   -0.2349 C   0  0  0  0  0  0  0  0  0  0  0  0
    0.3198   -1.6026    0.4513 C   0  0  0  0  0  0  0  0  0  0  0  0
    1.3383   -0.7193   -0.2274 C   0  0  0  0  0  0  0  0  0  0  0  0
    2.5430   -0.7851    0.6975 C   0  0  0  0  0  0  0  0  0  0  0  0
    3.6981   -0.0258    0.2252 C   0  0  0  0  0  0  0  0  0  0  0  0
    4.7630   -0.6246   -0.1723 O   0  0  0  0  0  0  0  0  0  0  0  0
    3.6447    1.3624    0.2078 O   0  0  0  0  0  0  0  0  0  0  0  0
    4.7191    2.1685   -0.2379 C   0  0  0  0  0  0  0  0  0  0  0  0
   -5.0795    1.5378    0.3392 H   0  0  0  0  0  0  0  0  0  0  0  0
   -3.5402    2.4028    0.2295 H   0  0  0  0  0  0  0  0  0  0  0  0
   -3.5473    0.8141    1.0503 H   0  0  0  0  0  0  0  0  0  0  0  0
   -3.1451    1.4325   -1.7947 H   0  0  0  0  0  0  0  0  0  0  0  0
   -4.6738    0.4879   -1.6032 H   0  0  0  0  0  0  0  0  0  0  0  0
   -2.6887   -0.8898   -2.0364 H   0  0  0  0  0  0  0  0  0  0  0  0
   -3.5859   -1.2547   -0.4849 H   0  0  0  0  0  0  0  0  0  0  0  0
   -1.7056    0.0999    0.6841 H   0  0  0  0  0  0  0  0  0  0  0  0
   -0.9993    0.2489   -1.0104 H   0  0  0  0  0  0  0  0  0  0  0  0
   -0.8148   -2.1177   -1.2477 H   0  0  0  0  0  0  0  0  0  0  0  0
   -1.6713   -2.3842    0.3417 H   0  0  0  0  0  0  0  0  0  0  0  0
    0.1578   -1.1959    1.4731 H   0  0  0  0  0  0  0  0  0  0  0  0
    0.8203   -2.5922    0.5466 H   0  0  0  0  0  0  0  0  0  0  0  0
    0.9874    0.3443   -0.3401 H   0  0  0  0  0  0  0  0  0  0  0  0
    1.6177   -1.1337   -1.2143 H   0  0  0  0  0  0  0  0  0  0  0  0
    2.8101   -1.8654    0.7338 H   0  0  0  0  0  0  0  0  0  0  0  0
    2.2359   -0.4030    1.6749 H   0  0  0  0  0  0  0  0  0  0  0  0
    4.4325    2.7579   -1.1395 H   0  0  0  0  0  0  0  0  0  0  0  0
    5.5821    1.5140   -0.4280 H   0  0  0  0  0  0  0  0  0  0  0  0
    4.9908    2.8580    0.6131 H   0  0  0  0  0  0  0  0  0  0  0  0
  1  2  1  0
  2  3  1  0
  3  4  1  0
  4  5  1  0
  5  6  1  0
  6  7  1  0
  7  8  1  0
  8  9  1  0
  9 10  2  0
  9 11  1  0
 11 12  1  0
  1 13  1  0
  1 14  1  0
  1 15  1  0
  2 16  1  0
  2 17  1  0
  3 18  1  0
  3 19  1  0
  4 20  1  0
  4 21  1  0
  5 22  1  0
  5 23  1  0
  6 24  1  0
  6 25  1  0
  7 26  1  0
  7 27  1  0
  8 28  1  0
  8 29  1  0
 12 30  1  0
 12 31  1  0
 12 32  1  0
M  END
$$$$
