@<TRIPOS>MOLECULE
*****
 59 63 0 0 0
SMALL
GASTEIGER

@<TRIPOS>ATOM
      1 N          -6.1450    3.0303   -0.8472 N.am    1  UNL1       -0.3289
      2 C          -6.3761    1.7261   -0.3159 C.2     1  UNL1        0.2167
      3 O          -7.5354    1.2787   -0.1210 O.2     1  UNL1       -0.2754
      4 C          -5.1942    0.9051    0.0030 C.3     1  UNL1        0.0477
      5 C          -5.6252   -0.4206    0.5453 C.3     1  UNL1       -0.0362
      6 C          -4.4318   -1.2602    0.9534 C.3     1  UNL1       -0.0394
      7 C          -3.5354   -0.5287    1.9278 C.3     1  UNL1       -0.0439
      8 C          -3.1624    0.8138    1.3561 C.3     1  UNL1       -0.0023
      9 C          -4.3969    1.6359    1.0642 C.3     1  UNL1       -0.0328
     10 C          -2.3418    0.5733    0.1058 C.3     1  UNL1        0.1103
     11 O          -1.2503   -0.2433    0.4962 O.3     1  UNL1       -0.4464
     12 C           0.0678    0.1356    0.3073 C.2     1  UNL1        0.4032
     13 O           0.2647    1.2529   -0.2340 O.2     1  UNL1       -0.2262
     14 N           1.1701   -0.6797    0.6971 N.am    1  UNL1       -0.2656
     15 C           1.1472   -1.9848    1.3286 C.3     1  UNL1        0.0196
     16 C           2.2854   -2.6807    0.6041 C.3     1  UNL1       -0.0171
     17 C           3.3422   -1.6206    0.6252 C.3     1  UNL1        0.0392
     18 N           4.3209   -1.7697   -0.4092 N.pl3   1  UNL1       -0.3247
     19 C           5.3747   -0.8249   -0.4932 C.ar    1  UNL1        0.1189
     20 C           6.3430   -0.9175   -1.4654 C.ar    1  UNL1       -0.0214
     21 C           7.3768   -0.0057   -1.5617 C.ar    1  UNL1       -0.0454
     22 C           7.4133    1.0139   -0.6451 C.ar    1  UNL1        0.0730
     23 C           8.5191    2.0305   -0.7096 C.3     1  UNL1        0.4188
     24 F           8.3093    3.0058    0.2376 F       1  UNL1       -0.1658
     25 F           8.5641    2.5767   -1.9593 F       1  UNL1       -0.1658
     26 F           9.6954    1.3219   -0.4632 F       1  UNL1       -0.1658
     27 C           6.4447    1.1107    0.3313 C.ar    1  UNL1        0.0413
     28 N           5.4569    0.1921    0.3793 N.ar    1  UNL1       -0.2400
     29 C           2.5666   -0.3375    0.5256 C.3     1  UNL1        0.0362
     30 C          -3.1937   -0.1986   -0.8749 C.3     1  UNL1       -0.0023
     31 C          -3.6161   -1.5102   -0.2995 C.3     1  UNL1       -0.0439
     32 C          -4.3720    0.6521   -1.2430 C.3     1  UNL1       -0.0328
     33 H          -6.2930    3.2118   -1.8609 H       1  UNL1        0.1449
     34 H          -5.8310    3.7994   -0.2329 H       1  UNL1        0.1449
     35 H          -6.1148   -0.9801   -0.2967 H       1  UNL1        0.0278
     36 H          -6.3723   -0.3221    1.3664 H       1  UNL1        0.0278
     37 H          -4.7921   -2.2025    1.4102 H       1  UNL1        0.0301
     38 H          -4.0483   -0.4344    2.9135 H       1  UNL1        0.0272
     39 H          -2.6252   -1.1327    2.0517 H       1  UNL1        0.0272
     40 H          -2.5383    1.3541    2.1226 H       1  UNL1        0.0337
     41 H          -4.9979    1.6696    1.9786 H       1  UNL1        0.0279
     42 H          -4.0866    2.6250    0.7318 H       1  UNL1        0.0279
     43 H          -2.0196    1.5238   -0.3554 H       1  UNL1        0.0740
     44 H           0.1876   -2.4927    1.1856 H       1  UNL1        0.0466
     45 H           1.4128   -1.8609    2.4035 H       1  UNL1        0.0466
     46 H           1.9305   -2.9118   -0.4100 H       1  UNL1        0.0299
     47 H           2.5676   -3.5878    1.1753 H       1  UNL1        0.0299
     48 H           3.8763   -1.7006    1.6168 H       1  UNL1        0.0514
     49 H           4.2653   -2.5655   -1.0999 H       1  UNL1        0.1478
     50 H           6.2816   -1.7371   -2.1730 H       1  UNL1        0.0652
     51 H           8.1391   -0.0703   -2.3195 H       1  UNL1        0.0625
     52 H           6.4886    1.9163    1.0419 H       1  UNL1        0.0836
     53 H           2.8999    0.3608    1.3351 H       1  UNL1        0.0484
     54 H           2.7658    0.1450   -0.4460 H       1  UNL1        0.0484
     55 H          -2.5596   -0.4083   -1.7746 H       1  UNL1        0.0337
     56 H          -4.2572   -2.0307   -1.0204 H       1  UNL1        0.0272
     57 H          -2.7261   -2.1047   -0.0115 H       1  UNL1        0.0272
     58 H          -4.0259    1.6046   -1.6947 H       1  UNL1        0.0279
     59 H          -5.0128    0.0592   -1.9280 H       1  UNL1        0.0279
@<TRIPOS>BOND
     1     1     2   am
     2     2     3    2
     3     4     2    1
     4     4     5    1
     5     5     6    1
     6     6     7    1
     7     7     8    1
     8     8     9    1
     9     8    10    1
    10    10    11    1
    11    11    12    1
    12    12    13    2
    13    12    14   am
    14    14    15    1
    15    15    16    1
    16    16    17    1
    17    17    18    1
    18    18    19    1
    19    19    20   ar
    20    20    21   ar
    21    21    22   ar
    22    22    23    1
    23    23    24    1
    24    23    25    1
    25    23    26    1
    26    22    27   ar
    27    27    28   ar
    28    17    29    1
    29    10    30    1
    30    30    31    1
    31    30    32    1
    32     9     4    1
    33    29    14    1
    34    32     4    1
    35    31     6    1
    36    28    19   ar
    37     1    33    1
    38     1    34    1
    39     5    35    1
    40     5    36    1
    41     6    37    1
    42     7    38    1
    43     7    39    1
    44     8    40    1
    45     9    41    1
    46     9    42    1
    47    10    43    1
    48    15    44    1
    49    15    45    1
    50    16    46    1
    51    16    47    1
    52    17    48    1
    53    18    49    1
    54    20    50    1
    55    21    51    1
    56    27    52    1
    57    29    53    1
    58    29    54    1
    59    30    55    1
    60    31    56    1
    61    31    57    1
    62    32    58    1
    63    32    59    1
