
     RDKit          3D

 18 19  0  0  0  0  0  0  0  0999 V2000
   -2.9049    2.5981    0.3586 Cl  0  0  0  0  0  0  0  0  0  0  0  0
   -2.1115    1.0604    0.2104 C   0  0  0  0  0  0  0  0  0  0  0  0
   -2.8852   -0.0807    0.1945 C   0  0  0  0  0  0  0  0  0  0  0  0
   -2.2478   -1.2972    0.0765 C   0  0  0  0  0  0  0  0  0  0  0  0
   -0.8679   -1.3566   -0.0224 C   0  0  0  0  0  0  0  0  0  0  0  0
   -0.0786   -0.2256   -0.0083 C   0  0  0  0  0  0  0  0  0  0  0  0
    1.3755   -0.2913   -0.1128 C   0  0  0  0  0  0  0  0  0  0  0  0
    2.2685    0.7585   -0.1107 C   0  0  0  0  0  0  0  0  0  0  0  0
    3.5241    0.2789   -0.2266 N   0  0  0  0  0  0  0  0  0  0  0  0
    3.4233   -1.0505   -0.3004 N   0  0  0  0  0  0  0  0  0  0  0  0
    2.1300   -1.3970   -0.2321 N   0  0  0  0  0  0  0  0  0  0  0  0
   -0.7213    0.9899    0.1100 C   0  0  0  0  0  0  0  0  0  0  0  0
   -3.9711   -0.0224    0.2731 H   0  0  0  0  0  0  0  0  0  0  0  0
   -2.8597   -2.1966    0.0642 H   0  0  0  0  0  0  0  0  0  0  0  0
   -0.3489   -2.3112   -0.1163 H   0  0  0  0  0  0  0  0  0  0  0  0
    1.9814    1.8154   -0.0266 H   0  0  0  0  0  0  0  0  0  0  0  0
    4.4293    0.8285   -0.2558 H   0  0  0  0  0  0  0  0  0  0  0  0
   -0.1352    1.8993    0.1248 H   0  0  0  0  0  0  0  0  0  0  0  0
  1  2  1  0
  2  3  2  0
  3  4  1  0
  4  5  2  0
  5  6  1  0
  6  7  1  0
  7  8  2  0
  8  9  1  0
  9 10  1  0
 10 11  2  0
  6 12  2  0
 12  2  1  0
 11  7  1  0
  3 13  1  0
  4 14  1  0
  5 15  1  0
  8 16  1  0
  9 17  1  0
 12 18  1  0
M  END
$$$$
