@<TRIPOS>MOLECULE
*****
 18 19 0 0 0
SMALL
GASTEIGER

@<TRIPOS>ATOM
      1 CL         -2.9049    2.5981    0.3586 Cl      1  UNL1       -0.0835
      2 C          -2.1115    1.0604    0.2104 C.ar    1  UNL1        0.0416
      3 C          -2.8852   -0.0807    0.1945 C.ar    1  UNL1       -0.0434
      4 C          -2.2478   -1.2972    0.0765 C.ar    1  UNL1       -0.0598
      5 C          -0.8679   -1.3566   -0.0224 C.ar    1  UNL1       -0.0524
      6 C          -0.0786   -0.2256   -0.0083 C.ar    1  UNL1        0.0050
      7 C           1.3755   -0.2913   -0.1128 C.ar    1  UNL1        0.1123
      8 C           2.2685    0.7585   -0.1107 C.ar    1  UNL1        0.0502
      9 N           3.5241    0.2789   -0.2266 N.ar    1  UNL1       -0.2643
     10 N           3.4233   -1.0505   -0.3004 N.ar    1  UNL1       -0.0678
     11 N           2.1300   -1.3970   -0.2321 N.ar    1  UNL1       -0.1297
     12 C          -0.7213    0.9899    0.1100 C.ar    1  UNL1       -0.0341
     13 H          -3.9711   -0.0224    0.2731 H       1  UNL1        0.0632
     14 H          -2.8597   -2.1966    0.0642 H       1  UNL1        0.0618
     15 H          -0.3489   -2.3112   -0.1163 H       1  UNL1        0.0624
     16 H           1.9814    1.8154   -0.0266 H       1  UNL1        0.0846
     17 H           4.4293    0.8285   -0.2558 H       1  UNL1        0.1900
     18 H          -0.1352    1.8993    0.1248 H       1  UNL1        0.0639
@<TRIPOS>BOND
     1     1     2    1
     2     2     3   ar
     3     3     4   ar
     4     4     5   ar
     5     5     6   ar
     6     6     7    1
     7     7     8   ar
     8     8     9   ar
     9     9    10   ar
    10    10    11   ar
    11     6    12   ar
    12    12     2   ar
    13    11     7   ar
    14     3    13    1
    15     4    14    1
    16     5    15    1
    17     8    16    1
    18     9    17    1
    19    12    18    1
