@<TRIPOS>MOLECULE
*****
 39 41 0 0 0
SMALL
GASTEIGER

@<TRIPOS>ATOM
      1 N          -3.1860    2.6628    1.7514 N.1     1  UNL1       -0.1946
      2 C          -3.5155    1.8858    0.9235 C.1     1  UNL1        0.0851
      3 C          -3.9322    0.9245   -0.0710 C.3     1  UNL1        0.1129
      4 C          -5.3997    0.6440    0.0252 C.3     1  UNL1       -0.0196
      5 C          -5.5092   -0.8504   -0.0455 C.3     1  UNL1       -0.0345
      6 C          -4.1922   -1.3240    0.5352 C.3     1  UNL1        0.0161
      7 N          -3.2461   -0.3466    0.0638 N.am    1  UNL1       -0.2844
      8 C          -1.8674   -0.5670   -0.2225 C.2     1  UNL1        0.2337
      9 O          -1.3291   -1.7007   -0.0813 O.2     1  UNL1       -0.2738
     10 C          -1.0415    0.5569   -0.6963 C.3     1  UNL1        0.0886
     11 N           0.3231    0.1401   -0.9185 N.am    1  UNL1       -0.3027
     12 C           1.1414   -0.4083    0.0918 C.2     1  UNL1        0.2452
     13 O           0.6616   -0.5497    1.2350 O.2     1  UNL1       -0.2702
     14 C           2.5190   -0.8158   -0.1423 C.ar    1  UNL1        0.0487
     15 C           2.7735   -2.1268   -0.5924 C.ar    1  UNL1       -0.0308
     16 C           4.0484   -2.5446   -0.7957 C.ar    1  UNL1        0.0290
     17 N           5.0802   -1.6894   -0.5627 N.ar    1  UNL1       -0.2549
     18 C           4.9141   -0.4409   -0.1400 C.ar    1  UNL1        0.0731
     19 C           6.0051    0.3708    0.0735 C.ar    1  UNL1       -0.0356
     20 C           5.7736    1.6568    0.5110 C.ar    1  UNL1       -0.0583
     21 C           4.5019    2.1278    0.7313 C.ar    1  UNL1       -0.0427
     22 C           3.4155    1.3011    0.5127 C.ar    1  UNL1        0.0509
     23 CL          1.7810    1.9062    0.7825 Cl      1  UNL1       -0.0828
     24 C           3.6084    0.0073    0.0748 C.ar    1  UNL1        0.0308
     25 H          -3.7254    1.3116   -1.1013 H       1  UNL1        0.0659
     26 H          -5.8313    0.9847    0.9844 H       1  UNL1        0.0294
     27 H          -5.9492    1.1369   -0.8289 H       1  UNL1        0.0294
     28 H          -6.3739   -1.2195    0.5508 H       1  UNL1        0.0281
     29 H          -5.5490   -1.2279   -1.0884 H       1  UNL1        0.0281
     30 H          -3.9751   -2.3543    0.2009 H       1  UNL1        0.0465
     31 H          -4.2301   -1.2554    1.6591 H       1  UNL1        0.0465
     32 H          -1.0825    1.3830    0.0672 H       1  UNL1        0.0558
     33 H          -1.4370    0.9936   -1.6373 H       1  UNL1        0.0558
     34 H           0.7566    0.2370   -1.8724 H       1  UNL1        0.1495
     35 H           1.8904   -2.7434   -0.7547 H       1  UNL1        0.0640
     36 H           4.2362   -3.5612   -1.1442 H       1  UNL1        0.0830
     37 H           7.0384    0.0276   -0.0932 H       1  UNL1        0.0639
     38 H           6.6130    2.3331    0.6930 H       1  UNL1        0.0619
     39 H           4.2909    3.1343    1.0756 H       1  UNL1        0.0632
@<TRIPOS>BOND
     1     1     2    3
     2     2     3    1
     3     3     4    1
     4     4     5    1
     5     5     6    1
     6     6     7    1
     7     7     8   am
     8     8     9    2
     9     8    10    1
    10    10    11    1
    11    11    12   am
    12    12    13    2
    13    12    14    1
    14    14    15   ar
    15    15    16   ar
    16    16    17   ar
    17    17    18   ar
    18    18    19   ar
    19    19    20   ar
    20    20    21   ar
    21    21    22   ar
    22    22    23    1
    23    22    24   ar
    24     7     3    1
    25    24    14   ar
    26    24    18   ar
    27     3    25    1
    28     4    26    1
    29     4    27    1
    30     5    28    1
    31     5    29    1
    32     6    30    1
    33     6    31    1
    34    10    32    1
    35    10    33    1
    36    11    34    1
    37    15    35    1
    38    16    36    1
    39    19    37    1
    40    20    38    1
    41    21    39    1
