
     RDKit          3D

 39 41  0  0  0  0  0  0  0  0999 V2000
   -3.1860    2.6628    1.7514 N   0  0  0  0  0  0  0  0  0  0  0  0
   -3.5155    1.8858    0.9235 C   0  0  0  0  0  0  0  0  0  0  0  0
   -3.9322    0.9245   -0.0710 C   0  0  2  0  0  0  0  0  0  0  0  0
   -5.3997    0.6440    0.0252 C   0  0  0  0  0  0  0  0  0  0  0  0
   -5.5092   -0.8504   -0.0455 C   0  0  0  0  0  0  0  0  0  0  0  0
   -4.1922   -1.3240    0.5352 C   0  0  0  0  0  0  0  0  0  0  0  0
   -3.2461   -0.3466    0.0638 N   0  0  0  0  0  0  0  0  0  0  0  0
   -1.8674   -0.5670   -0.2225 C   0  0  0  0  0  0  0  0  0  0  0  0
   -1.3291   -1.7007   -0.0813 O   0  0  0  0  0  0  0  0  0  0  0  0
   -1.0415    0.5569   -0.6963 C   0  0  0  0  0  0  0  0  0  0  0  0
    0.3231    0.1401   -0.9185 N   0  0  0  0  0  0  0  0  0  0  0  0
    1.1414   -0.4083    0.0918 C   0  0  0  0  0  0  0  0  0  0  0  0
    0.6616   -0.5497    1.2350 O   0  0  0  0  0  0  0  0  0  0  0  0
    2.5190   -0.8158   -0.1423 C   0  0  0  0  0  0  0  0  0  0  0  0
    2.7735   -2.1268   -0.5924 C   0  0  0  0  0  0  0  0  0  0  0  0
    4.0484   -2.5446   -0.7957 C   0  0  0  0  0  0  0  0  0  0  0  0
    5.0802   -1.6894   -0.5627 N   0  0  0  0  0  0  0  0  0  0  0  0
    4.9141   -0.4409   -0.1400 C   0  0  0  0  0  0  0  0  0  0  0  0
    6.0051    0.3708    0.0735 C   0  0  0  0  0  0  0  0  0  0  0  0
    5.7736    1.6568    0.5110 C   0  0  0  0  0  0  0  0  0  0  0  0
    4.5019    2.1278    0.7313 C   0  0  0  0  0  0  0  0  0  0  0  0
    3.4155    1.3011    0.5127 C   0  0  0  0  0  0  0  0  0  0  0  0
    1.7810    1.9062    0.7825 Cl  0  0  0  0  0  0  0  0  0  0  0  0
    3.6084    0.0073    0.0748 C   0  0  0  0  0  0  0  0  0  0  0  0
   -3.7254    1.3116   -1.1013 H   0  0  0  0  0  0  0  0  0  0  0  0
   -5.8313    0.9847    0.9844 H   0  0  0  0  0  0  0  0  0  0  0  0
   -5.9492    1.1369   -0.8289 H   0  0  0  0  0  0  0  0  0  0  0  0
   -6.3739   -1.2195    0.5508 H   0  0  0  0  0  0  0  0  0  0  0  0
   -5.5490   -1.2279   -1.0884 H   0  0  0  0  0  0  0  0  0  0  0  0
   -3.9751   -2.3543    0.2009 H   0  0  0  0  0  0  0  0  0  0  0  0
   -4.2301   -1.2554    1.6591 H   0  0  0  0  0  0  0  0  0  0  0  0
   -1.0825    1.3830    0.0672 H   0  0  0  0  0  0  0  0  0  0  0  0
   -1.4370    0.9936   -1.6373 H   0  0  0  0  0  0  0  0  0  0  0  0
    0.7566    0.2370   -1.8724 H   0  0  0  0  0  0  0  0  0  0  0  0
    1.8904   -2.7434   -0.7547 H   0  0  0  0  0  0  0  0  0  0  0  0
    4.2362   -3.5612   -1.1442 H   0  0  0  0  0  0  0  0  0  0  0  0
    7.0384    0.0276   -0.0932 H   0  0  0  0  0  0  0  0  0  0  0  0
    6.6130    2.3331    0.6930 H   0  0  0  0  0  0  0  0  0  0  0  0
    4.2909    3.1343    1.0756 H   0  0  0  0  0  0  0  0  0  0  0  0
  1  2  3  0
  2  3  1  0
  3  4  1  0
  4  5  1  0
  5  6  1  0
  6  7  1  0
  7  8  1  0
  8  9  2  0
  8 10  1  0
 10 11  1  0
 11 12  1  0
 12 13  2  0
 12 14  1  0
 14 15  2  0
 15 16  1  0
 16 17  2  0
 17 18  1  0
 18 19  2  0
 19 20  1  0
 20 21  2  0
 21 22  1  0
 22 23  1  0
 22 24  2  0
  7  3  1  0
 24 14  1  0
 24 18  1  0
  3 25  1  6
  4 26  1  0
  4 27  1  0
  5 28  1  0
  5 29  1  0
  6 30  1  0
  6 31  1  0
 10 32  1  0
 10 33  1  0
 11 34  1  0
 15 35  1  0
 16 36  1  0
 19 37  1  0
 20 38  1  0
 21 39  1  0
M  END
$$$$
