
     RDKit          3D

 44 46  0  0  0  0  0  0  0  0999 V2000
    6.4199    1.3663   -0.0060 C   0  0  0  0  0  0  0  0  0  0  0  0
    4.9145    1.5114    0.1592 C   0  0  0  0  0  0  0  0  0  0  0  0
    4.3383    0.2488   -0.2829 N   0  0  0  0  0  0  0  0  0  0  0  0
    2.9019    0.2767   -0.1676 C   0  0  0  0  0  0  0  0  0  0  0  0
    2.4905    1.3806    0.2850 O   0  0  0  0  0  0  0  0  0  0  0  0
    2.0716   -0.8505   -0.5388 C   0  0  0  0  0  0  0  0  0  0  0  0
    2.4129   -2.0616   -1.0236 N   0  0  0  0  0  0  0  0  0  0  0  0
    1.3475   -2.7711   -1.2197 O   0  0  0  0  0  0  0  0  0  0  0  0
    0.2765   -2.0593   -0.8743 C   0  0  0  0  0  0  0  0  0  0  0  0
    0.6938   -0.8009   -0.4243 C   0  0  0  0  0  0  0  0  0  0  0  0
   -0.1626    0.2788    0.0459 C   0  0  0  0  0  0  0  0  0  0  0  0
   -0.1939    0.8804    1.2856 C   0  0  0  0  0  0  0  0  0  0  0  0
   -1.0909    1.8987    1.5324 C   0  0  0  0  0  0  0  0  0  0  0  0
   -1.9704    2.3358    0.5541 C   0  0  0  0  0  0  0  0  0  0  0  0
   -2.8566    3.3615    0.8407 O   0  0  0  0  0  0  0  0  0  0  0  0
   -2.8039    3.9093    2.1468 C   0  0  0  0  0  0  0  0  0  0  0  0
   -1.9693    1.7595   -0.6967 C   0  0  0  0  0  0  0  0  0  0  0  0
   -1.0473    0.7299   -0.9134 C   0  0  0  0  0  0  0  0  0  0  0  0
   -1.1406   -2.4417   -0.9216 C   0  0  0  0  0  0  0  0  0  0  0  0
   -1.8335   -2.4872    0.2712 C   0  0  0  0  0  0  0  0  0  0  0  0
   -1.2512   -2.1882    1.5048 O   0  0  0  0  0  0  0  0  0  0  0  0
   -3.1610   -2.8471    0.2157 C   0  0  0  0  0  0  0  0  0  0  0  0
   -3.8173   -3.1578   -0.9497 C   0  0  0  0  0  0  0  0  0  0  0  0
   -5.1590   -3.5168   -0.9648 O   0  0  0  0  0  0  0  0  0  0  0  0
   -3.1106   -3.1076   -2.1335 C   0  0  0  0  0  0  0  0  0  0  0  0
   -3.9600   -3.5064   -3.6125 Cl  0  0  0  0  0  0  0  0  0  0  0  0
   -1.7716   -2.7487   -2.1127 C   0  0  0  0  0  0  0  0  0  0  0  0
    6.7303    0.2986   -0.1536 H   0  0  0  0  0  0  0  0  0  0  0  0
    6.7694    1.9031   -0.9008 H   0  0  0  0  0  0  0  0  0  0  0  0
    6.9757    1.7295    0.8903 H   0  0  0  0  0  0  0  0  0  0  0  0
    4.5657    2.3571   -0.4728 H   0  0  0  0  0  0  0  0  0  0  0  0
    4.7137    1.7276    1.2142 H   0  0  0  0  0  0  0  0  0  0  0  0
    4.7772   -0.6413   -0.6560 H   0  0  0  0  0  0  0  0  0  0  0  0
    0.5288    0.4727    1.9841 H   0  0  0  0  0  0  0  0  0  0  0  0
   -1.0415    2.3014    2.5163 H   0  0  0  0  0  0  0  0  0  0  0  0
   -3.4931    4.7693    2.2697 H   0  0  0  0  0  0  0  0  0  0  0  0
   -3.0178    3.0675    2.8293 H   0  0  0  0  0  0  0  0  0  0  0  0
   -1.7688    4.2801    2.3222 H   0  0  0  0  0  0  0  0  0  0  0  0
   -2.6565    2.1193   -1.4214 H   0  0  0  0  0  0  0  0  0  0  0  0
   -1.1123    0.3278   -1.9304 H   0  0  0  0  0  0  0  0  0  0  0  0
   -1.7706   -1.7193    2.2433 H   0  0  0  0  0  0  0  0  0  0  0  0
   -3.7042   -2.8827    1.1505 H   0  0  0  0  0  0  0  0  0  0  0  0
   -5.8341   -2.7902   -0.8351 H   0  0  0  0  0  0  0  0  0  0  0  0
   -1.2296   -2.7136   -3.0491 H   0  0  0  0  0  0  0  0  0  0  0  0
  1  2  1  0
  2  3  1  0
  3  4  1  0
  4  5  2  0
  4  6  1  0
  6  7  2  0
  7  8  1  0
  8  9  1  0
  9 10  2  0
 10 11  1  0
 11 12  2  0
 12 13  1  0
 13 14  2  0
 14 15  1  0
 15 16  1  0
 14 17  1  0
 17 18  2  0
  9 19  1  0
 19 20  2  0
 20 21  1  0
 20 22  1  0
 22 23  2  0
 23 24  1  0
 23 25  1  0
 25 26  1  0
 25 27  2  0
 10  6  1  0
 18 11  1  0
 27 19  1  0
  1 28  1  0
  1 29  1  0
  1 30  1  0
  2 31  1  0
  2 32  1  0
  3 33  1  0
 12 34  1  0
 13 35  1  0
 16 36  1  0
 16 37  1  0
 16 38  1  0
 17 39  1  0
 18 40  1  0
 21 41  1  0
 22 42  1  0
 24 43  1  0
 27 44  1  0
M  END
$$$$
