@<TRIPOS>MOLECULE
*****
 44 46 0 0 0
SMALL
GASTEIGER

@<TRIPOS>ATOM
      1 C           6.4199    1.3663   -0.0060 C.3     1  UNL1       -0.0495
      2 C           4.9145    1.5114    0.1592 C.3     1  UNL1        0.0091
      3 N           4.3383    0.2488   -0.2829 N.am    1  UNL1       -0.3102
      4 C           2.9019    0.2767   -0.1676 C.2     1  UNL1        0.2664
      5 O           2.4905    1.3806    0.2850 O.2     1  UNL1       -0.2684
      6 C           2.0716   -0.8505   -0.5388 C.ar    1  UNL1        0.1758
      7 N           2.4129   -2.0616   -1.0236 N.ar    1  UNL1       -0.0723
      8 O           1.3475   -2.7711   -1.2197 O.2     1  UNL1       -0.3532
      9 C           0.2765   -2.0593   -0.8743 C.ar    1  UNL1        0.1792
     10 C           0.6938   -0.8009   -0.4243 C.ar    1  UNL1        0.0614
     11 C          -0.1626    0.2788    0.0459 C.ar    1  UNL1       -0.0117
     12 C          -0.1939    0.8804    1.2856 C.ar    1  UNL1       -0.0504
     13 C          -1.0909    1.8987    1.5324 C.ar    1  UNL1       -0.0194
     14 C          -1.9704    2.3358    0.5541 C.ar    1  UNL1        0.1201
     15 O          -2.8566    3.3615    0.8407 O.3     1  UNL1       -0.4951
     16 C          -2.8039    3.9093    2.1468 C.3     1  UNL1        0.0788
     17 C          -1.9693    1.7595   -0.6967 C.ar    1  UNL1       -0.0194
     18 C          -1.0473    0.7299   -0.9134 C.ar    1  UNL1       -0.0504
     19 C          -1.1406   -2.4417   -0.9216 C.ar    1  UNL1        0.0635
     20 C          -1.8335   -2.4872    0.2712 C.ar    1  UNL1        0.1312
     21 O          -1.2512   -2.1882    1.5048 O.3     1  UNL1       -0.5059
     22 C          -3.1610   -2.8471    0.2157 C.ar    1  UNL1        0.0235
     23 C          -3.8173   -3.1578   -0.9497 C.ar    1  UNL1        0.1386
     24 O          -5.1590   -3.5168   -0.9648 O.3     1  UNL1       -0.5052
     25 C          -3.1106   -3.1076   -2.1335 C.ar    1  UNL1        0.0832
     26 CL         -3.9600   -3.5064   -3.6125 Cl      1  UNL1       -0.0797
     27 C          -1.7716   -2.7487   -2.1127 C.ar    1  UNL1       -0.0255
     28 H           6.7303    0.2986   -0.1536 H       1  UNL1        0.0245
     29 H           6.7694    1.9031   -0.9008 H       1  UNL1        0.0245
     30 H           6.9757    1.7295    0.8903 H       1  UNL1        0.0245
     31 H           4.5657    2.3571   -0.4728 H       1  UNL1        0.0459
     32 H           4.7137    1.7276    1.2142 H       1  UNL1        0.0459
     33 H           4.7772   -0.6413   -0.6560 H       1  UNL1        0.1490
     34 H           0.5288    0.4727    1.9841 H       1  UNL1        0.0625
     35 H          -1.0415    2.3014    2.5163 H       1  UNL1        0.0654
     36 H          -3.4931    4.7693    2.2697 H       1  UNL1        0.0660
     37 H          -3.0178    3.0675    2.8293 H       1  UNL1        0.0660
     38 H          -1.7688    4.2801    2.3222 H       1  UNL1        0.0660
     39 H          -2.6565    2.1193   -1.4214 H       1  UNL1        0.0654
     40 H          -1.1123    0.3278   -1.9304 H       1  UNL1        0.0625
     41 H          -1.7706   -1.7193    2.2433 H       1  UNL1        0.2922
     42 H          -3.7042   -2.8827    1.1505 H       1  UNL1        0.0691
     43 H          -5.8341   -2.7902   -0.8351 H       1  UNL1        0.2922
     44 H          -1.2296   -2.7136   -3.0491 H       1  UNL1        0.0641
@<TRIPOS>BOND
     1     1     2    1
     2     2     3    1
     3     3     4   am
     4     4     5    2
     5     4     6    1
     6     6     7   ar
     7     7     8   ar
     8     8     9   ar
     9     9    10   ar
    10    10    11    1
    11    11    12   ar
    12    12    13   ar
    13    13    14   ar
    14    14    15    1
    15    15    16    1
    16    14    17   ar
    17    17    18   ar
    18     9    19    1
    19    19    20   ar
    20    20    21    1
    21    20    22   ar
    22    22    23   ar
    23    23    24    1
    24    23    25   ar
    25    25    26    1
    26    25    27   ar
    27    10     6   ar
    28    18    11   ar
    29    27    19   ar
    30     1    28    1
    31     1    29    1
    32     1    30    1
    33     2    31    1
    34     2    32    1
    35     3    33    1
    36    12    34    1
    37    13    35    1
    38    16    36    1
    39    16    37    1
    40    16    38    1
    41    17    39    1
    42    18    40    1
    43    21    41    1
    44    22    42    1
    45    24    43    1
    46    27    44    1
