@<TRIPOS>MOLECULE
*****
 37 39 0 0 0
SMALL
GASTEIGER

@<TRIPOS>ATOM
      1 N          -5.2407   -1.8873   -0.4226 N.3     1  UNL1       -0.2541
      2 N          -3.8658   -1.9854   -0.5859 N.am    1  UNL1       -0.2483
      3 C          -3.0129   -0.8897   -0.2207 C.2     1  UNL1        0.2743
      4 O          -3.5448    0.1331    0.2397 O.2     1  UNL1       -0.2673
      5 C          -1.5691   -1.0015   -0.3958 C.ar    1  UNL1        0.1118
      6 C          -0.6726   -0.0027   -0.0736 C.ar    1  UNL1        0.0197
      7 C           0.5826   -0.5048   -0.3891 C.ar    1  UNL1        0.0100
      8 C           0.4150   -1.7976   -0.8954 C.ar    1  UNL1        0.0477
      9 N          -0.9191   -2.0717   -0.8859 N.ar    1  UNL1       -0.3500
     10 C           1.5315   -2.5274   -1.2902 C.ar    1  UNL1       -0.0359
     11 C           2.7726   -1.9469   -1.1678 C.ar    1  UNL1       -0.0334
     12 C           2.9862   -0.6862   -0.6786 C.ar    1  UNL1        0.1057
     13 C           1.8659    0.0358   -0.2865 C.ar    1  UNL1       -0.0256
     14 S           4.6147   -0.0634   -0.5739 S.O2    1  UNL1        0.0560
     15 N           5.3380   -0.4319    0.9382 N.3     1  UNL1       -0.2035
     16 O           5.4304   -0.7364   -1.6439 O.2     1  UNL1       -0.1533
     17 O           4.6497    1.4369   -0.7292 O.2     1  UNL1       -0.1533
     18 C          -0.9488    1.3295    0.4886 C.ar    1  UNL1       -0.0151
     19 C          -1.1500    2.2633   -0.5181 C.ar    1  UNL1       -0.0539
     20 C          -1.4255    3.5862   -0.1783 C.ar    1  UNL1       -0.0612
     21 C          -1.4921    3.9381    1.1420 C.ar    1  UNL1       -0.0617
     22 C          -1.2889    2.9943    2.1473 C.ar    1  UNL1       -0.0612
     23 C          -1.0173    1.6901    1.8091 C.ar    1  UNL1       -0.0539
     24 H          -5.5821   -2.8101   -0.0492 H       1  UNL1        0.1405
     25 H          -5.7569   -1.6286   -1.2887 H       1  UNL1        0.1405
     26 H          -3.4153   -2.8548   -0.9771 H       1  UNL1        0.1691
     27 H          -1.3143   -2.9641   -1.2103 H       1  UNL1        0.1661
     28 H           1.3780   -3.5393   -1.6845 H       1  UNL1        0.0639
     29 H           3.5790   -2.5902   -1.4998 H       1  UNL1        0.0638
     30 H           2.0289    1.0446    0.1057 H       1  UNL1        0.0644
     31 H           5.8509    0.3421    1.3744 H       1  UNL1        0.1442
     32 H           5.7775   -1.3582    0.9836 H       1  UNL1        0.1442
     33 H          -1.1172    2.0789   -1.5920 H       1  UNL1        0.0624
     34 H          -1.5886    4.3446   -0.9367 H       1  UNL1        0.0618
     35 H          -1.7016    4.9449    1.4438 H       1  UNL1        0.0618
     36 H          -1.3346    3.2399    3.2151 H       1  UNL1        0.0618
     37 H          -0.8428    0.8760    2.5022 H       1  UNL1        0.0624
@<TRIPOS>BOND
     1     1     2    1
     2     2     3   am
     3     3     4    2
     4     3     5    1
     5     5     6   ar
     6     6     7   ar
     7     7     8   ar
     8     8     9   ar
     9     8    10   ar
    10    10    11   ar
    11    11    12   ar
    12    12    13   ar
    13    12    14    1
    14    14    15    1
    15    14    16    2
    16    14    17    2
    17     6    18    1
    18    18    19   ar
    19    19    20   ar
    20    20    21   ar
    21    21    22   ar
    22    22    23   ar
    23     9     5   ar
    24    23    18   ar
    25    13     7   ar
    26     1    24    1
    27     1    25    1
    28     2    26    1
    29     9    27    1
    30    10    28    1
    31    11    29    1
    32    13    30    1
    33    15    31    1
    34    15    32    1
    35    19    33    1
    36    20    34    1
    37    21    35    1
    38    22    36    1
    39    23    37    1
