
     RDKit          3D

 37 39  0  0  0  0  0  0  0  0999 V2000
   -5.2407   -1.8873   -0.4226 N   0  0  0  0  0  0  0  0  0  0  0  0
   -3.8658   -1.9854   -0.5859 N   0  0  0  0  0  0  0  0  0  0  0  0
   -3.0129   -0.8897   -0.2207 C   0  0  0  0  0  0  0  0  0  0  0  0
   -3.5448    0.1331    0.2397 O   0  0  0  0  0  0  0  0  0  0  0  0
   -1.5691   -1.0015   -0.3958 C   0  0  0  0  0  0  0  0  0  0  0  0
   -0.6726   -0.0027   -0.0736 C   0  0  0  0  0  0  0  0  0  0  0  0
    0.5826   -0.5048   -0.3891 C   0  0  0  0  0  0  0  0  0  0  0  0
    0.4150   -1.7976   -0.8954 C   0  0  0  0  0  0  0  0  0  0  0  0
   -0.9191   -2.0717   -0.8859 N   0  0  0  0  0  0  0  0  0  0  0  0
    1.5315   -2.5274   -1.2902 C   0  0  0  0  0  0  0  0  0  0  0  0
    2.7726   -1.9469   -1.1678 C   0  0  0  0  0  0  0  0  0  0  0  0
    2.9862   -0.6862   -0.6786 C   0  0  0  0  0  0  0  0  0  0  0  0
    1.8659    0.0358   -0.2865 C   0  0  0  0  0  0  0  0  0  0  0  0
    4.6147   -0.0634   -0.5739 S   0  0  0  0  0  0  0  0  0  0  0  0
    5.3380   -0.4319    0.9382 N   0  0  0  0  0  0  0  0  0  0  0  0
    5.4304   -0.7364   -1.6439 O   0  0  0  0  0  0  0  0  0  0  0  0
    4.6497    1.4369   -0.7292 O   0  0  0  0  0  0  0  0  0  0  0  0
   -0.9488    1.3295    0.4886 C   0  0  0  0  0  0  0  0  0  0  0  0
   -1.1500    2.2633   -0.5181 C   0  0  0  0  0  0  0  0  0  0  0  0
   -1.4255    3.5862   -0.1783 C   0  0  0  0  0  0  0  0  0  0  0  0
   -1.4921    3.9381    1.1420 C   0  0  0  0  0  0  0  0  0  0  0  0
   -1.2889    2.9943    2.1473 C   0  0  0  0  0  0  0  0  0  0  0  0
   -1.0173    1.6901    1.8091 C   0  0  0  0  0  0  0  0  0  0  0  0
   -5.5821   -2.8101   -0.0492 H   0  0  0  0  0  0  0  0  0  0  0  0
   -5.7569   -1.6286   -1.2887 H   0  0  0  0  0  0  0  0  0  0  0  0
   -3.4153   -2.8548   -0.9771 H   0  0  0  0  0  0  0  0  0  0  0  0
   -1.3143   -2.9641   -1.2103 H   0  0  0  0  0  0  0  0  0  0  0  0
    1.3780   -3.5393   -1.6845 H   0  0  0  0  0  0  0  0  0  0  0  0
    3.5790   -2.5902   -1.4998 H   0  0  0  0  0  0  0  0  0  0  0  0
    2.0289    1.0446    0.1057 H   0  0  0  0  0  0  0  0  0  0  0  0
    5.8509    0.3421    1.3744 H   0  0  0  0  0  0  0  0  0  0  0  0
    5.7775   -1.3582    0.9836 H   0  0  0  0  0  0  0  0  0  0  0  0
   -1.1172    2.0789   -1.5920 H   0  0  0  0  0  0  0  0  0  0  0  0
   -1.5886    4.3446   -0.9367 H   0  0  0  0  0  0  0  0  0  0  0  0
   -1.7016    4.9449    1.4438 H   0  0  0  0  0  0  0  0  0  0  0  0
   -1.3346    3.2399    3.2151 H   0  0  0  0  0  0  0  0  0  0  0  0
   -0.8428    0.8760    2.5022 H   0  0  0  0  0  0  0  0  0  0  0  0
  1  2  1  0
  2  3  1  0
  3  4  2  0
  3  5  1  0
  5  6  2  0
  6  7  1  0
  7  8  2  0
  8  9  1  0
  8 10  1  0
 10 11  2  0
 11 12  1  0
 12 13  2  0
 12 14  1  0
 14 15  1  0
 14 16  2  0
 14 17  2  0
  6 18  1  0
 18 19  2  0
 19 20  1  0
 20 21  2  0
 21 22  1  0
 22 23  2  0
  9  5  1  0
 23 18  1  0
 13  7  1  0
  1 24  1  0
  1 25  1  0
  2 26  1  0
  9 27  1  0
 10 28  1  0
 11 29  1  0
 13 30  1  0
 15 31  1  0
 15 32  1  0
 19 33  1  0
 20 34  1  0
 21 35  1  0
 22 36  1  0
 23 37  1  0
M  END
$$$$
