@<TRIPOS>MOLECULE
*****
 40 42 0 0 0
SMALL
GASTEIGER

@<TRIPOS>ATOM
      1 C           4.9260    0.3171    1.3090 C.3     1  UNL1        0.0366
      2 O           3.5638    0.2535    1.0196 O.3     1  UNL1       -0.3804
      3 C           3.4242    0.4664   -0.3472 C.3     1  UNL1        0.0735
      4 C           2.0115    0.4275   -0.8117 C.3     1  UNL1        0.0824
      5 C           1.3858   -0.9687   -0.6722 C.3     1  UNL1       -0.0182
      6 C          -0.0920   -0.7307   -1.0553 C.3     1  UNL1        0.0025
      7 C          -0.6692   -2.0205   -1.5217 C.3     1  UNL1        0.0064
      8 S          -0.4724   -3.2048   -0.1412 S.3     1  UNL1       -0.0907
      9 C          -1.0916   -2.2470    1.2726 C.2     1  UNL1        0.1476
     10 N          -1.5201   -2.9764    2.3962 N.pl3   1  UNL1       -0.3380
     11 N          -1.1043   -0.9983    1.1734 N.2     1  UNL1       -0.2495
     12 C          -0.7233   -0.0960    0.1497 C.3     1  UNL1        0.1185
     13 C          -1.9232    0.7227   -0.1691 C.ar    1  UNL1        0.0178
     14 C          -2.4274    0.8010   -1.4415 C.ar    1  UNL1       -0.0507
     15 C          -3.5326    1.6052   -1.7318 C.ar    1  UNL1       -0.0259
     16 C          -4.1500    2.3424   -0.7592 C.ar    1  UNL1        0.1261
     17 F          -5.2302    3.1342   -1.0220 F       1  UNL1       -0.2054
     18 C          -3.6579    2.2741    0.5140 C.ar    1  UNL1        0.0091
     19 C          -2.5623    1.4725    0.7874 C.ar    1  UNL1        0.1317
     20 F          -2.1523    1.4440    2.0704 F       1  UNL1       -0.2050
     21 C           0.3450    0.8338    0.7364 C.3     1  UNL1        0.0778
     22 O           1.1855    1.3748   -0.2242 O.3     1  UNL1       -0.3715
     23 H           5.0113    0.1432    2.4110 H       1  UNL1        0.0524
     24 H           5.3301    1.3472    1.1498 H       1  UNL1        0.0524
     25 H           5.5153   -0.4585    0.7984 H       1  UNL1        0.0524
     26 H           3.8548    1.4391   -0.6620 H       1  UNL1        0.0585
     27 H           3.9843   -0.3087   -0.9138 H       1  UNL1        0.0585
     28 H           2.0035    0.6343   -1.9019 H       1  UNL1        0.0619
     29 H           1.3817   -1.3002    0.3856 H       1  UNL1        0.0295
     30 H           1.8497   -1.6824   -1.3649 H       1  UNL1        0.0295
     31 H          -0.0768   -0.0314   -1.8867 H       1  UNL1        0.0337
     32 H          -1.6931   -1.9595   -1.8582 H       1  UNL1        0.0384
     33 H          -0.0335   -2.3961   -2.3366 H       1  UNL1        0.0384
     34 H          -0.8358   -3.4641    2.9965 H       1  UNL1        0.1442
     35 H          -2.5267   -3.0256    2.6241 H       1  UNL1        0.1442
     36 H          -2.0264    0.2827   -2.2844 H       1  UNL1        0.0623
     37 H          -3.9270    1.6634   -2.7366 H       1  UNL1        0.0646
     38 H          -4.1485    2.8614    1.2917 H       1  UNL1        0.0675
     39 H           0.9341    0.3244    1.5295 H       1  UNL1        0.0587
     40 H          -0.1299    1.7040    1.2269 H       1  UNL1        0.0587
@<TRIPOS>BOND
     1     1     2    1
     2     2     3    1
     3     3     4    1
     4     4     5    1
     5     5     6    1
     6     6     7    1
     7     7     8    1
     8     8     9    1
     9     9    10    1
    10     9    11    2
    11    11    12    1
    12    12    13    1
    13    13    14   ar
    14    14    15   ar
    15    15    16   ar
    16    16    17    1
    17    16    18   ar
    18    18    19   ar
    19    19    20    1
    20    12    21    1
    21    21    22    1
    22    22     4    1
    23    12     6    1
    24    19    13   ar
    25     1    23    1
    26     1    24    1
    27     1    25    1
    28     3    26    1
    29     3    27    1
    30     4    28    1
    31     5    29    1
    32     5    30    1
    33     6    31    1
    34     7    32    1
    35     7    33    1
    36    10    34    1
    37    10    35    1
    38    14    36    1
    39    15    37    1
    40    18    38    1
    41    21    39    1
    42    21    40    1
