
     RDKit          3D

 40 42  0  0  0  0  0  0  0  0999 V2000
    4.9260    0.3171    1.3090 C   0  0  0  0  0  0  0  0  0  0  0  0
    3.5638    0.2535    1.0196 O   0  0  0  0  0  0  0  0  0  0  0  0
    3.4242    0.4664   -0.3472 C   0  0  0  0  0  0  0  0  0  0  0  0
    2.0115    0.4275   -0.8117 C   0  0  1  0  0  0  0  0  0  0  0  0
    1.3858   -0.9687   -0.6722 C   0  0  0  0  0  0  0  0  0  0  0  0
   -0.0920   -0.7307   -1.0553 C   0  0  1  0  0  0  0  0  0  0  0  0
   -0.6692   -2.0205   -1.5217 C   0  0  0  0  0  0  0  0  0  0  0  0
   -0.4724   -3.2048   -0.1412 S   0  0  0  0  0  0  0  0  0  0  0  0
   -1.0916   -2.2470    1.2726 C   0  0  0  0  0  0  0  0  0  0  0  0
   -1.5201   -2.9764    2.3962 N   0  0  0  0  0  0  0  0  0  0  0  0
   -1.1043   -0.9983    1.1734 N   0  0  0  0  0  0  0  0  0  0  0  0
   -0.7233   -0.0960    0.1497 C   0  0  2  0  0  0  0  0  0  0  0  0
   -1.9232    0.7227   -0.1691 C   0  0  0  0  0  0  0  0  0  0  0  0
   -2.4274    0.8010   -1.4415 C   0  0  0  0  0  0  0  0  0  0  0  0
   -3.5326    1.6052   -1.7318 C   0  0  0  0  0  0  0  0  0  0  0  0
   -4.1500    2.3424   -0.7592 C   0  0  0  0  0  0  0  0  0  0  0  0
   -5.2302    3.1342   -1.0220 F   0  0  0  0  0  0  0  0  0  0  0  0
   -3.6579    2.2741    0.5140 C   0  0  0  0  0  0  0  0  0  0  0  0
   -2.5623    1.4725    0.7874 C   0  0  0  0  0  0  0  0  0  0  0  0
   -2.1523    1.4440    2.0704 F   0  0  0  0  0  0  0  0  0  0  0  0
    0.3450    0.8338    0.7364 C   0  0  0  0  0  0  0  0  0  0  0  0
    1.1855    1.3748   -0.2242 O   0  0  0  0  0  0  0  0  0  0  0  0
    5.0113    0.1432    2.4110 H   0  0  0  0  0  0  0  0  0  0  0  0
    5.3301    1.3472    1.1498 H   0  0  0  0  0  0  0  0  0  0  0  0
    5.5153   -0.4585    0.7984 H   0  0  0  0  0  0  0  0  0  0  0  0
    3.8548    1.4391   -0.6620 H   0  0  0  0  0  0  0  0  0  0  0  0
    3.9843   -0.3087   -0.9138 H   0  0  0  0  0  0  0  0  0  0  0  0
    2.0035    0.6343   -1.9019 H   0  0  0  0  0  0  0  0  0  0  0  0
    1.3817   -1.3002    0.3856 H   0  0  0  0  0  0  0  0  0  0  0  0
    1.8497   -1.6824   -1.3649 H   0  0  0  0  0  0  0  0  0  0  0  0
   -0.0768   -0.0314   -1.8867 H   0  0  0  0  0  0  0  0  0  0  0  0
   -1.6931   -1.9595   -1.8582 H   0  0  0  0  0  0  0  0  0  0  0  0
   -0.0335   -2.3961   -2.3366 H   0  0  0  0  0  0  0  0  0  0  0  0
   -0.8358   -3.4641    2.9965 H   0  0  0  0  0  0  0  0  0  0  0  0
   -2.5267   -3.0256    2.6241 H   0  0  0  0  0  0  0  0  0  0  0  0
   -2.0264    0.2827   -2.2844 H   0  0  0  0  0  0  0  0  0  0  0  0
   -3.9270    1.6634   -2.7366 H   0  0  0  0  0  0  0  0  0  0  0  0
   -4.1485    2.8614    1.2917 H   0  0  0  0  0  0  0  0  0  0  0  0
    0.9341    0.3244    1.5295 H   0  0  0  0  0  0  0  0  0  0  0  0
   -0.1299    1.7040    1.2269 H   0  0  0  0  0  0  0  0  0  0  0  0
  1  2  1  0
  2  3  1  0
  3  4  1  0
  4  5  1  0
  5  6  1  0
  6  7  1  0
  7  8  1  0
  8  9  1  0
  9 10  1  0
  9 11  2  0
 11 12  1  0
 12 13  1  6
 13 14  2  0
 14 15  1  0
 15 16  2  0
 16 17  1  0
 16 18  1  0
 18 19  2  0
 19 20  1  0
 12 21  1  0
 21 22  1  0
 22  4  1  0
 12  6  1  0
 19 13  1  0
  1 23  1  0
  1 24  1  0
  1 25  1  0
  3 26  1  0
  3 27  1  0
  4 28  1  6
  5 29  1  0
  5 30  1  0
  6 31  1  6
  7 32  1  0
  7 33  1  0
 10 34  1  0
 10 35  1  0
 14 36  1  0
 15 37  1  0
 18 38  1  0
 21 39  1  0
 21 40  1  0
M  END
$$$$
