
     RDKit          3D

 45 49  0  0  0  0  0  0  0  0999 V2000
    0.2382    1.8487    0.8562 C   0  0  2  0  0  0  0  0  0  0  0  0
    1.6114    1.4547    1.0181 O   0  0  0  0  0  0  0  0  0  0  0  0
    1.8487    0.3158    0.2645 C   0  0  0  0  0  0  0  0  0  0  0  0
    2.9327   -0.3903   -0.2708 C   0  0  0  0  0  0  0  0  0  0  0  0
    4.1863    0.1409   -0.0182 O   0  0  0  0  0  0  0  0  0  0  0  0
    5.3513   -0.4920   -0.5120 C   0  0  0  0  0  0  0  0  0  0  0  0
    2.7067   -1.5586   -1.0099 C   0  0  0  0  0  0  0  0  0  0  0  0
    1.4246   -2.0405   -1.2285 C   0  0  0  0  0  0  0  0  0  0  0  0
    0.3421   -1.3641   -0.7126 C   0  0  0  0  0  0  0  0  0  0  0  0
    0.6158   -0.2406   -0.0058 C   0  0  0  0  0  0  0  0  0  0  0  0
   -0.4845    0.5573    0.5897 C   0  0  1  0  0  0  0  0  0  0  0  0
   -0.9717   -0.1554    1.8061 C   0  0  0  0  0  0  0  0  0  0  0  0
   -2.4623   -0.3998    1.7533 C   0  0  0  0  0  0  0  0  0  0  0  0
   -2.7610   -1.1864    0.6028 N   0  0  0  0  0  0  0  0  0  0  0  0
   -4.1278   -1.5410    0.4315 C   0  0  0  0  0  0  0  0  0  0  0  0
   -2.0711   -0.7919   -0.6027 C   0  0  2  0  0  0  0  0  0  0  0  0
   -1.0424   -1.8194   -0.9072 C   0  0  0  0  0  0  0  0  0  0  0  0
   -1.5309    0.6233   -0.4786 C   0  0  2  0  0  0  0  0  0  0  0  0
   -0.9654    1.0796   -1.7876 C   0  0  0  0  0  0  0  0  0  0  0  0
    0.1382    2.0975   -1.6152 C   0  0  0  0  0  0  0  0  0  0  0  0
    0.0795    2.8085   -0.2818 C   0  0  2  0  0  0  0  0  0  0  0  0
    1.1738    3.6823   -0.2615 O   0  0  0  0  0  0  0  0  0  0  0  0
   -0.0876    2.3495    1.7864 H   0  0  0  0  0  0  0  0  0  0  0  0
    5.5499   -1.3706    0.1551 H   0  0  0  0  0  0  0  0  0  0  0  0
    5.2033   -0.8477   -1.5550 H   0  0  0  0  0  0  0  0  0  0  0  0
    6.2193    0.1856   -0.5342 H   0  0  0  0  0  0  0  0  0  0  0  0
    3.5822   -2.0778   -1.4092 H   0  0  0  0  0  0  0  0  0  0  0  0
    1.2643   -2.9451   -1.8019 H   0  0  0  0  0  0  0  0  0  0  0  0
   -0.7647    0.3696    2.7634 H   0  0  0  0  0  0  0  0  0  0  0  0
   -0.5085   -1.1573    1.9250 H   0  0  0  0  0  0  0  0  0  0  0  0
   -2.7016   -1.0249    2.6534 H   0  0  0  0  0  0  0  0  0  0  0  0
   -3.0101    0.5368    1.8399 H   0  0  0  0  0  0  0  0  0  0  0  0
   -4.8605   -0.9066    0.9601 H   0  0  0  0  0  0  0  0  0  0  0  0
   -4.2413   -2.5715    0.8782 H   0  0  0  0  0  0  0  0  0  0  0  0
   -4.3856   -1.6534   -0.6560 H   0  0  0  0  0  0  0  0  0  0  0  0
   -2.8241   -0.7625   -1.4224 H   0  0  0  0  0  0  0  0  0  0  0  0
   -1.1513   -2.7249   -0.2655 H   0  0  0  0  0  0  0  0  0  0  0  0
   -1.1541   -2.2325   -1.9523 H   0  0  0  0  0  0  0  0  0  0  0  0
   -2.3885    1.2692   -0.2315 H   0  0  0  0  0  0  0  0  0  0  0  0
   -0.5808    0.2498   -2.4158 H   0  0  0  0  0  0  0  0  0  0  0  0
   -1.7754    1.5611   -2.3816 H   0  0  0  0  0  0  0  0  0  0  0  0
    1.1285    1.6239   -1.6984 H   0  0  0  0  0  0  0  0  0  0  0  0
    0.1011    2.9080   -2.3878 H   0  0  0  0  0  0  0  0  0  0  0  0
   -0.8375    3.3899   -0.1555 H   0  0  0  0  0  0  0  0  0  0  0  0
    1.9909    3.2029   -0.5516 H   0  0  0  0  0  0  0  0  0  0  0  0
  1  2  1  0
  2  3  1  0
  3  4  2  0
  4  5  1  0
  5  6  1  0
  4  7  1  0
  7  8  2  0
  8  9  1  0
  9 10  2  0
 10 11  1  0
 11 12  1  1
 12 13  1  0
 13 14  1  0
 14 15  1  0
 14 16  1  0
 16 17  1  0
 16 18  1  0
 18 19  1  0
 19 20  1  0
 20 21  1  0
 21 22  1  0
 11  1  1  0
 18 11  1  0
 21  1  1  0
 10  3  1  0
 17  9  1  0
  1 23  1  1
  6 24  1  0
  6 25  1  0
  6 26  1  0
  7 27  1  0
  8 28  1  0
 12 29  1  0
 12 30  1  0
 13 31  1  0
 13 32  1  0
 15 33  1  0
 15 34  1  0
 15 35  1  0
 16 36  1  6
 17 37  1  0
 17 38  1  0
 18 39  1  1
 19 40  1  0
 19 41  1  0
 20 42  1  0
 20 43  1  0
 21 44  1  1
 22 45  1  0
M  END
$$$$
