@<TRIPOS>MOLECULE
*****
 45 49 0 0 0
SMALL
GASTEIGER

@<TRIPOS>ATOM
      1 C           0.2382    1.8487    0.8562 C.3     1  UNL1        0.1360
      2 O           1.6114    1.4547    1.0181 O.3     1  UNL1       -0.4814
      3 C           1.8487    0.3158    0.2645 C.ar    1  UNL1        0.1665
      4 C           2.9327   -0.3903   -0.2708 C.ar    1  UNL1        0.1618
      5 O           4.1863    0.1409   -0.0182 O.3     1  UNL1       -0.4914
      6 C           5.3513   -0.4920   -0.5120 C.3     1  UNL1        0.0790
      7 C           2.7067   -1.5586   -1.0099 C.ar    1  UNL1       -0.0160
      8 C           1.4246   -2.0405   -1.2285 C.ar    1  UNL1       -0.0546
      9 C           0.3421   -1.3641   -0.7126 C.ar    1  UNL1       -0.0383
     10 C           0.6158   -0.2406   -0.0058 C.ar    1  UNL1        0.0113
     11 C          -0.4845    0.5573    0.5897 C.3     1  UNL1        0.0443
     12 C          -0.9717   -0.1554    1.8061 C.3     1  UNL1       -0.0266
     13 C          -2.4623   -0.3998    1.7533 C.3     1  UNL1       -0.0002
     14 N          -2.7610   -1.1864    0.6028 N.3     1  UNL1       -0.3018
     15 C          -4.1278   -1.5410    0.4315 C.3     1  UNL1       -0.0125
     16 C          -2.0711   -0.7919   -0.6027 C.3     1  UNL1        0.0178
     17 C          -1.0424   -1.8194   -0.9072 C.3     1  UNL1       -0.0113
     18 C          -1.5309    0.6233   -0.4786 C.3     1  UNL1       -0.0117
     19 C          -0.9654    1.0796   -1.7876 C.3     1  UNL1       -0.0454
     20 C           0.1382    2.0975   -1.6152 C.3     1  UNL1       -0.0230
     21 C           0.0795    2.8085   -0.2818 C.3     1  UNL1        0.0928
     22 O           1.1738    3.6823   -0.2615 O.3     1  UNL1       -0.3881
     23 H          -0.0876    2.3495    1.7864 H       1  UNL1        0.0768
     24 H           5.5499   -1.3706    0.1551 H       1  UNL1        0.0660
     25 H           5.2033   -0.8477   -1.5550 H       1  UNL1        0.0660
     26 H           6.2193    0.1856   -0.5342 H       1  UNL1        0.0660
     27 H           3.5822   -2.0778   -1.4092 H       1  UNL1        0.0655
     28 H           1.2643   -2.9451   -1.8019 H       1  UNL1        0.0622
     29 H          -0.7647    0.3696    2.7634 H       1  UNL1        0.0287
     30 H          -0.5085   -1.1573    1.9250 H       1  UNL1        0.0287
     31 H          -2.7016   -1.0249    2.6534 H       1  UNL1        0.0427
     32 H          -3.0101    0.5368    1.8399 H       1  UNL1        0.0427
     33 H          -4.8605   -0.9066    0.9601 H       1  UNL1        0.0391
     34 H          -4.2413   -2.5715    0.8782 H       1  UNL1        0.0391
     35 H          -4.3856   -1.6534   -0.6560 H       1  UNL1        0.0391
     36 H          -2.8241   -0.7625   -1.4224 H       1  UNL1        0.0469
     37 H          -1.1513   -2.7249   -0.2655 H       1  UNL1        0.0329
     38 H          -1.1541   -2.2325   -1.9523 H       1  UNL1        0.0329
     39 H          -2.3885    1.2692   -0.2315 H       1  UNL1        0.0326
     40 H          -0.5808    0.2498   -2.4158 H       1  UNL1        0.0270
     41 H          -1.7754    1.5611   -2.3816 H       1  UNL1        0.0270
     42 H           1.1285    1.6239   -1.6984 H       1  UNL1        0.0291
     43 H           0.1011    2.9080   -2.3878 H       1  UNL1        0.0291
     44 H          -0.8375    3.3899   -0.1555 H       1  UNL1        0.0630
     45 H           1.9909    3.2029   -0.5516 H       1  UNL1        0.2099
@<TRIPOS>BOND
     1     1     2    1
     2     2     3    1
     3     3     4   ar
     4     4     5    1
     5     5     6    1
     6     4     7   ar
     7     7     8   ar
     8     8     9   ar
     9     9    10   ar
    10    10    11    1
    11    11    12    1
    12    12    13    1
    13    13    14    1
    14    14    15    1
    15    14    16    1
    16    16    17    1
    17    16    18    1
    18    18    19    1
    19    19    20    1
    20    20    21    1
    21    21    22    1
    22    11     1    1
    23    18    11    1
    24    21     1    1
    25    10     3   ar
    26    17     9    1
    27     1    23    1
    28     6    24    1
    29     6    25    1
    30     6    26    1
    31     7    27    1
    32     8    28    1
    33    12    29    1
    34    12    30    1
    35    13    31    1
    36    13    32    1
    37    15    33    1
    38    15    34    1
    39    15    35    1
    40    16    36    1
    41    17    37    1
    42    17    38    1
    43    18    39    1
    44    19    40    1
    45    19    41    1
    46    20    42    1
    47    20    43    1
    48    21    44    1
    49    22    45    1
