@<TRIPOS>MOLECULE
*****
 16 15 0 0 0
SMALL
GASTEIGER

@<TRIPOS>ATOM
      1 O           2.8655    0.7662   -0.4144 O.3     1  UNL1       -0.4806
      2 C           1.6789    0.3305    0.1699 C.2     1  UNL1        0.3053
      3 O           1.5007    0.9238    1.2874 O.2     1  UNL1       -0.2510
      4 C           0.8975   -0.6847   -0.5837 C.3     1  UNL1        0.0556
      5 C          -0.3597   -1.0808    0.1378 C.3     1  UNL1        0.0594
      6 P          -1.4703    0.3054    0.4176 P.3     1  UNL1        0.3283
      7 O          -0.8112    1.7285   -0.2551 O.3     1  UNL1       -0.3240
      8 O          -2.9667   -0.0108   -0.3436 O.3     1  UNL1       -0.3240
      9 O          -1.6463    0.5379    1.9016 O.2     1  UNL1       -0.2588
     10 H           3.6168    1.2229    0.0438 H       1  UNL1        0.2951
     11 H           0.7256   -0.3555   -1.6228 H       1  UNL1        0.0383
     12 H           1.5349   -1.6127   -0.6165 H       1  UNL1        0.0383
     13 H          -0.8429   -1.8810   -0.4635 H       1  UNL1        0.0393
     14 H          -0.0239   -1.5551    1.0936 H       1  UNL1        0.0393
     15 H          -1.5860    2.3582   -0.3592 H       1  UNL1        0.2198
     16 H          -3.1130   -0.9927   -0.2388 H       1  UNL1        0.2198
@<TRIPOS>BOND
     1     1     2    1
     2     2     3    2
     3     2     4    1
     4     4     5    1
     5     5     6    1
     6     6     7    1
     7     6     8    1
     8     6     9    2
     9     1    10    1
    10     4    11    1
    11     4    12    1
    12     5    13    1
    13     5    14    1
    14     7    15    1
    15     8    16    1
