@<TRIPOS>MOLECULE
*****
 98 103 0 0 0
SMALL
GASTEIGER

@<TRIPOS>ATOM
      1 C          -9.9118   -3.6286   -0.7754 C.3     1  UNL1        0.0790
      2 O          -9.6004   -2.2574   -0.8906 O.3     1  UNL1       -0.4914
      3 C          -8.6306   -1.7202   -0.0704 C.ar    1  UNL1        0.1618
      4 C          -7.9764   -2.5348    0.8569 C.ar    1  UNL1       -0.0160
      5 C          -7.0061   -1.9660    1.6666 C.ar    1  UNL1       -0.0534
      6 C          -6.6707   -0.6371    1.5860 C.ar    1  UNL1       -0.0255
      7 C          -7.3406    0.1210    0.6605 C.ar    1  UNL1        0.0158
      8 C          -8.3106   -0.3770   -0.1710 C.ar    1  UNL1        0.1667
      9 O          -8.8157    0.5977   -0.9960 O.3     1  UNL1       -0.4836
     10 C          -7.9963    1.7674   -0.9313 C.3     1  UNL1        0.1161
     11 C          -8.9155    2.9555   -0.9151 C.3     1  UNL1        0.0151
     12 C          -8.2847    4.1015   -0.1305 C.3     1  UNL1        0.0768
     13 O          -9.2008    5.1784   -0.1447 O.3     1  UNL1       -0.3876
     14 C          -8.1988    3.5975    1.2775 C.2     1  UNL1       -0.0588
     15 C          -7.6815    2.3912    1.4635 C.2     1  UNL1       -0.0715
     16 C          -7.2117    1.5872    0.3213 C.3     1  UNL1        0.0558
     17 C          -5.7067    1.7785    0.0641 C.3     1  UNL1       -0.0235
     18 C          -5.0142    1.7741    1.3789 C.3     1  UNL1        0.0004
     19 N          -4.5641    0.5235    1.8715 N.3     1  UNL1       -0.2981
     20 C          -3.8529   -0.3173    0.9716 C.3     1  UNL1       -0.0008
     21 C          -2.4928    0.1970    0.5584 C.3     1  UNL1       -0.0402
     22 C          -1.9278   -0.8499   -0.3778 C.3     1  UNL1       -0.0519
     23 C          -0.5441   -0.4687   -0.8867 C.3     1  UNL1       -0.0530
     24 C          -0.0199   -1.5577   -1.8122 C.3     1  UNL1       -0.0531
     25 C           0.1234   -2.8616   -1.1645 C.3     1  UNL1       -0.0531
     26 C           1.0635   -3.1154   -0.0677 C.3     1  UNL1       -0.0530
     27 C           2.5216   -3.0909   -0.2918 C.3     1  UNL1       -0.0500
     28 C           3.2453   -1.8864   -0.7189 C.3     1  UNL1       -0.0186
     29 C           3.2156   -0.7168    0.2199 C.3     1  UNL1        0.0896
     30 O           3.9358    0.3654   -0.2743 O.3     1  UNL1       -0.4920
     31 C           5.2896    0.4139   -0.4510 C.ar    1  UNL1        0.1205
     32 C           6.2059   -0.5575   -0.1345 C.ar    1  UNL1       -0.0196
     33 C           7.5801   -0.3967   -0.3714 C.ar    1  UNL1       -0.0539
     34 C           8.0884    0.7476   -0.9345 C.ar    1  UNL1       -0.0331
     35 C           9.5365    0.9470   -1.1942 C.3     1  UNL1        0.0240
     36 N          10.2503    1.5716   -0.1260 N.3     1  UNL1       -0.2982
     37 C          10.2211    0.8741    1.1208 C.3     1  UNL1       -0.0008
     38 C          11.1309   -0.3155    1.1890 C.3     1  UNL1       -0.0402
     39 C          12.4147   -0.1255    0.4486 C.3     1  UNL1       -0.0507
     40 C          12.6727    1.3464    0.2218 C.3     1  UNL1       -0.0402
     41 C          11.5550    1.9420   -0.5807 C.3     1  UNL1       -0.0008
     42 C           7.1795    1.7291   -1.2545 C.ar    1  UNL1       -0.0539
     43 C           5.8344    1.5843   -1.0287 C.ar    1  UNL1       -0.0196
     44 C          -5.6170   -0.2429    2.5282 C.3     1  UNL1        0.0244
     45 H         -10.8064   -3.8967   -1.3693 H       1  UNL1        0.0660
     46 H         -10.1397   -3.9026    0.2861 H       1  UNL1        0.0660
     47 H          -9.0018   -4.1911   -1.1247 H       1  UNL1        0.0660
     48 H          -8.2318   -3.5821    0.9291 H       1  UNL1        0.0655
     49 H          -6.5038   -2.5930    2.3793 H       1  UNL1        0.0622
     50 H          -7.3113    1.8099   -1.8104 H       1  UNL1        0.0746
     51 H          -9.1493    3.2637   -1.9548 H       1  UNL1        0.0329
     52 H          -9.8528    2.6781   -0.3753 H       1  UNL1        0.0329
     53 H          -7.3176    4.4125   -0.5331 H       1  UNL1        0.0639
     54 H         -10.0945    4.8741    0.1352 H       1  UNL1        0.2102
     55 H          -8.5468    4.2021    2.0985 H       1  UNL1        0.0595
     56 H          -7.6125    2.0007    2.5030 H       1  UNL1        0.0580
     57 H          -5.5820    2.7642   -0.4747 H       1  UNL1        0.0290
     58 H          -5.4240    0.9377   -0.6001 H       1  UNL1        0.0290
     59 H          -5.6219    2.2535    2.1745 H       1  UNL1        0.0427
     60 H          -4.1122    2.4482    1.2839 H       1  UNL1        0.0427
     61 H          -3.6306   -1.2693    1.5463 H       1  UNL1        0.0427
     62 H          -4.4084   -0.6655    0.0867 H       1  UNL1        0.0427
     63 H          -1.7982    0.2597    1.4245 H       1  UNL1        0.0278
     64 H          -2.5340    1.1963    0.0802 H       1  UNL1        0.0278
     65 H          -2.5704   -0.9612   -1.2870 H       1  UNL1        0.0266
     66 H          -1.9390   -1.8032    0.1587 H       1  UNL1        0.0266
     67 H           0.0650   -0.3240    0.0120 H       1  UNL1        0.0265
     68 H          -0.6358    0.5054   -1.4035 H       1  UNL1        0.0265
     69 H           0.7736   -1.1462   -2.4116 H       1  UNL1        0.0265
     70 H          -0.8843   -1.6789   -2.5732 H       1  UNL1        0.0265
     71 H          -0.9278   -3.2220   -0.9105 H       1  UNL1        0.0265
     72 H           0.3954   -3.6300   -1.9828 H       1  UNL1        0.0265
     73 H           0.8192   -2.4417    0.8255 H       1  UNL1        0.0265
     74 H           0.8487   -4.1672    0.3497 H       1  UNL1        0.0265
     75 H           3.0097   -3.5654    0.6280 H       1  UNL1        0.0266
     76 H           2.7144   -3.8715   -1.1152 H       1  UNL1        0.0266
     77 H           4.2934   -2.2257   -0.9787 H       1  UNL1        0.0298
     78 H           2.8490   -1.5735   -1.7353 H       1  UNL1        0.0298
     79 H           3.7888   -1.0936    1.1473 H       1  UNL1        0.0696
     80 H           2.2267   -0.4801    0.5919 H       1  UNL1        0.0696
     81 H           5.8573   -1.4682    0.3463 H       1  UNL1        0.0654
     82 H           8.2612   -1.1932   -0.1072 H       1  UNL1        0.0622
     83 H           9.5989    1.5756   -2.1164 H       1  UNL1        0.0476
     84 H          10.0141   -0.0303   -1.4932 H       1  UNL1        0.0476
     85 H           9.1808    0.5196    1.2813 H       1  UNL1        0.0427
     86 H          10.4213    1.5639    1.9709 H       1  UNL1        0.0427
     87 H          11.4022   -0.4692    2.2726 H       1  UNL1        0.0278
     88 H          10.5958   -1.2642    0.8960 H       1  UNL1        0.0278
     89 H          13.3072   -0.5234    0.9772 H       1  UNL1        0.0266
     90 H          12.3199   -0.6113   -0.5422 H       1  UNL1        0.0266
     91 H          12.8622    1.9059    1.1421 H       1  UNL1        0.0278
     92 H          13.6034    1.4019   -0.4148 H       1  UNL1        0.0278
     93 H          11.6216    3.0511   -0.5432 H       1  UNL1        0.0427
     94 H          11.7284    1.6327   -1.6515 H       1  UNL1        0.0427
     95 H           7.5716    2.6416   -1.7014 H       1  UNL1        0.0622
     96 H           5.1196    2.3685   -1.2860 H       1  UNL1        0.0654
     97 H          -6.0510    0.2767    3.3914 H       1  UNL1        0.0476
     98 H          -5.1335   -1.1675    2.9050 H       1  UNL1        0.0476
@<TRIPOS>BOND
     1     1     2    1
     2     2     3    1
     3     3     4   ar
     4     4     5   ar
     5     5     6   ar
     6     6     7   ar
     7     7     8   ar
     8     8     9    1
     9     9    10    1
    10    10    11    1
    11    11    12    1
    12    12    13    1
    13    12    14    1
    14    14    15    2
    15    15    16    1
    16    16    17    1
    17    17    18    1
    18    18    19    1
    19    19    20    1
    20    20    21    1
    21    21    22    1
    22    22    23    1
    23    23    24    1
    24    24    25    1
    25    25    26    1
    26    26    27    1
    27    27    28    1
    28    28    29    1
    29    29    30    1
    30    30    31    1
    31    31    32   ar
    32    32    33   ar
    33    33    34   ar
    34    34    35    1
    35    35    36    1
    36    36    37    1
    37    37    38    1
    38    38    39    1
    39    39    40    1
    40    40    41    1
    41    34    42   ar
    42    42    43   ar
    43    19    44    1
    44     8     3   ar
    45    16    10    1
    46    43    31   ar
    47    44     6    1
    48    16     7    1
    49    41    36    1
    50     1    45    1
    51     1    46    1
    52     1    47    1
    53     4    48    1
    54     5    49    1
    55    10    50    1
    56    11    51    1
    57    11    52    1
    58    12    53    1
    59    13    54    1
    60    14    55    1
    61    15    56    1
    62    17    57    1
    63    17    58    1
    64    18    59    1
    65    18    60    1
    66    20    61    1
    67    20    62    1
    68    21    63    1
    69    21    64    1
    70    22    65    1
    71    22    66    1
    72    23    67    1
    73    23    68    1
    74    24    69    1
    75    24    70    1
    76    25    71    1
    77    25    72    1
    78    26    73    1
    79    26    74    1
    80    27    75    1
    81    27    76    1
    82    28    77    1
    83    28    78    1
    84    29    79    1
    85    29    80    1
    86    32    81    1
    87    33    82    1
    88    35    83    1
    89    35    84    1
    90    37    85    1
    91    37    86    1
    92    38    87    1
    93    38    88    1
    94    39    89    1
    95    39    90    1
    96    40    91    1
    97    40    92    1
    98    41    93    1
    99    41    94    1
   100    42    95    1
   101    43    96    1
   102    44    97    1
   103    44    98    1
