
     RDKit          3D

 98103  0  0  0  0  0  0  0  0999 V2000
   -9.9118   -3.6286   -0.7754 C   0  0  0  0  0  0  0  0  0  0  0  0
   -9.6004   -2.2574   -0.8906 O   0  0  0  0  0  0  0  0  0  0  0  0
   -8.6306   -1.7202   -0.0704 C   0  0  0  0  0  0  0  0  0  0  0  0
   -7.9764   -2.5348    0.8569 C   0  0  0  0  0  0  0  0  0  0  0  0
   -7.0061   -1.9660    1.6666 C   0  0  0  0  0  0  0  0  0  0  0  0
   -6.6707   -0.6371    1.5860 C   0  0  0  0  0  0  0  0  0  0  0  0
   -7.3406    0.1210    0.6605 C   0  0  0  0  0  0  0  0  0  0  0  0
   -8.3106   -0.3770   -0.1710 C   0  0  0  0  0  0  0  0  0  0  0  0
   -8.8157    0.5977   -0.9960 O   0  0  0  0  0  0  0  0  0  0  0  0
   -7.9963    1.7674   -0.9313 C   0  0  1  0  0  0  0  0  0  0  0  0
   -8.9155    2.9555   -0.9151 C   0  0  0  0  0  0  0  0  0  0  0  0
   -8.2847    4.1015   -0.1305 C   0  0  1  0  0  0  0  0  0  0  0  0
   -9.2008    5.1784   -0.1447 O   0  0  0  0  0  0  0  0  0  0  0  0
   -8.1988    3.5975    1.2775 C   0  0  0  0  0  0  0  0  0  0  0  0
   -7.6815    2.3912    1.4635 C   0  0  0  0  0  0  0  0  0  0  0  0
   -7.2117    1.5872    0.3213 C   0  0  1  0  0  0  0  0  0  0  0  0
   -5.7067    1.7785    0.0641 C   0  0  0  0  0  0  0  0  0  0  0  0
   -5.0142    1.7741    1.3789 C   0  0  0  0  0  0  0  0  0  0  0  0
   -4.5641    0.5235    1.8715 N   0  0  0  0  0  0  0  0  0  0  0  0
   -3.8529   -0.3173    0.9716 C   0  0  0  0  0  0  0  0  0  0  0  0
   -2.4928    0.1970    0.5584 C   0  0  0  0  0  0  0  0  0  0  0  0
   -1.9278   -0.8499   -0.3778 C   0  0  0  0  0  0  0  0  0  0  0  0
   -0.5441   -0.4687   -0.8867 C   0  0  0  0  0  0  0  0  0  0  0  0
   -0.0199   -1.5577   -1.8122 C   0  0  0  0  0  0  0  0  0  0  0  0
    0.1234   -2.8616   -1.1645 C   0  0  0  0  0  0  0  0  0  0  0  0
    1.0635   -3.1154   -0.0677 C   0  0  0  0  0  0  0  0  0  0  0  0
    2.5216   -3.0909   -0.2918 C   0  0  0  0  0  0  0  0  0  0  0  0
    3.2453   -1.8864   -0.7189 C   0  0  0  0  0  0  0  0  0  0  0  0
    3.2156   -0.7168    0.2199 C   0  0  0  0  0  0  0  0  0  0  0  0
    3.9358    0.3654   -0.2743 O   0  0  0  0  0  0  0  0  0  0  0  0
    5.2896    0.4139   -0.4510 C   0  0  0  0  0  0  0  0  0  0  0  0
    6.2059   -0.5575   -0.1345 C   0  0  0  0  0  0  0  0  0  0  0  0
    7.5801   -0.3967   -0.3714 C   0  0  0  0  0  0  0  0  0  0  0  0
    8.0884    0.7476   -0.9345 C   0  0  0  0  0  0  0  0  0  0  0  0
    9.5365    0.9470   -1.1942 C   0  0  0  0  0  0  0  0  0  0  0  0
   10.2503    1.5716   -0.1260 N   0  0  0  0  0  0  0  0  0  0  0  0
   10.2211    0.8741    1.1208 C   0  0  0  0  0  0  0  0  0  0  0  0
   11.1309   -0.3155    1.1890 C   0  0  0  0  0  0  0  0  0  0  0  0
   12.4147   -0.1255    0.4486 C   0  0  0  0  0  0  0  0  0  0  0  0
   12.6727    1.3464    0.2218 C   0  0  0  0  0  0  0  0  0  0  0  0
   11.5550    1.9420   -0.5807 C   0  0  0  0  0  0  0  0  0  0  0  0
    7.1795    1.7291   -1.2545 C   0  0  0  0  0  0  0  0  0  0  0  0
    5.8344    1.5843   -1.0287 C   0  0  0  0  0  0  0  0  0  0  0  0
   -5.6170   -0.2429    2.5282 C   0  0  0  0  0  0  0  0  0  0  0  0
  -10.8064   -3.8967   -1.3693 H   0  0  0  0  0  0  0  0  0  0  0  0
  -10.1397   -3.9026    0.2861 H   0  0  0  0  0  0  0  0  0  0  0  0
   -9.0018   -4.1911   -1.1247 H   0  0  0  0  0  0  0  0  0  0  0  0
   -8.2318   -3.5821    0.9291 H   0  0  0  0  0  0  0  0  0  0  0  0
   -6.5038   -2.5930    2.3793 H   0  0  0  0  0  0  0  0  0  0  0  0
   -7.3113    1.8099   -1.8104 H   0  0  0  0  0  0  0  0  0  0  0  0
   -9.1493    3.2637   -1.9548 H   0  0  0  0  0  0  0  0  0  0  0  0
   -9.8528    2.6781   -0.3753 H   0  0  0  0  0  0  0  0  0  0  0  0
   -7.3176    4.4125   -0.5331 H   0  0  0  0  0  0  0  0  0  0  0  0
  -10.0945    4.8741    0.1352 H   0  0  0  0  0  0  0  0  0  0  0  0
   -8.5468    4.2021    2.0985 H   0  0  0  0  0  0  0  0  0  0  0  0
   -7.6125    2.0007    2.5030 H   0  0  0  0  0  0  0  0  0  0  0  0
   -5.5820    2.7642   -0.4747 H   0  0  0  0  0  0  0  0  0  0  0  0
   -5.4240    0.9377   -0.6001 H   0  0  0  0  0  0  0  0  0  0  0  0
   -5.6219    2.2535    2.1745 H   0  0  0  0  0  0  0  0  0  0  0  0
   -4.1122    2.4482    1.2839 H   0  0  0  0  0  0  0  0  0  0  0  0
   -3.6306   -1.2693    1.5463 H   0  0  0  0  0  0  0  0  0  0  0  0
   -4.4084   -0.6655    0.0867 H   0  0  0  0  0  0  0  0  0  0  0  0
   -1.7982    0.2597    1.4245 H   0  0  0  0  0  0  0  0  0  0  0  0
   -2.5340    1.1963    0.0802 H   0  0  0  0  0  0  0  0  0  0  0  0
   -2.5704   -0.9612   -1.2870 H   0  0  0  0  0  0  0  0  0  0  0  0
   -1.9390   -1.8032    0.1587 H   0  0  0  0  0  0  0  0  0  0  0  0
    0.0650   -0.3240    0.0120 H   0  0  0  0  0  0  0  0  0  0  0  0
   -0.6358    0.5054   -1.4035 H   0  0  0  0  0  0  0  0  0  0  0  0
    0.7736   -1.1462   -2.4116 H   0  0  0  0  0  0  0  0  0  0  0  0
   -0.8843   -1.6789   -2.5732 H   0  0  0  0  0  0  0  0  0  0  0  0
   -0.9278   -3.2220   -0.9105 H   0  0  0  0  0  0  0  0  0  0  0  0
    0.3954   -3.6300   -1.9828 H   0  0  0  0  0  0  0  0  0  0  0  0
    0.8192   -2.4417    0.8255 H   0  0  0  0  0  0  0  0  0  0  0  0
    0.8487   -4.1672    0.3497 H   0  0  0  0  0  0  0  0  0  0  0  0
    3.0097   -3.5654    0.6280 H   0  0  0  0  0  0  0  0  0  0  0  0
    2.7144   -3.8715   -1.1152 H   0  0  0  0  0  0  0  0  0  0  0  0
    4.2934   -2.2257   -0.9787 H   0  0  0  0  0  0  0  0  0  0  0  0
    2.8490   -1.5735   -1.7353 H   0  0  0  0  0  0  0  0  0  0  0  0
    3.7888   -1.0936    1.1473 H   0  0  0  0  0  0  0  0  0  0  0  0
    2.2267   -0.4801    0.5919 H   0  0  0  0  0  0  0  0  0  0  0  0
    5.8573   -1.4682    0.3463 H   0  0  0  0  0  0  0  0  0  0  0  0
    8.2612   -1.1932   -0.1072 H   0  0  0  0  0  0  0  0  0  0  0  0
    9.5989    1.5756   -2.1164 H   0  0  0  0  0  0  0  0  0  0  0  0
   10.0141   -0.0303   -1.4932 H   0  0  0  0  0  0  0  0  0  0  0  0
    9.1808    0.5196    1.2813 H   0  0  0  0  0  0  0  0  0  0  0  0
   10.4213    1.5639    1.9709 H   0  0  0  0  0  0  0  0  0  0  0  0
   11.4022   -0.4692    2.2726 H   0  0  0  0  0  0  0  0  0  0  0  0
   10.5958   -1.2642    0.8960 H   0  0  0  0  0  0  0  0  0  0  0  0
   13.3072   -0.5234    0.9772 H   0  0  0  0  0  0  0  0  0  0  0  0
   12.3199   -0.6113   -0.5422 H   0  0  0  0  0  0  0  0  0  0  0  0
   12.8622    1.9059    1.1421 H   0  0  0  0  0  0  0  0  0  0  0  0
   13.6034    1.4019   -0.4148 H   0  0  0  0  0  0  0  0  0  0  0  0
   11.6216    3.0511   -0.5432 H   0  0  0  0  0  0  0  0  0  0  0  0
   11.7284    1.6327   -1.6515 H   0  0  0  0  0  0  0  0  0  0  0  0
    7.5716    2.6416   -1.7014 H   0  0  0  0  0  0  0  0  0  0  0  0
    5.1196    2.3685   -1.2860 H   0  0  0  0  0  0  0  0  0  0  0  0
   -6.0510    0.2767    3.3914 H   0  0  0  0  0  0  0  0  0  0  0  0
   -5.1335   -1.1675    2.9050 H   0  0  0  0  0  0  0  0  0  0  0  0
  1  2  1  0
  2  3  1  0
  3  4  2  0
  4  5  1  0
  5  6  2  0
  6  7  1  0
  7  8  2  0
  8  9  1  0
  9 10  1  0
 10 11  1  0
 11 12  1  0
 12 13  1  0
 12 14  1  0
 14 15  2  0
 15 16  1  0
 16 17  1  6
 17 18  1  0
 18 19  1  0
 19 20  1  0
 20 21  1  0
 21 22  1  0
 22 23  1  0
 23 24  1  0
 24 25  1  0
 25 26  1  0
 26 27  1  0
 27 28  1  0
 28 29  1  0
 29 30  1  0
 30 31  1  0
 31 32  2  0
 32 33  1  0
 33 34  2  0
 34 35  1  0
 35 36  1  0
 36 37  1  0
 37 38  1  0
 38 39  1  0
 39 40  1  0
 40 41  1  0
 34 42  1  0
 42 43  2  0
 19 44  1  0
  8  3  1  0
 16 10  1  0
 43 31  1  0
 44  6  1  0
 16  7  1  0
 41 36  1  0
  1 45  1  0
  1 46  1  0
  1 47  1  0
  4 48  1  0
  5 49  1  0
 10 50  1  6
 11 51  1  0
 11 52  1  0
 12 53  1  6
 13 54  1  0
 14 55  1  0
 15 56  1  0
 17 57  1  0
 17 58  1  0
 18 59  1  0
 18 60  1  0
 20 61  1  0
 20 62  1  0
 21 63  1  0
 21 64  1  0
 22 65  1  0
 22 66  1  0
 23 67  1  0
 23 68  1  0
 24 69  1  0
 24 70  1  0
 25 71  1  0
 25 72  1  0
 26 73  1  0
 26 74  1  0
 27 75  1  0
 27 76  1  0
 28 77  1  0
 28 78  1  0
 29 79  1  0
 29 80  1  0
 32 81  1  0
 33 82  1  0
 35 83  1  0
 35 84  1  0
 37 85  1  0
 37 86  1  0
 38 87  1  0
 38 88  1  0
 39 89  1  0
 39 90  1  0
 40 91  1  0
 40 92  1  0
 41 93  1  0
 41 94  1  0
 42 95  1  0
 43 96  1  0
 44 97  1  0
 44 98  1  0
M  END
$$$$
