
     RDKit          3D

 38 39  0  0  0  0  0  0  0  0999 V2000
    3.5154   -0.3764   -0.4486 O   0  0  0  0  0  0  0  0  0  0  0  0
    2.8748    0.0414    0.5475 C   0  0  0  0  0  0  0  0  0  0  0  0
    1.4033   -0.0983    0.5907 C   0  0  0  0  0  0  0  0  0  0  0  0
    0.8642   -0.7602   -0.6578 C   0  0  0  0  0  0  0  0  0  0  0  0
   -0.6507   -0.8602   -0.5241 C   0  0  0  0  0  0  0  0  0  0  0  0
   -1.2212   -1.5212   -1.7641 C   0  0  0  0  0  0  0  0  0  0  0  0
   -2.7349   -1.5970   -1.5812 C   0  0  0  0  0  0  0  0  0  0  0  0
   -3.3170   -0.2420   -1.4172 C   0  0  0  0  0  0  0  0  0  0  0  0
   -3.7296    0.4624   -2.5294 C   0  0  0  0  0  0  0  0  0  0  0  0
   -4.2791    1.7234   -2.4520 C   0  0  0  0  0  0  0  0  0  0  0  0
   -4.4210    2.3040   -1.2019 C   0  0  0  0  0  0  0  0  0  0  0  0
   -4.0023    1.5868   -0.0837 C   0  0  0  0  0  0  0  0  0  0  0  0
   -4.1755    2.3100    1.5173 Cl  0  0  0  0  0  0  0  0  0  0  0  0
   -3.4551    0.3263   -0.1841 C   0  0  0  0  0  0  0  0  0  0  0  0
    3.5875    0.6449    1.6204 N   0  0  0  0  0  0  0  0  0  0  0  0
    5.0217    0.8437    1.7064 C   0  0  0  0  0  0  0  0  0  0  0  0
    5.2572    1.1634    3.1434 C   0  0  0  0  0  0  0  0  0  0  0  0
    4.0091    1.6462    3.6052 O   0  0  0  0  0  0  0  0  0  0  0  0
    2.9857    1.1598    2.8041 C   0  0  0  0  0  0  0  0  0  0  0  0
    1.7739    1.2054    3.1400 O   0  0  0  0  0  0  0  0  0  0  0  0
    1.1318   -0.7556    1.4416 H   0  0  0  0  0  0  0  0  0  0  0  0
    0.8804    0.8662    0.7530 H   0  0  0  0  0  0  0  0  0  0  0  0
    1.2546   -1.7646   -0.8057 H   0  0  0  0  0  0  0  0  0  0  0  0
    1.0338   -0.0857   -1.5391 H   0  0  0  0  0  0  0  0  0  0  0  0
   -0.9148   -1.4105    0.3903 H   0  0  0  0  0  0  0  0  0  0  0  0
   -1.0109    0.1993   -0.4894 H   0  0  0  0  0  0  0  0  0  0  0  0
   -0.9788   -0.8865   -2.6393 H   0  0  0  0  0  0  0  0  0  0  0  0
   -0.7828   -2.5261   -1.8758 H   0  0  0  0  0  0  0  0  0  0  0  0
   -2.9854   -2.2938   -0.7731 H   0  0  0  0  0  0  0  0  0  0  0  0
   -3.1177   -2.0473   -2.5361 H   0  0  0  0  0  0  0  0  0  0  0  0
   -3.6407    0.0517   -3.5399 H   0  0  0  0  0  0  0  0  0  0  0  0
   -4.6080    2.2915   -3.3082 H   0  0  0  0  0  0  0  0  0  0  0  0
   -4.8407    3.2816   -1.0743 H   0  0  0  0  0  0  0  0  0  0  0  0
   -3.1465   -0.1821    0.7399 H   0  0  0  0  0  0  0  0  0  0  0  0
    5.5785   -0.0485    1.3555 H   0  0  0  0  0  0  0  0  0  0  0  0
    5.2536    1.7478    1.0990 H   0  0  0  0  0  0  0  0  0  0  0  0
    6.0097    1.9984    3.2066 H   0  0  0  0  0  0  0  0  0  0  0  0
    5.5774    0.3088    3.7643 H   0  0  0  0  0  0  0  0  0  0  0  0
  1  2  2  0
  2  3  1  0
  3  4  1  0
  4  5  1  0
  5  6  1  0
  6  7  1  0
  7  8  1  0
  8  9  2  0
  9 10  1  0
 10 11  2  0
 11 12  1  0
 12 13  1  0
 12 14  2  0
  2 15  1  0
 15 16  1  0
 16 17  1  0
 17 18  1  0
 18 19  1  0
 19 20  2  0
 14  8  1  0
 19 15  1  0
  3 21  1  0
  3 22  1  0
  4 23  1  0
  4 24  1  0
  5 25  1  0
  5 26  1  0
  6 27  1  0
  6 28  1  0
  7 29  1  0
  7 30  1  0
  9 31  1  0
 10 32  1  0
 11 33  1  0
 14 34  1  0
 16 35  1  0
 16 36  1  0
 17 37  1  0
 17 38  1  0
M  END
$$$$
