@<TRIPOS>MOLECULE
*****
 38 39 0 0 0
SMALL
GASTEIGER

@<TRIPOS>ATOM
      1 O           3.5154   -0.3764   -0.4486 O.2     1  UNL1       -0.2751
      2 C           2.8748    0.0414    0.5475 C.2     1  UNL1        0.2244
      3 C           1.4033   -0.0983    0.5907 C.3     1  UNL1        0.0246
      4 C           0.8642   -0.7602   -0.6578 C.3     1  UNL1       -0.0448
      5 C          -0.6507   -0.8602   -0.5241 C.3     1  UNL1       -0.0523
      6 C          -1.2212   -1.5212   -1.7641 C.3     1  UNL1       -0.0490
      7 C          -2.7349   -1.5970   -1.5812 C.3     1  UNL1       -0.0276
      8 C          -3.3170   -0.2420   -1.4172 C.ar    1  UNL1       -0.0460
      9 C          -3.7296    0.4624   -2.5294 C.ar    1  UNL1       -0.0585
     10 C          -4.2791    1.7234   -2.4520 C.ar    1  UNL1       -0.0601
     11 C          -4.4210    2.3040   -1.2019 C.ar    1  UNL1       -0.0434
     12 C          -4.0023    1.5868   -0.0837 C.ar    1  UNL1        0.0412
     13 CL         -4.1755    2.3100    1.5173 Cl      1  UNL1       -0.0835
     14 C          -3.4551    0.3263   -0.1841 C.ar    1  UNL1       -0.0402
     15 N           3.5875    0.6449    1.6204 N.am    1  UNL1       -0.2042
     16 C           5.0217    0.8437    1.7064 C.3     1  UNL1        0.0598
     17 C           5.2572    1.1634    3.1434 C.3     1  UNL1        0.1103
     18 O           4.0091    1.6462    3.6052 O.3     1  UNL1       -0.4484
     19 C           2.9857    1.1598    2.8041 C.2     1  UNL1        0.4094
     20 O           1.7739    1.2054    3.1400 O.2     1  UNL1       -0.2258
     21 H           1.1318   -0.7556    1.4416 H       1  UNL1        0.0358
     22 H           0.8804    0.8662    0.7530 H       1  UNL1        0.0358
     23 H           1.2546   -1.7646   -0.8057 H       1  UNL1        0.0270
     24 H           1.0338   -0.0857   -1.5391 H       1  UNL1        0.0270
     25 H          -0.9148   -1.4105    0.3903 H       1  UNL1        0.0265
     26 H          -1.0109    0.1993   -0.4894 H       1  UNL1        0.0265
     27 H          -0.9788   -0.8865   -2.6393 H       1  UNL1        0.0268
     28 H          -0.7828   -2.5261   -1.8758 H       1  UNL1        0.0268
     29 H          -2.9854   -2.2938   -0.7731 H       1  UNL1        0.0313
     30 H          -3.1177   -2.0473   -2.5361 H       1  UNL1        0.0313
     31 H          -3.6407    0.0517   -3.5399 H       1  UNL1        0.0620
     32 H          -4.6080    2.2915   -3.3082 H       1  UNL1        0.0618
     33 H          -4.8407    3.2816   -1.0743 H       1  UNL1        0.0632
     34 H          -3.1465   -0.1821    0.7399 H       1  UNL1        0.0635
     35 H           5.5785   -0.0485    1.3555 H       1  UNL1        0.0504
     36 H           5.2536    1.7478    1.0990 H       1  UNL1        0.0504
     37 H           6.0097    1.9984    3.2066 H       1  UNL1        0.0714
     38 H           5.5774    0.3088    3.7643 H       1  UNL1        0.0714
@<TRIPOS>BOND
     1     1     2    2
     2     2     3    1
     3     3     4    1
     4     4     5    1
     5     5     6    1
     6     6     7    1
     7     7     8    1
     8     8     9   ar
     9     9    10   ar
    10    10    11   ar
    11    11    12   ar
    12    12    13    1
    13    12    14   ar
    14     2    15   am
    15    15    16    1
    16    16    17    1
    17    17    18    1
    18    18    19    1
    19    19    20    2
    20    14     8   ar
    21    19    15   am
    22     3    21    1
    23     3    22    1
    24     4    23    1
    25     4    24    1
    26     5    25    1
    27     5    26    1
    28     6    27    1
    29     6    28    1
    30     7    29    1
    31     7    30    1
    32     9    31    1
    33    10    32    1
    34    11    33    1
    35    14    34    1
    36    16    35    1
    37    16    36    1
    38    17    37    1
    39    17    38    1
