@<TRIPOS>MOLECULE
*****
 68 72 0 0 0
SMALL
GASTEIGER

@<TRIPOS>ATOM
      1 C          -2.1498   -5.9786   -1.2402 C.3     1  UNL1       -0.0438
      2 C          -1.9641   -4.4534   -1.2449 C.3     1  UNL1        0.0843
      3 S          -1.3760   -4.0287    0.3697 S.O2    1  UNL1        0.0549
      4 O          -0.1585   -4.8175    0.6480 O.2     1  UNL1       -0.1529
      5 O          -2.4217   -4.4517    1.3978 O.2     1  UNL1       -0.1529
      6 N          -1.1100   -2.3298    0.4925 N.ar    1  UNL1       -0.2191
      7 C          -2.0327   -1.3728    0.3578 C.ar    1  UNL1        0.0490
      8 C          -1.4323   -0.1440    0.5129 C.ar    1  UNL1       -0.0031
      9 C          -0.0780   -0.3561    0.7547 C.ar    1  UNL1        0.0070
     10 C           0.9601    0.5148    0.9800 C.ar    1  UNL1       -0.0401
     11 C           2.2233    0.0175    1.1977 C.ar    1  UNL1        0.0376
     12 C           3.2852    0.9717    1.4378 C.2     1  UNL1        0.2466
     13 O           3.1623    1.6894    2.4802 O.2     1  UNL1       -0.2700
     14 N           4.3742    1.0876    0.5685 N.am    1  UNL1       -0.2975
     15 C           5.4243    2.0486    0.8157 C.3     1  UNL1        0.0152
     16 C           6.7199    1.2405    0.9244 C.3     1  UNL1       -0.0345
     17 C           6.9467    0.6057   -0.4433 C.3     1  UNL1       -0.0410
     18 C           8.1375    1.3055   -1.0578 C.3     1  UNL1       -0.0623
     19 C           5.7312    0.7597   -1.3473 C.3     1  UNL1       -0.0345
     20 C           4.4936    0.2596   -0.5979 C.3     1  UNL1        0.0152
     21 C           2.4312   -1.3357    1.1873 C.ar    1  UNL1       -0.0476
     22 C           1.3714   -2.1811    0.9583 C.ar    1  UNL1       -0.0352
     23 C           0.0706   -1.7374    0.7316 C.ar    1  UNL1        0.0725
     24 C          -2.1595    1.1491    0.4360 C.3     1  UNL1        0.0266
     25 N          -3.3787    0.9111   -0.3239 N.3     1  UNL1       -0.2946
     26 C          -4.1135    2.1551   -0.4780 C.3     1  UNL1        0.0149
     27 C          -5.3550    1.9912   -1.2938 C.3     1  UNL1       -0.0137
     28 C          -6.6430    2.1627   -0.5829 C.3     1  UNL1        0.0491
     29 O          -6.6652    3.0156    0.4818 O.3     1  UNL1       -0.3797
     30 C          -5.5461    3.7809    0.6650 C.3     1  UNL1        0.0491
     31 C          -4.3776    2.8234    0.8571 C.3     1  UNL1       -0.0137
     32 C          -4.1381   -0.0958    0.3816 C.3     1  UNL1        0.0049
     33 C          -3.4831   -1.4501    0.0963 C.3     1  UNL1        0.0026
     34 H          -2.7538   -6.3075   -2.0941 H       1  UNL1        0.0246
     35 H          -1.1282   -6.4364   -1.3837 H       1  UNL1        0.0246
     36 H          -2.5148   -6.3290   -0.2713 H       1  UNL1        0.0246
     37 H          -2.9876   -4.0430   -1.3478 H       1  UNL1        0.0518
     38 H          -1.3397   -4.0987   -2.0603 H       1  UNL1        0.0518
     39 H           0.7911    1.5889    0.9902 H       1  UNL1        0.0632
     40 H           5.2223    2.5545    1.7586 H       1  UNL1        0.0465
     41 H           5.4789    2.8056    0.0038 H       1  UNL1        0.0465
     42 H           6.5072    0.4067    1.6264 H       1  UNL1        0.0283
     43 H           7.5650    1.8451    1.2672 H       1  UNL1        0.0283
     44 H           7.1264   -0.4970   -0.3530 H       1  UNL1        0.0299
     45 H           7.8745    2.3939   -1.1277 H       1  UNL1        0.0232
     46 H           8.9796    1.2262   -0.3367 H       1  UNL1        0.0232
     47 H           8.3827    0.8908   -2.0390 H       1  UNL1        0.0232
     48 H           5.6133    1.7687   -1.7427 H       1  UNL1        0.0283
     49 H           5.9008    0.0719   -2.1997 H       1  UNL1        0.0283
     50 H           4.7076   -0.8026   -0.3526 H       1  UNL1        0.0465
     51 H           3.6349    0.2978   -1.2730 H       1  UNL1        0.0465
     52 H           3.3999   -1.7464    1.3617 H       1  UNL1        0.0626
     53 H           1.5030   -3.2671    0.9417 H       1  UNL1        0.0639
     54 H          -1.5380    1.8628   -0.1317 H       1  UNL1        0.0476
     55 H          -2.4337    1.5218    1.4512 H       1  UNL1        0.0476
     56 H          -3.4405    2.8425   -1.0326 H       1  UNL1        0.0464
     57 H          -5.3347    0.9345   -1.6961 H       1  UNL1        0.0302
     58 H          -5.3455    2.6577   -2.2047 H       1  UNL1        0.0302
     59 H          -7.4017    2.5556   -1.3288 H       1  UNL1        0.0560
     60 H          -7.1065    1.1948   -0.2559 H       1  UNL1        0.0560
     61 H          -5.6856    4.3472    1.6208 H       1  UNL1        0.0560
     62 H          -5.3642    4.5416   -0.1117 H       1  UNL1        0.0560
     63 H          -4.6727    2.1081    1.6321 H       1  UNL1        0.0302
     64 H          -3.5199    3.4626    1.1716 H       1  UNL1        0.0302
     65 H          -5.1612   -0.1762   -0.0131 H       1  UNL1        0.0430
     66 H          -4.1208    0.0253    1.4870 H       1  UNL1        0.0430
     67 H          -3.9113   -2.1645    0.8287 H       1  UNL1        0.0341
     68 H          -3.6756   -1.7934   -0.9163 H       1  UNL1        0.0341
@<TRIPOS>BOND
     1     1     2    1
     2     2     3    1
     3     3     4    2
     4     3     5    2
     5     3     6    1
     6     6     7   ar
     7     7     8   ar
     8     8     9   ar
     9     9    10   ar
    10    10    11   ar
    11    11    12    1
    12    12    13    2
    13    12    14   am
    14    14    15    1
    15    15    16    1
    16    16    17    1
    17    17    18    1
    18    17    19    1
    19    19    20    1
    20    11    21   ar
    21    21    22   ar
    22    22    23   ar
    23     8    24    1
    24    24    25    1
    25    25    26    1
    26    26    27    1
    27    27    28    1
    28    28    29    1
    29    29    30    1
    30    30    31    1
    31    25    32    1
    32    32    33    1
    33    23     6   ar
    34    31    26    1
    35    33     7    1
    36    23     9   ar
    37    20    14    1
    38     1    34    1
    39     1    35    1
    40     1    36    1
    41     2    37    1
    42     2    38    1
    43    10    39    1
    44    15    40    1
    45    15    41    1
    46    16    42    1
    47    16    43    1
    48    17    44    1
    49    18    45    1
    50    18    46    1
    51    18    47    1
    52    19    48    1
    53    19    49    1
    54    20    50    1
    55    20    51    1
    56    21    52    1
    57    22    53    1
    58    24    54    1
    59    24    55    1
    60    26    56    1
    61    27    57    1
    62    27    58    1
    63    28    59    1
    64    28    60    1
    65    30    61    1
    66    30    62    1
    67    31    63    1
    68    31    64    1
    69    32    65    1
    70    32    66    1
    71    33    67    1
    72    33    68    1
