
     RDKit          3D

 68 72  0  0  0  0  0  0  0  0999 V2000
   -2.1498   -5.9786   -1.2402 C   0  0  0  0  0  0  0  0  0  0  0  0
   -1.9641   -4.4534   -1.2449 C   0  0  0  0  0  0  0  0  0  0  0  0
   -1.3760   -4.0287    0.3697 S   0  0  0  0  0  6  0  0  0  0  0  0
   -0.1585   -4.8175    0.6480 O   0  0  0  0  0  0  0  0  0  0  0  0
   -2.4217   -4.4517    1.3978 O   0  0  0  0  0  0  0  0  0  0  0  0
   -1.1100   -2.3298    0.4925 N   0  0  0  0  0  0  0  0  0  0  0  0
   -2.0327   -1.3728    0.3578 C   0  0  0  0  0  0  0  0  0  0  0  0
   -1.4323   -0.1440    0.5129 C   0  0  0  0  0  0  0  0  0  0  0  0
   -0.0780   -0.3561    0.7547 C   0  0  0  0  0  0  0  0  0  0  0  0
    0.9601    0.5148    0.9800 C   0  0  0  0  0  0  0  0  0  0  0  0
    2.2233    0.0175    1.1977 C   0  0  0  0  0  0  0  0  0  0  0  0
    3.2852    0.9717    1.4378 C   0  0  0  0  0  0  0  0  0  0  0  0
    3.1623    1.6894    2.4802 O   0  0  0  0  0  0  0  0  0  0  0  0
    4.3742    1.0876    0.5685 N   0  0  0  0  0  0  0  0  0  0  0  0
    5.4243    2.0486    0.8157 C   0  0  0  0  0  0  0  0  0  0  0  0
    6.7199    1.2405    0.9244 C   0  0  0  0  0  0  0  0  0  0  0  0
    6.9467    0.6057   -0.4433 C   0  0  0  0  0  0  0  0  0  0  0  0
    8.1375    1.3055   -1.0578 C   0  0  0  0  0  0  0  0  0  0  0  0
    5.7312    0.7597   -1.3473 C   0  0  0  0  0  0  0  0  0  0  0  0
    4.4936    0.2596   -0.5979 C   0  0  0  0  0  0  0  0  0  0  0  0
    2.4312   -1.3357    1.1873 C   0  0  0  0  0  0  0  0  0  0  0  0
    1.3714   -2.1811    0.9583 C   0  0  0  0  0  0  0  0  0  0  0  0
    0.0706   -1.7374    0.7316 C   0  0  0  0  0  0  0  0  0  0  0  0
   -2.1595    1.1491    0.4360 C   0  0  0  0  0  0  0  0  0  0  0  0
   -3.3787    0.9111   -0.3239 N   0  0  0  0  0  0  0  0  0  0  0  0
   -4.1135    2.1551   -0.4780 C   0  0  0  0  0  0  0  0  0  0  0  0
   -5.3550    1.9912   -1.2938 C   0  0  0  0  0  0  0  0  0  0  0  0
   -6.6430    2.1627   -0.5829 C   0  0  0  0  0  0  0  0  0  0  0  0
   -6.6652    3.0156    0.4818 O   0  0  0  0  0  0  0  0  0  0  0  0
   -5.5461    3.7809    0.6650 C   0  0  0  0  0  0  0  0  0  0  0  0
   -4.3776    2.8234    0.8571 C   0  0  0  0  0  0  0  0  0  0  0  0
   -4.1381   -0.0958    0.3816 C   0  0  0  0  0  0  0  0  0  0  0  0
   -3.4831   -1.4501    0.0963 C   0  0  0  0  0  0  0  0  0  0  0  0
   -2.7538   -6.3075   -2.0941 H   0  0  0  0  0  0  0  0  0  0  0  0
   -1.1282   -6.4364   -1.3837 H   0  0  0  0  0  0  0  0  0  0  0  0
   -2.5148   -6.3290   -0.2713 H   0  0  0  0  0  0  0  0  0  0  0  0
   -2.9876   -4.0430   -1.3478 H   0  0  0  0  0  0  0  0  0  0  0  0
   -1.3397   -4.0987   -2.0603 H   0  0  0  0  0  0  0  0  0  0  0  0
    0.7911    1.5889    0.9902 H   0  0  0  0  0  0  0  0  0  0  0  0
    5.2223    2.5545    1.7586 H   0  0  0  0  0  0  0  0  0  0  0  0
    5.4789    2.8056    0.0038 H   0  0  0  0  0  0  0  0  0  0  0  0
    6.5072    0.4067    1.6264 H   0  0  0  0  0  0  0  0  0  0  0  0
    7.5650    1.8451    1.2672 H   0  0  0  0  0  0  0  0  0  0  0  0
    7.1264   -0.4970   -0.3530 H   0  0  0  0  0  0  0  0  0  0  0  0
    7.8745    2.3939   -1.1277 H   0  0  0  0  0  0  0  0  0  0  0  0
    8.9796    1.2262   -0.3367 H   0  0  0  0  0  0  0  0  0  0  0  0
    8.3827    0.8908   -2.0390 H   0  0  0  0  0  0  0  0  0  0  0  0
    5.6133    1.7687   -1.7427 H   0  0  0  0  0  0  0  0  0  0  0  0
    5.9008    0.0719   -2.1997 H   0  0  0  0  0  0  0  0  0  0  0  0
    4.7076   -0.8026   -0.3526 H   0  0  0  0  0  0  0  0  0  0  0  0
    3.6349    0.2978   -1.2730 H   0  0  0  0  0  0  0  0  0  0  0  0
    3.3999   -1.7464    1.3617 H   0  0  0  0  0  0  0  0  0  0  0  0
    1.5030   -3.2671    0.9417 H   0  0  0  0  0  0  0  0  0  0  0  0
   -1.5380    1.8628   -0.1317 H   0  0  0  0  0  0  0  0  0  0  0  0
   -2.4337    1.5218    1.4512 H   0  0  0  0  0  0  0  0  0  0  0  0
   -3.4405    2.8425   -1.0326 H   0  0  0  0  0  0  0  0  0  0  0  0
   -5.3347    0.9345   -1.6961 H   0  0  0  0  0  0  0  0  0  0  0  0
   -5.3455    2.6577   -2.2047 H   0  0  0  0  0  0  0  0  0  0  0  0
   -7.4017    2.5556   -1.3288 H   0  0  0  0  0  0  0  0  0  0  0  0
   -7.1065    1.1948   -0.2559 H   0  0  0  0  0  0  0  0  0  0  0  0
   -5.6856    4.3472    1.6208 H   0  0  0  0  0  0  0  0  0  0  0  0
   -5.3642    4.5416   -0.1117 H   0  0  0  0  0  0  0  0  0  0  0  0
   -4.6727    2.1081    1.6321 H   0  0  0  0  0  0  0  0  0  0  0  0
   -3.5199    3.4626    1.1716 H   0  0  0  0  0  0  0  0  0  0  0  0
   -5.1612   -0.1762   -0.0131 H   0  0  0  0  0  0  0  0  0  0  0  0
   -4.1208    0.0253    1.4870 H   0  0  0  0  0  0  0  0  0  0  0  0
   -3.9113   -2.1645    0.8287 H   0  0  0  0  0  0  0  0  0  0  0  0
   -3.6756   -1.7934   -0.9163 H   0  0  0  0  0  0  0  0  0  0  0  0
  1  2  1  0
  2  3  1  0
  3  4  2  0
  3  5  2  0
  3  6  1  0
  6  7  1  0
  7  8  2  0
  8  9  1  0
  9 10  2  0
 10 11  1  0
 11 12  1  0
 12 13  2  0
 12 14  1  0
 14 15  1  0
 15 16  1  0
 16 17  1  0
 17 18  1  0
 17 19  1  0
 19 20  1  0
 11 21  2  0
 21 22  1  0
 22 23  2  0
  8 24  1  0
 24 25  1  0
 25 26  1  0
 26 27  1  0
 27 28  1  0
 28 29  1  0
 29 30  1  0
 30 31  1  0
 25 32  1  0
 32 33  1  0
 23  6  1  0
 31 26  1  0
 33  7  1  0
 23  9  1  0
 20 14  1  0
  1 34  1  0
  1 35  1  0
  1 36  1  0
  2 37  1  0
  2 38  1  0
 10 39  1  0
 15 40  1  0
 15 41  1  0
 16 42  1  0
 16 43  1  0
 17 44  1  0
 18 45  1  0
 18 46  1  0
 18 47  1  0
 19 48  1  0
 19 49  1  0
 20 50  1  0
 20 51  1  0
 21 52  1  0
 22 53  1  0
 24 54  1  0
 24 55  1  0
 26 56  1  0
 27 57  1  0
 27 58  1  0
 28 59  1  0
 28 60  1  0
 30 61  1  0
 30 62  1  0
 31 63  1  0
 31 64  1  0
 32 65  1  0
 32 66  1  0
 33 67  1  0
 33 68  1  0
M  END
$$$$
