
     RDKit          3D

 43 46  0  0  0  0  0  0  0  0999 V2000
    7.0130   -1.7306    0.3978 C   0  0  0  0  0  0  0  0  0  0  0  0
    6.3939   -0.4211    0.8173 C   0  0  0  0  0  0  0  0  0  0  0  0
    5.3483    0.0350   -0.1433 C   0  0  0  0  0  0  0  0  0  0  0  0
    5.8509    0.8784   -1.2256 N   0  0  0  0  0  0  0  0  0  0  0  0
    4.3867    1.2390   -2.1605 S   0  0  0  0  0  0  0  0  0  0  0  0
    3.2689    0.2376   -1.0227 C   0  0  0  0  0  0  0  0  0  0  0  0
    1.8319    0.1455   -1.2934 C   0  0  0  0  0  0  0  0  0  0  0  0
    1.2858   -0.7907   -2.1319 N   0  0  0  0  0  0  0  0  0  0  0  0
   -0.0223   -0.6115   -2.1680 N   0  0  0  0  0  0  0  0  0  0  0  0
   -0.3215    0.3987   -1.3865 C   0  0  0  0  0  0  0  0  0  0  0  0
    0.8304    0.8699   -0.8419 N   0  0  0  0  0  0  0  0  0  0  0  0
    0.7869    1.9952    0.0776 C   0  0  0  0  0  0  0  0  0  0  0  0
   -0.3346    1.8619    1.0640 C   0  0  0  0  0  0  0  0  0  0  0  0
   -1.4957    1.1658    0.4744 N   0  0  0  0  0  0  0  0  0  0  0  0
   -2.4022    0.5928    1.3663 C   0  0  0  0  0  0  0  0  0  0  0  0
   -2.1735    0.7024    2.6397 O   0  0  0  0  0  0  0  0  0  0  0  0
   -3.6215   -0.1407    1.0584 C   0  0  0  0  0  0  0  0  0  0  0  0
   -3.6586   -1.3945    0.4902 C   0  0  0  0  0  0  0  0  0  0  0  0
   -4.8354   -2.0636    0.2272 C   0  0  0  0  0  0  0  0  0  0  0  0
   -6.0602   -1.4947    0.5297 C   0  0  0  0  0  0  0  0  0  0  0  0
   -7.2347   -2.1230    0.2853 F   0  0  0  0  0  0  0  0  0  0  0  0
   -6.0231   -0.2396    1.0990 C   0  0  0  0  0  0  0  0  0  0  0  0
   -4.8668    0.4323    1.3638 C   0  0  0  0  0  0  0  0  0  0  0  0
   -1.5523    1.1644   -0.9420 C   0  0  2  0  0  0  0  0  0  0  0  0
   -2.7666    0.7046   -1.6278 C   0  0  0  0  0  0  0  0  0  0  0  0
    4.1040   -0.1558   -0.2168 N   0  0  0  0  0  0  0  0  0  0  0  0
    8.1213   -1.7185    0.5029 H   0  0  0  0  0  0  0  0  0  0  0  0
    6.7907   -2.0121   -0.6573 H   0  0  0  0  0  0  0  0  0  0  0  0
    6.6633   -2.5845    1.0277 H   0  0  0  0  0  0  0  0  0  0  0  0
    7.1412    0.3691    1.0153 H   0  0  0  0  0  0  0  0  0  0  0  0
    5.8876   -0.6026    1.7884 H   0  0  0  0  0  0  0  0  0  0  0  0
    0.5820    2.9266   -0.5070 H   0  0  0  0  0  0  0  0  0  0  0  0
    1.7279    2.1635    0.6181 H   0  0  0  0  0  0  0  0  0  0  0  0
   -0.6804    2.8814    1.3379 H   0  0  0  0  0  0  0  0  0  0  0  0
   -0.0456    1.2634    1.9575 H   0  0  0  0  0  0  0  0  0  0  0  0
   -2.6973   -1.8461    0.2488 H   0  0  0  0  0  0  0  0  0  0  0  0
   -4.8514   -3.0575   -0.2219 H   0  0  0  0  0  0  0  0  0  0  0  0
   -6.9890    0.2117    1.3378 H   0  0  0  0  0  0  0  0  0  0  0  0
   -4.8450    1.4290    1.8154 H   0  0  0  0  0  0  0  0  0  0  0  0
   -1.3515    2.2439   -1.2638 H   0  0  0  0  0  0  0  0  0  0  0  0
   -2.8019    1.2629   -2.6284 H   0  0  0  0  0  0  0  0  0  0  0  0
   -3.6999    0.9834   -1.1444 H   0  0  0  0  0  0  0  0  0  0  0  0
   -2.6837   -0.3536   -1.9574 H   0  0  0  0  0  0  0  0  0  0  0  0
  1  2  1  0
  2  3  1  0
  3  4  2  0
  4  5  1  0
  5  6  1  0
  6  7  1  0
  7  8  2  0
  8  9  1  0
  9 10  2  0
 10 11  1  0
 11 12  1  0
 12 13  1  0
 13 14  1  0
 14 15  1  0
 15 16  2  0
 15 17  1  0
 17 18  2  0
 18 19  1  0
 19 20  2  0
 20 21  1  0
 20 22  1  0
 22 23  2  0
 14 24  1  0
 24 25  1  0
  6 26  2  0
 26  3  1  0
 11  7  1  0
 23 17  1  0
 24 10  1  0
  1 27  1  0
  1 28  1  0
  1 29  1  0
  2 30  1  0
  2 31  1  0
 12 32  1  0
 12 33  1  0
 13 34  1  0
 13 35  1  0
 18 36  1  0
 19 37  1  0
 22 38  1  0
 23 39  1  0
 24 40  1  6
 25 41  1  0
 25 42  1  0
 25 43  1  0
M  END
$$$$
