@<TRIPOS>MOLECULE
*****
 43 46 0 0 0
SMALL
GASTEIGER

@<TRIPOS>ATOM
      1 C           7.0130   -1.7306    0.3978 C.3     1  UNL1       -0.0583
      2 C           6.3939   -0.4211    0.8173 C.3     1  UNL1        0.0051
      3 C           5.3483    0.0350   -0.1433 C.ar    1  UNL1        0.1387
      4 N           5.8509    0.8784   -1.2256 N.ar    1  UNL1       -0.1936
      5 S           4.3867    1.2390   -2.1605 S.2     1  UNL1        0.0369
      6 C           3.2689    0.2376   -1.0227 C.ar    1  UNL1        0.1652
      7 C           1.8319    0.1455   -1.2934 C.ar    1  UNL1        0.1910
      8 N           1.2858   -0.7907   -2.1319 N.ar    1  UNL1       -0.1269
      9 N          -0.0223   -0.6115   -2.1680 N.ar    1  UNL1       -0.1320
     10 C          -0.3215    0.3987   -1.3865 C.ar    1  UNL1        0.1542
     11 N           0.8304    0.8699   -0.8419 N.ar    1  UNL1       -0.3062
     12 C           0.7869    1.9952    0.0776 C.3     1  UNL1        0.0423
     13 C          -0.3346    1.8619    1.0640 C.3     1  UNL1        0.0338
     14 N          -1.4957    1.1658    0.4744 N.am    1  UNL1       -0.2860
     15 C          -2.4022    0.5928    1.3663 C.2     1  UNL1        0.2472
     16 O          -2.1735    0.7024    2.6397 O.2     1  UNL1       -0.2700
     17 C          -3.6215   -0.1407    1.0584 C.ar    1  UNL1        0.0371
     18 C          -3.6586   -1.3945    0.4902 C.ar    1  UNL1       -0.0469
     19 C          -4.8354   -2.0636    0.2272 C.ar    1  UNL1       -0.0257
     20 C          -6.0602   -1.4947    0.5297 C.ar    1  UNL1        0.1234
     21 F          -7.2347   -2.1230    0.2853 F       1  UNL1       -0.2055
     22 C          -6.0231   -0.2396    1.0990 C.ar    1  UNL1       -0.0257
     23 C          -4.8668    0.4323    1.3638 C.ar    1  UNL1       -0.0469
     24 C          -1.5523    1.1644   -0.9420 C.3     1  UNL1        0.0834
     25 C          -2.7666    0.7046   -1.6278 C.3     1  UNL1       -0.0393
     26 N           4.1040   -0.1558   -0.2168 N.ar    1  UNL1       -0.2197
     27 H           8.1213   -1.7185    0.5029 H       1  UNL1        0.0234
     28 H           6.7907   -2.0121   -0.6573 H       1  UNL1        0.0234
     29 H           6.6633   -2.5845    1.0277 H       1  UNL1        0.0234
     30 H           7.1412    0.3691    1.0153 H       1  UNL1        0.0341
     31 H           5.8876   -0.6026    1.7884 H       1  UNL1        0.0341
     32 H           0.5820    2.9266   -0.5070 H       1  UNL1        0.0508
     33 H           1.7279    2.1635    0.6181 H       1  UNL1        0.0508
     34 H          -0.6804    2.8814    1.3379 H       1  UNL1        0.0482
     35 H          -0.0456    1.2634    1.9575 H       1  UNL1        0.0482
     36 H          -2.6973   -1.8461    0.2488 H       1  UNL1        0.0626
     37 H          -4.8514   -3.0575   -0.2219 H       1  UNL1        0.0646
     38 H          -6.9890    0.2117    1.3378 H       1  UNL1        0.0646
     39 H          -4.8450    1.4290    1.8154 H       1  UNL1        0.0626
     40 H          -1.3515    2.2439   -1.2638 H       1  UNL1        0.0579
     41 H          -2.8019    1.2629   -2.6284 H       1  UNL1        0.0252
     42 H          -3.6999    0.9834   -1.1444 H       1  UNL1        0.0252
     43 H          -2.6837   -0.3536   -1.9574 H       1  UNL1        0.0252
@<TRIPOS>BOND
     1     1     2    1
     2     2     3    1
     3     3     4   ar
     4     4     5   ar
     5     5     6   ar
     6     6     7    1
     7     7     8   ar
     8     8     9   ar
     9     9    10   ar
    10    10    11   ar
    11    11    12    1
    12    12    13    1
    13    13    14    1
    14    14    15   am
    15    15    16    2
    16    15    17    1
    17    17    18   ar
    18    18    19   ar
    19    19    20   ar
    20    20    21    1
    21    20    22   ar
    22    22    23   ar
    23    14    24    1
    24    24    25    1
    25     6    26   ar
    26    26     3   ar
    27    11     7   ar
    28    23    17   ar
    29    24    10    1
    30     1    27    1
    31     1    28    1
    32     1    29    1
    33     2    30    1
    34     2    31    1
    35    12    32    1
    36    12    33    1
    37    13    34    1
    38    13    35    1
    39    18    36    1
    40    19    37    1
    41    22    38    1
    42    23    39    1
    43    24    40    1
    44    25    41    1
    45    25    42    1
    46    25    43    1
