@<TRIPOS>MOLECULE
*****
 46 47 0 0 0
SMALL
GASTEIGER

@<TRIPOS>ATOM
      1 C          -3.3842    3.2652    0.6011 C.3     1  UNL1        0.0820
      2 O          -3.4197    1.8997    0.9613 O.3     1  UNL1       -0.4644
      3 C          -3.8684    0.9795    0.0611 C.2     1  UNL1        0.3428
      4 O          -4.1518    1.6978   -0.9386 O.2     1  UNL1       -0.2448
      5 C          -4.0950   -0.4488   -0.0706 C.ar    1  UNL1        0.1050
      6 C          -3.0982   -1.2683   -0.5513 C.ar    1  UNL1       -0.0076
      7 C          -1.7620   -0.8327   -0.9549 C.3     1  UNL1       -0.0170
      8 C          -0.9106   -0.5965    0.2632 C.3     1  UNL1        0.0283
      9 C           0.4605   -0.1524   -0.0997 C.2     1  UNL1        0.2176
     10 O           0.1833   -0.1652   -1.3469 O.2     1  UNL1       -0.2755
     11 N           1.4554    0.0976    0.8704 N.am    1  UNL1       -0.2825
     12 C           2.7916    0.5225    0.6580 C.ar    1  UNL1        0.0791
     13 C           3.7202   -0.4824    0.4827 C.ar    1  UNL1        0.1417
     14 O           3.3953   -1.8468    0.5059 O.3     1  UNL1       -0.5048
     15 C           5.0618   -0.1916    0.2688 C.ar    1  UNL1        0.0270
     16 C           5.4436    1.1320    0.2363 C.ar    1  UNL1        0.1648
     17 O           6.7661    1.5250    0.0287 O.3     1  UNL1       -0.4913
     18 C           7.7211    0.4938   -0.1524 C.3     1  UNL1        0.0790
     19 C           4.5303    2.1657    0.4094 C.ar    1  UNL1        0.1605
     20 O           4.9061    3.5122    0.3785 O.3     1  UNL1       -0.5032
     21 C           3.2147    1.8492    0.6184 C.ar    1  UNL1        0.0083
     22 C          -3.3895   -2.6068   -0.6508 C.ar    1  UNL1        0.0865
     23 CL         -2.2735   -3.8238   -1.2335 Cl      1  UNL1       -0.0795
     24 C          -4.6208   -3.1127   -0.2880 C.ar    1  UNL1        0.1389
     25 O          -4.9913   -4.4507   -0.3588 O.3     1  UNL1       -0.5052
     26 C          -5.6145   -2.2815    0.1935 C.ar    1  UNL1        0.0236
     27 C          -5.3415   -0.9159    0.3038 C.ar    1  UNL1        0.1346
     28 O          -6.3304   -0.0607    0.7869 O.3     1  UNL1       -0.5058
     29 H          -4.3825    3.7417    0.7565 H       1  UNL1        0.0661
     30 H          -2.6128    3.7216    1.2867 H       1  UNL1        0.0661
     31 H          -3.0119    3.4546   -0.4197 H       1  UNL1        0.0661
     32 H          -1.8322    0.1489   -1.5008 H       1  UNL1        0.0318
     33 H          -1.2833   -1.5620   -1.6286 H       1  UNL1        0.0318
     34 H          -1.3089    0.1734    0.9498 H       1  UNL1        0.0362
     35 H          -0.8753   -1.5296    0.8856 H       1  UNL1        0.0362
     36 H           1.1270   -0.0618    1.8473 H       1  UNL1        0.1549
     37 H           2.6304   -2.1935    1.0701 H       1  UNL1        0.2922
     38 H           5.7959   -0.9758    0.1289 H       1  UNL1        0.0693
     39 H           8.7125    0.9068   -0.4254 H       1  UNL1        0.0660
     40 H           7.3776   -0.1880   -0.9411 H       1  UNL1        0.0660
     41 H           7.7614   -0.1073    0.8011 H       1  UNL1        0.0660
     42 H           5.2675    3.9734    1.2216 H       1  UNL1        0.2923
     43 H           2.4160    2.5503    0.7642 H       1  UNL1        0.0675
     44 H          -4.2580   -5.1370   -0.4831 H       1  UNL1        0.2922
     45 H          -6.6121   -2.6149    0.4981 H       1  UNL1        0.0691
     46 H          -7.3096   -0.2043    0.6293 H       1  UNL1        0.2922
@<TRIPOS>BOND
     1     1     2    1
     2     2     3    1
     3     3     4    2
     4     3     5    1
     5     5     6   ar
     6     6     7    1
     7     7     8    1
     8     8     9    1
     9     9    10    2
    10     9    11   am
    11    11    12    1
    12    12    13   ar
    13    13    14    1
    14    13    15   ar
    15    15    16   ar
    16    16    17    1
    17    17    18    1
    18    16    19   ar
    19    19    20    1
    20    19    21   ar
    21     6    22   ar
    22    22    23    1
    23    22    24   ar
    24    24    25    1
    25    24    26   ar
    26    26    27   ar
    27    27    28    1
    28    27     5   ar
    29    21    12   ar
    30     1    29    1
    31     1    30    1
    32     1    31    1
    33     7    32    1
    34     7    33    1
    35     8    34    1
    36     8    35    1
    37    11    36    1
    38    14    37    1
    39    15    38    1
    40    18    39    1
    41    18    40    1
    42    18    41    1
    43    20    42    1
    44    21    43    1
    45    25    44    1
    46    26    45    1
    47    28    46    1
