
     RDKit          3D

 46 47  0  0  0  0  0  0  0  0999 V2000
   -3.3842    3.2652    0.6011 C   0  0  0  0  0  0  0  0  0  0  0  0
   -3.4197    1.8997    0.9613 O   0  0  0  0  0  0  0  0  0  0  0  0
   -3.8684    0.9795    0.0611 C   0  0  0  0  0  0  0  0  0  0  0  0
   -4.1518    1.6978   -0.9386 O   0  0  0  0  0  0  0  0  0  0  0  0
   -4.0950   -0.4488   -0.0706 C   0  0  0  0  0  0  0  0  0  0  0  0
   -3.0982   -1.2683   -0.5513 C   0  0  0  0  0  0  0  0  0  0  0  0
   -1.7620   -0.8327   -0.9549 C   0  0  0  0  0  0  0  0  0  0  0  0
   -0.9106   -0.5965    0.2632 C   0  0  0  0  0  0  0  0  0  0  0  0
    0.4605   -0.1524   -0.0997 C   0  0  0  0  0  0  0  0  0  0  0  0
    0.1833   -0.1652   -1.3469 O   0  0  0  0  0  0  0  0  0  0  0  0
    1.4554    0.0976    0.8704 N   0  0  0  0  0  0  0  0  0  0  0  0
    2.7916    0.5225    0.6580 C   0  0  0  0  0  0  0  0  0  0  0  0
    3.7202   -0.4824    0.4827 C   0  0  0  0  0  0  0  0  0  0  0  0
    3.3953   -1.8468    0.5059 O   0  0  0  0  0  0  0  0  0  0  0  0
    5.0618   -0.1916    0.2688 C   0  0  0  0  0  0  0  0  0  0  0  0
    5.4436    1.1320    0.2363 C   0  0  0  0  0  0  0  0  0  0  0  0
    6.7661    1.5250    0.0287 O   0  0  0  0  0  0  0  0  0  0  0  0
    7.7211    0.4938   -0.1524 C   0  0  0  0  0  0  0  0  0  0  0  0
    4.5303    2.1657    0.4094 C   0  0  0  0  0  0  0  0  0  0  0  0
    4.9061    3.5122    0.3785 O   0  0  0  0  0  0  0  0  0  0  0  0
    3.2147    1.8492    0.6184 C   0  0  0  0  0  0  0  0  0  0  0  0
   -3.3895   -2.6068   -0.6508 C   0  0  0  0  0  0  0  0  0  0  0  0
   -2.2735   -3.8238   -1.2335 Cl  0  0  0  0  0  0  0  0  0  0  0  0
   -4.6208   -3.1127   -0.2880 C   0  0  0  0  0  0  0  0  0  0  0  0
   -4.9913   -4.4507   -0.3588 O   0  0  0  0  0  0  0  0  0  0  0  0
   -5.6145   -2.2815    0.1935 C   0  0  0  0  0  0  0  0  0  0  0  0
   -5.3415   -0.9159    0.3038 C   0  0  0  0  0  0  0  0  0  0  0  0
   -6.3304   -0.0607    0.7869 O   0  0  0  0  0  0  0  0  0  0  0  0
   -4.3825    3.7417    0.7565 H   0  0  0  0  0  0  0  0  0  0  0  0
   -2.6128    3.7216    1.2867 H   0  0  0  0  0  0  0  0  0  0  0  0
   -3.0119    3.4546   -0.4197 H   0  0  0  0  0  0  0  0  0  0  0  0
   -1.8322    0.1489   -1.5008 H   0  0  0  0  0  0  0  0  0  0  0  0
   -1.2833   -1.5620   -1.6286 H   0  0  0  0  0  0  0  0  0  0  0  0
   -1.3089    0.1734    0.9498 H   0  0  0  0  0  0  0  0  0  0  0  0
   -0.8753   -1.5296    0.8856 H   0  0  0  0  0  0  0  0  0  0  0  0
    1.1270   -0.0618    1.8473 H   0  0  0  0  0  0  0  0  0  0  0  0
    2.6304   -2.1935    1.0701 H   0  0  0  0  0  0  0  0  0  0  0  0
    5.7959   -0.9758    0.1289 H   0  0  0  0  0  0  0  0  0  0  0  0
    8.7125    0.9068   -0.4254 H   0  0  0  0  0  0  0  0  0  0  0  0
    7.3776   -0.1880   -0.9411 H   0  0  0  0  0  0  0  0  0  0  0  0
    7.7614   -0.1073    0.8011 H   0  0  0  0  0  0  0  0  0  0  0  0
    5.2675    3.9734    1.2216 H   0  0  0  0  0  0  0  0  0  0  0  0
    2.4160    2.5503    0.7642 H   0  0  0  0  0  0  0  0  0  0  0  0
   -4.2580   -5.1370   -0.4831 H   0  0  0  0  0  0  0  0  0  0  0  0
   -6.6121   -2.6149    0.4981 H   0  0  0  0  0  0  0  0  0  0  0  0
   -7.3096   -0.2043    0.6293 H   0  0  0  0  0  0  0  0  0  0  0  0
  1  2  1  0
  2  3  1  0
  3  4  2  0
  3  5  1  0
  5  6  2  0
  6  7  1  0
  7  8  1  0
  8  9  1  0
  9 10  2  0
  9 11  1  0
 11 12  1  0
 12 13  2  0
 13 14  1  0
 13 15  1  0
 15 16  2  0
 16 17  1  0
 17 18  1  0
 16 19  1  0
 19 20  1  0
 19 21  2  0
  6 22  1  0
 22 23  1  0
 22 24  2  0
 24 25  1  0
 24 26  1  0
 26 27  2  0
 27 28  1  0
 27  5  1  0
 21 12  1  0
  1 29  1  0
  1 30  1  0
  1 31  1  0
  7 32  1  0
  7 33  1  0
  8 34  1  0
  8 35  1  0
 11 36  1  0
 14 37  1  0
 15 38  1  0
 18 39  1  0
 18 40  1  0
 18 41  1  0
 20 42  1  0
 21 43  1  0
 25 44  1  0
 26 45  1  0
 28 46  1  0
M  END
$$$$
