@<TRIPOS>MOLECULE
*****
 40 42 0 0 0
SMALL
GASTEIGER

@<TRIPOS>ATOM
      1 C          -2.0939   -4.2262    1.2407 C.3     1  UNL1        0.0146
      2 N          -1.2136   -3.3206    0.5435 N.ar    1  UNL1       -0.3180
      3 C          -0.0670   -3.6248   -0.1217 C.ar    1  UNL1        0.0981
      4 N           0.3757   -2.4325   -0.5884 N.ar    1  UNL1       -0.2306
      5 C          -0.5487   -1.4656   -0.1664 C.ar    1  UNL1        0.1475
      6 C          -1.5358   -2.0380    0.5394 C.ar    1  UNL1        0.1670
      7 N          -2.3187   -1.0088    0.8771 N.ar    1  UNL1       -0.1948
      8 C          -1.9620    0.2284    0.4724 C.ar    1  UNL1        0.2189
      9 N          -3.0426    1.0430    1.0395 N.pl3   1  UNL1       -0.3112
     10 C          -4.2322    1.6226    0.4415 C.3     1  UNL1        0.0350
     11 C          -3.8608    2.8989   -0.2974 C.3     1  UNL1        0.0597
     12 O          -3.2970    3.8357    0.6002 O.3     1  UNL1       -0.3935
     13 N          -0.8593    0.5130   -0.2620 N.ar    1  UNL1       -0.1974
     14 C           0.1178   -0.3934   -0.7433 C.ar    1  UNL1        0.1519
     15 N           0.7530    0.6304   -1.2933 N.pl3   1  UNL1       -0.3231
     16 C           1.9948    0.2783   -1.9871 C.3     1  UNL1        0.0357
     17 C           3.0999    0.4545   -1.0138 C.ar    1  UNL1       -0.0304
     18 C           3.6637   -0.4942   -0.1499 C.ar    1  UNL1       -0.0571
     19 C           4.6786   -0.0067    0.6145 C.ar    1  UNL1       -0.0615
     20 C           5.2368    1.2307    0.6817 C.ar    1  UNL1       -0.0617
     21 C           4.6508    2.1515   -0.1951 C.ar    1  UNL1       -0.0615
     22 C           3.5915    1.7713   -1.0345 C.ar    1  UNL1       -0.0571
     23 H          -1.5649   -5.1728    1.4936 H       1  UNL1        0.0457
     24 H          -3.0313   -4.4152    0.6731 H       1  UNL1        0.0457
     25 H          -2.3812   -3.7783    2.2126 H       1  UNL1        0.0457
     26 H           0.3500   -4.6180   -0.2297 H       1  UNL1        0.1029
     27 H          -2.8725    1.2308    2.0551 H       1  UNL1        0.1490
     28 H          -4.7222    0.9219   -0.3016 H       1  UNL1        0.0484
     29 H          -4.9466    1.8170    1.2594 H       1  UNL1        0.0484
     30 H          -3.1071    2.6905   -1.0620 H       1  UNL1        0.0573
     31 H          -4.7783    3.2919   -0.7935 H       1  UNL1        0.0573
     32 H          -3.5590    3.6256    1.5138 H       1  UNL1        0.2095
     33 H           0.7236    1.6465   -1.4303 H       1  UNL1        0.1479
     34 H           1.9537   -0.7975   -2.3327 H       1  UNL1        0.0511
     35 H           2.1425    0.9249   -2.8351 H       1  UNL1        0.0511
     36 H           3.2238   -1.4716   -0.2041 H       1  UNL1        0.0621
     37 H           5.1270   -0.7467    1.2984 H       1  UNL1        0.0618
     38 H           6.0393    1.4778    1.3486 H       1  UNL1        0.0618
     39 H           5.0407    3.1681   -0.2205 H       1  UNL1        0.0618
     40 H           3.2314    2.5577   -1.6427 H       1  UNL1        0.0621
@<TRIPOS>BOND
     1     1     2    1
     2     2     3   ar
     3     3     4   ar
     4     4     5   ar
     5     5     6   ar
     6     6     7   ar
     7     7     8   ar
     8     8     9    1
     9     9    10    1
    10    10    11    1
    11    11    12    1
    12     8    13   ar
    13    13    14   ar
    14    14    15    1
    15    15    16    1
    16    16    17    1
    17    17    18   ar
    18    18    19   ar
    19    19    20   ar
    20    20    21   ar
    21    21    22   ar
    22     6     2   ar
    23    22    17   ar
    24    14     5   ar
    25     1    23    1
    26     1    24    1
    27     1    25    1
    28     3    26    1
    29     9    27    1
    30    10    28    1
    31    10    29    1
    32    11    30    1
    33    11    31    1
    34    12    32    1
    35    15    33    1
    36    16    34    1
    37    16    35    1
    38    18    36    1
    39    19    37    1
    40    20    38    1
    41    21    39    1
    42    22    40    1
