@<TRIPOS>MOLECULE
*****
 60 62 0 0 0
SMALL
GASTEIGER

@<TRIPOS>ATOM
      1 C          -5.8874   -0.8034    0.1676 C.3     1  UNL1       -0.0554
      2 C          -4.5113   -0.1755    0.5881 C.3     1  UNL1        0.0182
      3 C          -3.4876   -1.1394    0.1623 C.3     1  UNL1       -0.0183
      4 C          -2.0344   -0.8729    0.4792 C.3     1  UNL1        0.0821
      5 C          -1.3421   -2.1360   -0.1230 C.3     1  UNL1       -0.0396
      6 C          -1.5655    0.3440   -0.1477 C.3     1  UNL1        0.1053
      7 S           0.0398    0.9541    0.0327 S.O2    1  UNL1        0.0340
      8 O           0.0603    2.2797   -0.7848 O.2     1  UNL1       -0.1580
      9 O           0.2598    1.5250    1.4581 O.2     1  UNL1       -0.1580
     10 N           1.3670    0.0994   -0.4086 N.3     1  UNL1       -0.1781
     11 C           1.6795   -1.1127    0.2053 C.3     1  UNL1        0.0359
     12 C           3.1617   -1.2431    0.5664 C.3     1  UNL1        0.0266
     13 N           3.9665   -0.5360   -0.4199 N.pl3   1  UNL1       -0.3273
     14 C           5.2427   -0.0445   -0.1104 C.ar    1  UNL1        0.0299
     15 C           5.8127   -0.3909    1.1037 C.ar    1  UNL1       -0.0379
     16 C           7.0624    0.0818    1.4420 C.ar    1  UNL1       -0.0247
     17 C           7.7629    0.8994    0.5894 C.ar    1  UNL1        0.1235
     18 F           8.9935    1.3696    0.9132 F       1  UNL1       -0.2055
     19 C           7.2157    1.2562   -0.6215 C.ar    1  UNL1       -0.0247
     20 C           5.9685    0.7732   -0.9378 C.ar    1  UNL1       -0.0379
     21 C           3.3761   -0.3798   -1.7228 C.3     1  UNL1        0.0266
     22 C           2.0781    0.3914   -1.5884 C.3     1  UNL1        0.0359
     23 N          -1.8935   -1.0028    1.8887 N.am    1  UNL1       -0.1788
     24 O          -1.4868    0.0179    2.6586 O.3     1  UNL1       -0.2921
     25 C          -2.1959   -2.2439    2.5058 C.2     1  UNL1        0.2256
     26 O          -2.0912   -2.4257    3.7608 O.2     1  UNL1       -0.2772
     27 C          -4.5306    1.0958   -0.2257 C.ar    1  UNL1        0.1320
     28 N          -4.3994    1.0329   -1.5558 N.ar    1  UNL1       -0.2372
     29 C          -4.4289    2.1070   -2.3540 C.ar    1  UNL1        0.0663
     30 C          -4.6049    3.3276   -1.7446 C.ar    1  UNL1        0.1594
     31 F          -4.6413    4.4550   -2.5183 F       1  UNL1       -0.2023
     32 C          -4.7404    3.3943   -0.3724 C.ar    1  UNL1        0.0663
     33 N          -4.7021    2.2830    0.3691 N.ar    1  UNL1       -0.2372
     34 H          -5.9555   -0.7730   -0.9320 H       1  UNL1        0.0236
     35 H          -5.9452   -1.8423    0.5271 H       1  UNL1        0.0236
     36 H          -6.6963   -0.1851    0.5987 H       1  UNL1        0.0236
     37 H          -4.5349    0.0757    1.6459 H       1  UNL1        0.0377
     38 H          -3.5209   -1.2201   -0.9822 H       1  UNL1        0.0294
     39 H          -3.7428   -2.2026    0.4553 H       1  UNL1        0.0294
     40 H          -2.1050   -2.9068   -0.3927 H       1  UNL1        0.0252
     41 H          -0.7037   -2.6100    0.6297 H       1  UNL1        0.0252
     42 H          -0.8039   -1.8102   -1.0121 H       1  UNL1        0.0252
     43 H          -1.7727    0.2682   -1.2621 H       1  UNL1        0.0538
     44 H          -2.2435    1.1910    0.1866 H       1  UNL1        0.0538
     45 H           1.1427   -1.2605    1.1706 H       1  UNL1        0.0459
     46 H           1.4942   -1.9911   -0.4686 H       1  UNL1        0.0459
     47 H           3.3047   -0.7886    1.5524 H       1  UNL1        0.0477
     48 H           3.4106   -2.3189    0.6399 H       1  UNL1        0.0477
     49 H           5.3012   -1.0288    1.7988 H       1  UNL1        0.0637
     50 H           7.5321   -0.1703    2.3784 H       1  UNL1        0.0647
     51 H           7.7076    1.8932   -1.3389 H       1  UNL1        0.0647
     52 H           5.5432    1.0563   -1.8843 H       1  UNL1        0.0637
     53 H           4.0216   -0.0493   -2.5206 H       1  UNL1        0.0477
     54 H           3.0464   -1.4252   -2.0178 H       1  UNL1        0.0477
     55 H           1.4475    0.1288   -2.4674 H       1  UNL1        0.0459
     56 H           2.3418    1.4590   -1.7192 H       1  UNL1        0.0459
     57 H          -2.0376    0.0139    3.4886 H       1  UNL1        0.2417
     58 H          -2.5345   -3.1149    1.9515 H       1  UNL1        0.1274
     59 H          -4.3208    2.0425   -3.4376 H       1  UNL1        0.0860
     60 H          -4.8797    4.3884    0.0863 H       1  UNL1        0.0860
@<TRIPOS>BOND
     1     1     2    1
     2     2     3    1
     3     3     4    1
     4     4     5    1
     5     4     6    1
     6     6     7    1
     7     7     8    2
     8     7     9    2
     9     7    10    1
    10    10    11    1
    11    11    12    1
    12    12    13    1
    13    13    14    1
    14    14    15   ar
    15    15    16   ar
    16    16    17   ar
    17    17    18    1
    18    17    19   ar
    19    19    20   ar
    20    13    21    1
    21    21    22    1
    22     4    23    1
    23    23    24    1
    24    23    25   am
    25    25    26    2
    26     2    27    1
    27    27    28   ar
    28    28    29   ar
    29    29    30   ar
    30    30    31    1
    31    30    32   ar
    32    32    33   ar
    33    22    10    1
    34    33    27   ar
    35    20    14   ar
    36     1    34    1
    37     1    35    1
    38     1    36    1
    39     2    37    1
    40     3    38    1
    41     3    39    1
    42     5    40    1
    43     5    41    1
    44     5    42    1
    45     6    43    1
    46     6    44    1
    47    11    45    1
    48    11    46    1
    49    12    47    1
    50    12    48    1
    51    15    49    1
    52    16    50    1
    53    19    51    1
    54    20    52    1
    55    21    53    1
    56    21    54    1
    57    22    55    1
    58    22    56    1
    59    24    57    1
    60    25    58    1
    61    29    59    1
    62    32    60    1
