
     RDKit          3D

 60 62  0  0  0  0  0  0  0  0999 V2000
   -5.8874   -0.8034    0.1676 C   0  0  0  0  0  0  0  0  0  0  0  0
   -4.5113   -0.1755    0.5881 C   0  0  1  0  0  0  0  0  0  0  0  0
   -3.4876   -1.1394    0.1623 C   0  0  0  0  0  0  0  0  0  0  0  0
   -2.0344   -0.8729    0.4792 C   0  0  1  0  0  0  0  0  0  0  0  0
   -1.3421   -2.1360   -0.1230 C   0  0  0  0  0  0  0  0  0  0  0  0
   -1.5655    0.3440   -0.1477 C   0  0  0  0  0  0  0  0  0  0  0  0
    0.0398    0.9541    0.0327 S   0  0  0  0  0  6  0  0  0  0  0  0
    0.0603    2.2797   -0.7848 O   0  0  0  0  0  0  0  0  0  0  0  0
    0.2598    1.5250    1.4581 O   0  0  0  0  0  0  0  0  0  0  0  0
    1.3670    0.0994   -0.4086 N   0  0  0  0  0  0  0  0  0  0  0  0
    1.6795   -1.1127    0.2053 C   0  0  0  0  0  0  0  0  0  0  0  0
    3.1617   -1.2431    0.5664 C   0  0  0  0  0  0  0  0  0  0  0  0
    3.9665   -0.5360   -0.4199 N   0  0  0  0  0  0  0  0  0  0  0  0
    5.2427   -0.0445   -0.1104 C   0  0  0  0  0  0  0  0  0  0  0  0
    5.8127   -0.3909    1.1037 C   0  0  0  0  0  0  0  0  0  0  0  0
    7.0624    0.0818    1.4420 C   0  0  0  0  0  0  0  0  0  0  0  0
    7.7629    0.8994    0.5894 C   0  0  0  0  0  0  0  0  0  0  0  0
    8.9935    1.3696    0.9132 F   0  0  0  0  0  0  0  0  0  0  0  0
    7.2157    1.2562   -0.6215 C   0  0  0  0  0  0  0  0  0  0  0  0
    5.9685    0.7732   -0.9378 C   0  0  0  0  0  0  0  0  0  0  0  0
    3.3761   -0.3798   -1.7228 C   0  0  0  0  0  0  0  0  0  0  0  0
    2.0781    0.3914   -1.5884 C   0  0  0  0  0  0  0  0  0  0  0  0
   -1.8935   -1.0028    1.8887 N   0  0  0  0  0  0  0  0  0  0  0  0
   -1.4868    0.0179    2.6586 O   0  0  0  0  0  0  0  0  0  0  0  0
   -2.1959   -2.2439    2.5058 C   0  0  0  0  0  0  0  0  0  0  0  0
   -2.0912   -2.4257    3.7608 O   0  0  0  0  0  0  0  0  0  0  0  0
   -4.5306    1.0958   -0.2257 C   0  0  0  0  0  0  0  0  0  0  0  0
   -4.3994    1.0329   -1.5558 N   0  0  0  0  0  0  0  0  0  0  0  0
   -4.4289    2.1070   -2.3540 C   0  0  0  0  0  0  0  0  0  0  0  0
   -4.6049    3.3276   -1.7446 C   0  0  0  0  0  0  0  0  0  0  0  0
   -4.6413    4.4550   -2.5183 F   0  0  0  0  0  0  0  0  0  0  0  0
   -4.7404    3.3943   -0.3724 C   0  0  0  0  0  0  0  0  0  0  0  0
   -4.7021    2.2830    0.3691 N   0  0  0  0  0  0  0  0  0  0  0  0
   -5.9555   -0.7730   -0.9320 H   0  0  0  0  0  0  0  0  0  0  0  0
   -5.9452   -1.8423    0.5271 H   0  0  0  0  0  0  0  0  0  0  0  0
   -6.6963   -0.1851    0.5987 H   0  0  0  0  0  0  0  0  0  0  0  0
   -4.5349    0.0757    1.6459 H   0  0  0  0  0  0  0  0  0  0  0  0
   -3.5209   -1.2201   -0.9822 H   0  0  0  0  0  0  0  0  0  0  0  0
   -3.7428   -2.2026    0.4553 H   0  0  0  0  0  0  0  0  0  0  0  0
   -2.1050   -2.9068   -0.3927 H   0  0  0  0  0  0  0  0  0  0  0  0
   -0.7037   -2.6100    0.6297 H   0  0  0  0  0  0  0  0  0  0  0  0
   -0.8039   -1.8102   -1.0121 H   0  0  0  0  0  0  0  0  0  0  0  0
   -1.7727    0.2682   -1.2621 H   0  0  0  0  0  0  0  0  0  0  0  0
   -2.2435    1.1910    0.1866 H   0  0  0  0  0  0  0  0  0  0  0  0
    1.1427   -1.2605    1.1706 H   0  0  0  0  0  0  0  0  0  0  0  0
    1.4942   -1.9911   -0.4686 H   0  0  0  0  0  0  0  0  0  0  0  0
    3.3047   -0.7886    1.5524 H   0  0  0  0  0  0  0  0  0  0  0  0
    3.4106   -2.3189    0.6399 H   0  0  0  0  0  0  0  0  0  0  0  0
    5.3012   -1.0288    1.7988 H   0  0  0  0  0  0  0  0  0  0  0  0
    7.5321   -0.1703    2.3784 H   0  0  0  0  0  0  0  0  0  0  0  0
    7.7076    1.8932   -1.3389 H   0  0  0  0  0  0  0  0  0  0  0  0
    5.5432    1.0563   -1.8843 H   0  0  0  0  0  0  0  0  0  0  0  0
    4.0216   -0.0493   -2.5206 H   0  0  0  0  0  0  0  0  0  0  0  0
    3.0464   -1.4252   -2.0178 H   0  0  0  0  0  0  0  0  0  0  0  0
    1.4475    0.1288   -2.4674 H   0  0  0  0  0  0  0  0  0  0  0  0
    2.3418    1.4590   -1.7192 H   0  0  0  0  0  0  0  0  0  0  0  0
   -2.0376    0.0139    3.4886 H   0  0  0  0  0  0  0  0  0  0  0  0
   -2.5345   -3.1149    1.9515 H   0  0  0  0  0  0  0  0  0  0  0  0
   -4.3208    2.0425   -3.4376 H   0  0  0  0  0  0  0  0  0  0  0  0
   -4.8797    4.3884    0.0863 H   0  0  0  0  0  0  0  0  0  0  0  0
  1  2  1  0
  2  3  1  0
  3  4  1  0
  4  5  1  0
  4  6  1  0
  6  7  1  0
  7  8  2  0
  7  9  2  0
  7 10  1  0
 10 11  1  0
 11 12  1  0
 12 13  1  0
 13 14  1  0
 14 15  2  0
 15 16  1  0
 16 17  2  0
 17 18  1  0
 17 19  1  0
 19 20  2  0
 13 21  1  0
 21 22  1  0
  4 23  1  1
 23 24  1  0
 23 25  1  0
 25 26  2  0
  2 27  1  0
 27 28  2  0
 28 29  1  0
 29 30  2  0
 30 31  1  0
 30 32  1  0
 32 33  2  0
 22 10  1  0
 33 27  1  0
 20 14  1  0
  1 34  1  0
  1 35  1  0
  1 36  1  0
  2 37  1  1
  3 38  1  0
  3 39  1  0
  5 40  1  0
  5 41  1  0
  5 42  1  0
  6 43  1  0
  6 44  1  0
 11 45  1  0
 11 46  1  0
 12 47  1  0
 12 48  1  0
 15 49  1  0
 16 50  1  0
 19 51  1  0
 20 52  1  0
 21 53  1  0
 21 54  1  0
 22 55  1  0
 22 56  1  0
 24 57  1  0
 25 58  1  0
 29 59  1  0
 32 60  1  0
M  END
$$$$
