
     RDKit          3D

 45 48  0  0  0  0  0  0  0  0999 V2000
   -2.9541    0.7937   -2.3592 N   0  0  0  0  0  0  0  0  0  0  0  0
   -2.7849   -0.2743   -1.4259 C   0  0  0  0  0  0  0  0  0  0  0  0
   -3.1689   -0.2079   -0.2168 N   0  0  0  0  0  0  0  0  0  0  0  0
   -2.9679   -1.3251    0.6956 C   0  0  2  0  0  0  0  0  0  0  0  0
   -3.9225   -1.0608    1.8458 C   0  0  0  0  0  0  0  0  0  0  0  0
   -3.5482    0.1672    2.3994 F   0  0  0  0  0  0  0  0  0  0  0  0
   -1.5753   -1.2722    1.2307 C   0  0  0  0  0  0  0  0  0  0  0  0
   -0.7021   -0.2858    0.7969 C   0  0  0  0  0  0  0  0  0  0  0  0
    0.5786   -0.2368    1.2578 C   0  0  0  0  0  0  0  0  0  0  0  0
    1.4983    0.7882    0.8151 N   0  0  0  0  0  0  0  0  0  0  0  0
    2.3193    0.6526   -0.2889 C   0  0  0  0  0  0  0  0  0  0  0  0
    2.1735   -0.4877   -0.8957 O   0  0  0  0  0  0  0  0  0  0  0  0
    3.2923    1.5440   -0.8779 C   0  0  0  0  0  0  0  0  0  0  0  0
    3.6986    1.2360   -2.1541 N   0  0  0  0  0  0  0  0  0  0  0  0
    4.6065    1.9253   -2.8167 C   0  0  0  0  0  0  0  0  0  0  0  0
    5.2239    3.0117   -2.2851 C   0  0  0  0  0  0  0  0  0  0  0  0
    6.4386    3.9447   -3.1560 Cl  0  0  0  0  0  0  0  0  0  0  0  0
    4.8640    3.3726   -1.0141 C   0  0  0  0  0  0  0  0  0  0  0  0
    3.8931    2.6237   -0.3248 C   0  0  0  0  0  0  0  0  0  0  0  0
    3.5630    3.0976    1.0257 C   0  0  0  0  0  0  0  0  0  0  0  0
    2.4353    3.8748    1.0997 F   0  0  0  0  0  0  0  0  0  0  0  0
    1.0351   -1.1661    2.1650 C   0  0  0  0  0  0  0  0  0  0  0  0
    0.1771   -2.1471    2.6012 C   0  0  0  0  0  0  0  0  0  0  0  0
   -1.1483   -2.1984    2.1254 C   0  0  0  0  0  0  0  0  0  0  0  0
   -2.1603   -3.4927    2.7951 Cl  0  0  0  0  0  0  0  0  0  0  0  0
   -3.2598   -2.6338    0.0210 C   0  0  1  0  0  0  0  0  0  0  0  0
   -4.2328   -2.7627   -1.0986 C   0  0  0  0  0  0  0  0  0  0  0  0
   -2.7611   -2.7206   -1.3852 C   0  0  1  0  0  0  0  0  0  0  0  0
   -2.1712   -1.4908   -1.7975 O   0  0  0  0  0  0  0  0  0  0  0  0
   -2.1889    1.4690   -2.4680 H   0  0  0  0  0  0  0  0  0  0  0  0
   -3.8183    0.8819   -2.9048 H   0  0  0  0  0  0  0  0  0  0  0  0
   -3.9608   -1.8117    2.6153 H   0  0  0  0  0  0  0  0  0  0  0  0
   -4.9614   -0.8894    1.4692 H   0  0  0  0  0  0  0  0  0  0  0  0
   -1.0312    0.4399    0.1024 H   0  0  0  0  0  0  0  0  0  0  0  0
    1.5015    1.6431    1.3574 H   0  0  0  0  0  0  0  0  0  0  0  0
    4.9093    1.6548   -3.8379 H   0  0  0  0  0  0  0  0  0  0  0  0
    5.3328    4.2266   -0.5653 H   0  0  0  0  0  0  0  0  0  0  0  0
    4.4336    3.7533    1.3745 H   0  0  0  0  0  0  0  0  0  0  0  0
    3.6137    2.2497    1.7247 H   0  0  0  0  0  0  0  0  0  0  0  0
    2.0696   -1.1108    2.5246 H   0  0  0  0  0  0  0  0  0  0  0  0
    0.5073   -2.9006    3.3212 H   0  0  0  0  0  0  0  0  0  0  0  0
   -3.0344   -3.5760    0.5988 H   0  0  0  0  0  0  0  0  0  0  0  0
   -4.6975   -3.7531   -1.2256 H   0  0  0  0  0  0  0  0  0  0  0  0
   -4.8781   -1.9218   -1.4023 H   0  0  0  0  0  0  0  0  0  0  0  0
   -2.2372   -3.6243   -1.7515 H   0  0  0  0  0  0  0  0  0  0  0  0
  1  2  1  0
  2  3  2  0
  3  4  1  0
  4  5  1  1
  5  6  1  0
  4  7  1  0
  7  8  2  0
  8  9  1  0
  9 10  1  0
 10 11  1  0
 11 12  2  0
 11 13  1  0
 13 14  2  0
 14 15  1  0
 15 16  2  0
 16 17  1  0
 16 18  1  0
 18 19  2  0
 19 20  1  0
 20 21  1  0
  9 22  2  0
 22 23  1  0
 23 24  2  0
 24 25  1  0
  4 26  1  0
 26 27  1  0
 27 28  1  0
 28 29  1  0
 29  2  1  0
 24  7  1  0
 28 26  1  0
 19 13  1  0
  1 30  1  0
  1 31  1  0
  5 32  1  0
  5 33  1  0
  8 34  1  0
 10 35  1  0
 15 36  1  0
 18 37  1  0
 20 38  1  0
 20 39  1  0
 22 40  1  0
 23 41  1  0
 26 42  1  1
 27 43  1  0
 27 44  1  0
 28 45  1  1
M  END
$$$$
