@<TRIPOS>MOLECULE
*****
 45 48 0 0 0
SMALL
GASTEIGER

@<TRIPOS>ATOM
      1 N          -2.9541    0.7937   -2.3592 N.pl3   1  UNL1       -0.3134
      2 C          -2.7849   -0.2743   -1.4259 C.2     1  UNL1        0.2763
      3 N          -3.1689   -0.2079   -0.2168 N.2     1  UNL1       -0.2225
      4 C          -2.9679   -1.3251    0.6956 C.3     1  UNL1        0.1271
      5 C          -3.9225   -1.0608    1.8458 C.3     1  UNL1        0.1199
      6 F          -3.5482    0.1672    2.3994 F       1  UNL1       -0.2462
      7 C          -1.5753   -1.2722    1.2307 C.ar    1  UNL1        0.0030
      8 C          -0.7021   -0.2858    0.7969 C.ar    1  UNL1       -0.0335
      9 C           0.5786   -0.2368    1.2578 C.ar    1  UNL1        0.0341
     10 N           1.4983    0.7882    0.8151 N.am    1  UNL1       -0.2802
     11 C           2.3193    0.6526   -0.2889 C.2     1  UNL1        0.2669
     12 O           2.1735   -0.4877   -0.8957 O.2     1  UNL1       -0.2682
     13 C           3.2923    1.5440   -0.8779 C.ar    1  UNL1        0.1313
     14 N           3.6986    1.2360   -2.1541 N.ar    1  UNL1       -0.2485
     15 C           4.6065    1.9253   -2.8167 C.ar    1  UNL1        0.0467
     16 C           5.2239    3.0117   -2.2851 C.ar    1  UNL1        0.0594
     17 CL          6.4386    3.9447   -3.1560 Cl      1  UNL1       -0.0820
     18 C           4.8640    3.3726   -1.0141 C.ar    1  UNL1       -0.0341
     19 C           3.8931    2.6237   -0.3248 C.ar    1  UNL1        0.0149
     20 C           3.5630    3.0976    1.0257 C.3     1  UNL1        0.1174
     21 F           2.4353    3.8748    1.0997 F       1  UNL1       -0.2440
     22 C           1.0351   -1.1661    2.1650 C.ar    1  UNL1       -0.0391
     23 C           0.1771   -2.1471    2.6012 C.ar    1  UNL1       -0.0413
     24 C          -1.1483   -2.1984    2.1254 C.ar    1  UNL1        0.0466
     25 CL         -2.1603   -3.4927    2.7951 Cl      1  UNL1       -0.0832
     26 C          -3.2598   -2.6338    0.0210 C.3     1  UNL1        0.0314
     27 C          -4.2328   -2.7627   -1.0986 C.3     1  UNL1       -0.0065
     28 C          -2.7611   -2.7206   -1.3852 C.3     1  UNL1        0.1090
     29 O          -2.1712   -1.4908   -1.7975 O.2     1  UNL1       -0.4622
     30 H          -2.1889    1.4690   -2.4680 H       1  UNL1        0.1466
     31 H          -3.8183    0.8819   -2.9048 H       1  UNL1        0.1466
     32 H          -3.9608   -1.8117    2.6153 H       1  UNL1        0.0643
     33 H          -4.9614   -0.8894    1.4692 H       1  UNL1        0.0643
     34 H          -1.0312    0.4399    0.1024 H       1  UNL1        0.0640
     35 H           1.5015    1.6431    1.3574 H       1  UNL1        0.1552
     36 H           4.9093    1.6548   -3.8379 H       1  UNL1        0.0844
     37 H           5.3328    4.2266   -0.5653 H       1  UNL1        0.0637
     38 H           4.4336    3.7533    1.3745 H       1  UNL1        0.0666
     39 H           3.6137    2.2497    1.7247 H       1  UNL1        0.0666
     40 H           2.0696   -1.1108    2.5246 H       1  UNL1        0.0636
     41 H           0.5073   -2.9006    3.3212 H       1  UNL1        0.0633
     42 H          -3.0344   -3.5760    0.5988 H       1  UNL1        0.0365
     43 H          -4.6975   -3.7531   -1.2256 H       1  UNL1        0.0306
     44 H          -4.8781   -1.9218   -1.4023 H       1  UNL1        0.0306
     45 H          -2.2372   -3.6243   -1.7515 H       1  UNL1        0.0737
@<TRIPOS>BOND
     1     1     2    1
     2     2     3    2
     3     3     4    1
     4     4     5    1
     5     5     6    1
     6     4     7    1
     7     7     8   ar
     8     8     9   ar
     9     9    10    1
    10    10    11   am
    11    11    12    2
    12    11    13    1
    13    13    14   ar
    14    14    15   ar
    15    15    16   ar
    16    16    17    1
    17    16    18   ar
    18    18    19   ar
    19    19    20    1
    20    20    21    1
    21     9    22   ar
    22    22    23   ar
    23    23    24   ar
    24    24    25    1
    25     4    26    1
    26    26    27    1
    27    27    28    1
    28    28    29    1
    29    29     2    1
    30    24     7   ar
    31    28    26    1
    32    19    13   ar
    33     1    30    1
    34     1    31    1
    35     5    32    1
    36     5    33    1
    37     8    34    1
    38    10    35    1
    39    15    36    1
    40    18    37    1
    41    20    38    1
    42    20    39    1
    43    22    40    1
    44    23    41    1
    45    26    42    1
    46    27    43    1
    47    27    44    1
    48    28    45    1
