@<TRIPOS>MOLECULE
*****
 46 47 0 0 0
SMALL
GASTEIGER

@<TRIPOS>ATOM
      1 C          -5.6041    1.8641   -1.6824 C.3     1  UNL1       -0.0280
      2 C          -5.4541    0.8088   -0.6318 C.3     1  UNL1        0.0976
      3 C          -6.1476    1.1322    0.6592 C.3     1  UNL1       -0.0280
      4 O          -4.1200    0.4175   -0.4009 O.3     1  UNL1       -0.4592
      5 C          -3.6247   -0.8395   -0.6487 C.2     1  UNL1        0.3511
      6 O          -4.3857   -1.7047   -1.1070 O.2     1  UNL1       -0.2463
      7 C          -2.1909   -1.0785   -0.3463 C.3     1  UNL1        0.2005
      8 C          -2.1060   -2.2828    0.5507 C.3     1  UNL1       -0.0145
      9 C          -1.5295   -1.4416   -1.6817 C.3     1  UNL1       -0.0145
     10 O          -1.5419    0.0440    0.1583 O.3     1  UNL1       -0.4750
     11 C          -0.1779   -0.1179    0.4656 C.ar    1  UNL1        0.1221
     12 C           0.8032    0.1253   -0.4705 C.ar    1  UNL1       -0.0192
     13 C           2.1538   -0.0360   -0.1639 C.ar    1  UNL1       -0.0475
     14 C           2.5452   -0.4437    1.0887 C.ar    1  UNL1        0.0225
     15 C           3.9268   -0.6171    1.4927 C.2     1  UNL1        0.1931
     16 O           4.2576   -1.3953    2.4423 O.2     1  UNL1       -0.2867
     17 C           5.0082    0.0960    0.8260 C.ar    1  UNL1        0.0223
     18 C           6.2696   -0.5116    0.7535 C.ar    1  UNL1       -0.0495
     19 C           7.2901    0.1770    0.1413 C.ar    1  UNL1       -0.0427
     20 C           7.1255    1.4167   -0.3936 C.ar    1  UNL1        0.0410
     21 CL          8.4246    2.3028   -1.1777 Cl      1  UNL1       -0.0835
     22 C           5.8762    1.9848   -0.3056 C.ar    1  UNL1       -0.0427
     23 C           4.8080    1.3386    0.3006 C.ar    1  UNL1       -0.0495
     24 C           1.5615   -0.6902    2.0354 C.ar    1  UNL1       -0.0475
     25 C           0.2310   -0.5275    1.7195 C.ar    1  UNL1       -0.0192
     26 H          -5.3269    2.8714   -1.3744 H       1  UNL1        0.0265
     27 H          -4.9532    1.5804   -2.5346 H       1  UNL1        0.0265
     28 H          -6.6567    1.8408   -2.0345 H       1  UNL1        0.0265
     29 H          -5.9691   -0.1116   -1.0406 H       1  UNL1        0.0728
     30 H          -7.1392    1.5689    0.5170 H       1  UNL1        0.0265
     31 H          -5.5463    1.7857    1.3325 H       1  UNL1        0.0265
     32 H          -6.2790    0.1664    1.2287 H       1  UNL1        0.0265
     33 H          -2.8139   -3.0572    0.2018 H       1  UNL1        0.0273
     34 H          -2.4002   -2.0024    1.5763 H       1  UNL1        0.0273
     35 H          -1.0719   -2.6702    0.4865 H       1  UNL1        0.0273
     36 H          -2.1567   -2.2393   -2.1203 H       1  UNL1        0.0273
     37 H          -0.4927   -1.7485   -1.4852 H       1  UNL1        0.0273
     38 H          -1.5801   -0.5554   -2.3545 H       1  UNL1        0.0273
     39 H           0.5015    0.4488   -1.4641 H       1  UNL1        0.0654
     40 H           2.8784    0.1570   -0.9452 H       1  UNL1        0.0626
     41 H           6.4509   -1.4981    1.1650 H       1  UNL1        0.0625
     42 H           8.2942   -0.2611    0.0620 H       1  UNL1        0.0632
     43 H           5.6929    2.9637   -0.7122 H       1  UNL1        0.0632
     44 H           3.8340    1.8146    0.3696 H       1  UNL1        0.0625
     45 H           1.8626   -1.0162    3.0371 H       1  UNL1        0.0626
     46 H          -0.5276   -0.7221    2.4653 H       1  UNL1        0.0654
@<TRIPOS>BOND
     1     1     2    1
     2     2     3    1
     3     2     4    1
     4     4     5    1
     5     5     6    2
     6     5     7    1
     7     7     8    1
     8     7     9    1
     9     7    10    1
    10    10    11    1
    11    11    12   ar
    12    12    13   ar
    13    13    14   ar
    14    14    15    1
    15    15    16    2
    16    15    17    1
    17    17    18   ar
    18    18    19   ar
    19    19    20   ar
    20    20    21    1
    21    20    22   ar
    22    22    23   ar
    23    14    24   ar
    24    24    25   ar
    25    25    11   ar
    26    23    17   ar
    27     1    26    1
    28     1    27    1
    29     1    28    1
    30     2    29    1
    31     3    30    1
    32     3    31    1
    33     3    32    1
    34     8    33    1
    35     8    34    1
    36     8    35    1
    37     9    36    1
    38     9    37    1
    39     9    38    1
    40    12    39    1
    41    13    40    1
    42    18    41    1
    43    19    42    1
    44    22    43    1
    45    23    44    1
    46    24    45    1
    47    25    46    1
