
     RDKit          3D

 99102  0  0  0  0  0  0  0  0999 V2000
   -8.4438    1.0453    1.0853 C   0  0  0  0  0  0  0  0  0  0  0  0
   -6.9455    1.1847    1.0530 C   0  0  0  0  0  0  0  0  0  0  0  0
   -6.2855    0.4772   -0.0902 C   0  0  1  0  0  0  0  0  0  0  0  0
   -6.6656   -0.9765    0.1013 C   0  0  0  0  0  0  0  0  0  0  0  0
   -5.8924   -1.8346    0.8458 C   0  0  0  0  0  0  0  0  0  0  0  0
   -6.2473   -3.1726    1.0260 C   0  0  0  0  0  0  0  0  0  0  0  0
   -7.4004   -3.6611    0.4485 C   0  0  0  0  0  0  0  0  0  0  0  0
   -8.1804   -2.7802   -0.3074 C   0  0  0  0  0  0  0  0  0  0  0  0
   -9.3478   -3.2637   -0.8956 O   0  0  0  0  0  0  0  0  0  0  0  0
   -7.8146   -1.4641   -0.4740 C   0  0  0  0  0  0  0  0  0  0  0  0
   -6.7225    0.8358   -1.4392 C   0  0  0  0  0  0  0  0  0  0  0  0
   -6.0716    1.9152   -2.1879 C   0  0  0  0  0  0  0  0  0  0  0  0
   -5.6583    3.1335   -1.4070 C   0  0  0  0  0  0  0  0  0  0  0  0
   -4.4800    2.8679   -0.5089 C   0  0  0  0  0  0  0  0  0  0  0  0
   -4.0603    1.5474   -0.4249 N   0  0  0  0  0  0  0  0  0  0  0  0
   -2.7102    1.2607   -0.6525 C   0  0  0  0  0  0  0  0  0  0  0  0
   -1.7128    1.7791    0.3708 C   0  0  0  0  0  0  0  0  0  0  0  0
   -1.9443    1.2330    1.7354 C   0  0  0  0  0  0  0  0  0  0  0  0
   -1.8090   -0.1951    1.9723 C   0  0  0  0  0  0  0  0  0  0  0  0
   -0.5682   -0.9450    2.1018 C   0  0  0  0  0  0  0  0  0  0  0  0
    0.5698   -0.8542    1.1764 C   0  0  0  0  0  0  0  0  0  0  0  0
    1.4434    0.3420    1.2680 C   0  0  0  0  0  0  0  0  0  0  0  0
    2.5480    0.3601    0.2367 C   0  0  0  0  0  0  0  0  0  0  0  0
    3.4592   -0.8299    0.3518 C   0  0  0  0  0  0  0  0  0  0  0  0
    4.4796   -0.6893   -0.6830 N   0  0  0  0  0  0  0  0  0  0  0  0
    3.9210   -0.8337   -1.9825 C   0  0  0  0  0  0  0  0  0  0  0  0
    4.6645   -1.6951   -2.9409 C   0  0  0  0  0  0  0  0  0  0  0  0
    6.0863   -1.3229   -3.1680 C   0  0  0  0  0  0  0  0  0  0  0  0
    6.6376   -0.2929   -2.2146 C   0  0  0  0  0  0  0  0  0  0  0  0
    6.8710   -0.8724   -0.8274 C   0  0  1  0  0  0  0  0  0  0  0  0
    8.0730   -1.7629   -0.9035 C   0  0  0  0  0  0  0  0  0  0  0  0
    8.4679   -2.4391    0.3579 C   0  0  0  0  0  0  0  0  0  0  0  0
    7.1206    0.3001    0.0567 C   0  0  0  0  0  0  0  0  0  0  0  0
    7.2100    0.1800    1.4218 C   0  0  0  0  0  0  0  0  0  0  0  0
    7.4569    1.2646    2.2696 C   0  0  0  0  0  0  0  0  0  0  0  0
    7.6171    2.5088    1.7113 C   0  0  0  0  0  0  0  0  0  0  0  0
    7.5373    2.6835    0.3564 C   0  0  0  0  0  0  0  0  0  0  0  0
    7.7056    3.9644   -0.1736 O   0  0  0  0  0  0  0  0  0  0  0  0
    7.2945    1.5971   -0.4405 C   0  0  0  0  0  0  0  0  0  0  0  0
    5.6100   -1.5527   -0.4183 C   0  0  0  0  0  0  0  0  0  0  0  0
   -4.7871    0.5207    0.1492 C   0  0  0  0  0  0  0  0  0  0  0  0
   -8.9724    1.4926    0.2460 H   0  0  0  0  0  0  0  0  0  0  0  0
   -8.7723    1.6279    1.9991 H   0  0  0  0  0  0  0  0  0  0  0  0
   -8.7433   -0.0034    1.3172 H   0  0  0  0  0  0  0  0  0  0  0  0
   -6.6148    2.2383    1.0929 H   0  0  0  0  0  0  0  0  0  0  0  0
   -6.5721    0.7281    1.9968 H   0  0  0  0  0  0  0  0  0  0  0  0
   -4.9766   -1.5463    1.3364 H   0  0  0  0  0  0  0  0  0  0  0  0
   -5.6501   -3.8573    1.6081 H   0  0  0  0  0  0  0  0  0  0  0  0
   -7.7149   -4.6990    0.5633 H   0  0  0  0  0  0  0  0  0  0  0  0
  -10.1813   -3.2419   -0.2885 H   0  0  0  0  0  0  0  0  0  0  0  0
   -8.4798   -0.8586   -1.0742 H   0  0  0  0  0  0  0  0  0  0  0  0
   -7.8356    1.0402   -1.3828 H   0  0  0  0  0  0  0  0  0  0  0  0
   -6.6681   -0.0803   -2.0788 H   0  0  0  0  0  0  0  0  0  0  0  0
   -6.7859    2.2900   -2.9734 H   0  0  0  0  0  0  0  0  0  0  0  0
   -5.1757    1.5884   -2.7602 H   0  0  0  0  0  0  0  0  0  0  0  0
   -6.5224    3.6038   -0.8607 H   0  0  0  0  0  0  0  0  0  0  0  0
   -5.4115    3.8966   -2.1813 H   0  0  0  0  0  0  0  0  0  0  0  0
   -3.6073    3.4510   -0.9485 H   0  0  0  0  0  0  0  0  0  0  0  0
   -4.6074    3.3693    0.4964 H   0  0  0  0  0  0  0  0  0  0  0  0
   -2.3996    1.6886   -1.6379 H   0  0  0  0  0  0  0  0  0  0  0  0
   -2.5304    0.1741   -0.7341 H   0  0  0  0  0  0  0  0  0  0  0  0
   -1.7211    2.8847    0.4395 H   0  0  0  0  0  0  0  0  0  0  0  0
   -0.7478    1.4781   -0.0251 H   0  0  0  0  0  0  0  0  0  0  0  0
   -2.8753    1.6848    2.2126 H   0  0  0  0  0  0  0  0  0  0  0  0
   -1.1415    1.7488    2.3797 H   0  0  0  0  0  0  0  0  0  0  0  0
   -2.5025   -0.4939    2.8639 H   0  0  0  0  0  0  0  0  0  0  0  0
   -2.3855   -0.7550    1.1122 H   0  0  0  0  0  0  0  0  0  0  0  0
   -0.1508   -0.6968    3.1729 H   0  0  0  0  0  0  0  0  0  0  0  0
   -0.8751   -2.0569    2.2361 H   0  0  0  0  0  0  0  0  0  0  0  0
    1.1459   -1.8150    1.2521 H   0  0  0  0  0  0  0  0  0  0  0  0
    0.1409   -0.9288    0.1171 H   0  0  0  0  0  0  0  0  0  0  0  0
    1.9983    0.2271    2.2822 H   0  0  0  0  0  0  0  0  0  0  0  0
    0.9237    1.2748    1.2564 H   0  0  0  0  0  0  0  0  0  0  0  0
    3.1523    1.2646    0.4225 H   0  0  0  0  0  0  0  0  0  0  0  0
    2.0965    0.4612   -0.7650 H   0  0  0  0  0  0  0  0  0  0  0  0
    2.9313   -1.7929    0.2768 H   0  0  0  0  0  0  0  0  0  0  0  0
    3.9878   -0.8229    1.3243 H   0  0  0  0  0  0  0  0  0  0  0  0
    2.8633   -1.2217   -1.9605 H   0  0  0  0  0  0  0  0  0  0  0  0
    3.8500    0.1942   -2.4411 H   0  0  0  0  0  0  0  0  0  0  0  0
    4.5522   -2.7903   -2.7172 H   0  0  0  0  0  0  0  0  0  0  0  0
    4.1204   -1.5936   -3.9303 H   0  0  0  0  0  0  0  0  0  0  0  0
    6.1839   -0.8761   -4.1795 H   0  0  0  0  0  0  0  0  0  0  0  0
    6.7010   -2.2486   -3.2072 H   0  0  0  0  0  0  0  0  0  0  0  0
    7.5686    0.0999   -2.6263 H   0  0  0  0  0  0  0  0  0  0  0  0
    5.8312    0.4618   -2.0917 H   0  0  0  0  0  0  0  0  0  0  0  0
    8.0324   -2.5055   -1.6999 H   0  0  0  0  0  0  0  0  0  0  0  0
    8.9340   -1.0825   -1.1819 H   0  0  0  0  0  0  0  0  0  0  0  0
    9.0757   -1.8144    1.0431 H   0  0  0  0  0  0  0  0  0  0  0  0
    9.1443   -3.3224    0.1304 H   0  0  0  0  0  0  0  0  0  0  0  0
    7.6380   -2.9028    0.9294 H   0  0  0  0  0  0  0  0  0  0  0  0
    7.0765   -0.8025    1.8598 H   0  0  0  0  0  0  0  0  0  0  0  0
    7.5137    1.0944    3.3335 H   0  0  0  0  0  0  0  0  0  0  0  0
    7.8089    3.3493    2.3807 H   0  0  0  0  0  0  0  0  0  0  0  0
    7.0212    4.3661   -0.8066 H   0  0  0  0  0  0  0  0  0  0  0  0
    7.2416    1.7670   -1.4965 H   0  0  0  0  0  0  0  0  0  0  0  0
    5.6174   -1.7614    0.6790 H   0  0  0  0  0  0  0  0  0  0  0  0
    5.4257   -2.5106   -0.9099 H   0  0  0  0  0  0  0  0  0  0  0  0
   -4.3243   -0.4489   -0.2314 H   0  0  0  0  0  0  0  0  0  0  0  0
   -4.6566    0.4213    1.2735 H   0  0  0  0  0  0  0  0  0  0  0  0
  1  2  1  0
  3  2  1  1
  3  4  1  0
  4  5  2  0
  5  6  1  0
  6  7  2  0
  7  8  1  0
  8  9  1  0
  8 10  2  0
  3 11  1  0
 11 12  1  0
 12 13  1  0
 13 14  1  0
 14 15  1  0
 15 16  1  0
 16 17  1  0
 17 18  1  0
 18 19  1  0
 19 20  1  0
 20 21  1  0
 21 22  1  0
 22 23  1  0
 23 24  1  0
 24 25  1  0
 25 26  1  0
 26 27  1  0
 27 28  1  0
 28 29  1  0
 29 30  1  0
 30 31  1  6
 31 32  1  0
 30 33  1  0
 33 34  2  0
 34 35  1  0
 35 36  2  0
 36 37  1  0
 37 38  1  0
 37 39  2  0
 30 40  1  0
 15 41  1  0
 41  3  1  0
 10  4  1  0
 40 25  1  0
 39 33  1  0
  1 42  1  0
  1 43  1  0
  1 44  1  0
  2 45  1  0
  2 46  1  0
  5 47  1  0
  6 48  1  0
  7 49  1  0
  9 50  1  0
 10 51  1  0
 11 52  1  0
 11 53  1  0
 12 54  1  0
 12 55  1  0
 13 56  1  0
 13 57  1  0
 14 58  1  0
 14 59  1  0
 16 60  1  0
 16 61  1  0
 17 62  1  0
 17 63  1  0
 18 64  1  0
 18 65  1  0
 19 66  1  0
 19 67  1  0
 20 68  1  0
 20 69  1  0
 21 70  1  0
 21 71  1  0
 22 72  1  0
 22 73  1  0
 23 74  1  0
 23 75  1  0
 24 76  1  0
 24 77  1  0
 26 78  1  0
 26 79  1  0
 27 80  1  0
 27 81  1  0
 28 82  1  0
 28 83  1  0
 29 84  1  0
 29 85  1  0
 31 86  1  0
 31 87  1  0
 32 88  1  0
 32 89  1  0
 32 90  1  0
 34 91  1  0
 35 92  1  0
 36 93  1  0
 38 94  1  0
 39 95  1  0
 40 96  1  0
 40 97  1  0
 41 98  1  0
 41 99  1  0
M  END
$$$$
