@<TRIPOS>MOLECULE
*****
 99 102 0 0 0
SMALL
GASTEIGER

@<TRIPOS>ATOM
      1 C          -8.4438    1.0453    1.0853 C.3     1  UNL1       -0.0644
      2 C          -6.9455    1.1847    1.0530 C.3     1  UNL1       -0.0450
      3 C          -6.2855    0.4772   -0.0902 C.3     1  UNL1        0.0083
      4 C          -6.6656   -0.9765    0.1013 C.ar    1  UNL1       -0.0365
      5 C          -5.8924   -1.8346    0.8458 C.ar    1  UNL1       -0.0578
      6 C          -6.2473   -3.1726    1.0260 C.ar    1  UNL1       -0.0580
      7 C          -7.4004   -3.6611    0.4485 C.ar    1  UNL1       -0.0202
      8 C          -8.1804   -2.7802   -0.3074 C.ar    1  UNL1        0.1171
      9 O          -9.3478   -3.2637   -0.8956 O.3     1  UNL1       -0.5068
     10 C          -7.8146   -1.4641   -0.4740 C.ar    1  UNL1       -0.0164
     11 C          -6.7225    0.8358   -1.4392 C.3     1  UNL1       -0.0422
     12 C          -6.0716    1.9152   -2.1879 C.3     1  UNL1       -0.0511
     13 C          -5.6583    3.1335   -1.4070 C.3     1  UNL1       -0.0402
     14 C          -4.4800    2.8679   -0.5089 C.3     1  UNL1       -0.0011
     15 N          -4.0603    1.5474   -0.4249 N.3     1  UNL1       -0.3015
     16 C          -2.7102    1.2607   -0.6525 C.3     1  UNL1       -0.0011
     17 C          -1.7128    1.7791    0.3708 C.3     1  UNL1       -0.0402
     18 C          -1.9443    1.2330    1.7354 C.3     1  UNL1       -0.0519
     19 C          -1.8090   -0.1951    1.9723 C.3     1  UNL1       -0.0530
     20 C          -0.5682   -0.9450    2.1018 C.3     1  UNL1       -0.0531
     21 C           0.5698   -0.8542    1.1764 C.3     1  UNL1       -0.0530
     22 C           1.4434    0.3420    1.2680 C.3     1  UNL1       -0.0519
     23 C           2.5480    0.3601    0.2367 C.3     1  UNL1       -0.0402
     24 C           3.4592   -0.8299    0.3518 C.3     1  UNL1       -0.0011
     25 N           4.4796   -0.6893   -0.6830 N.3     1  UNL1       -0.3015
     26 C           3.9210   -0.8337   -1.9825 C.3     1  UNL1       -0.0011
     27 C           4.6645   -1.6951   -2.9409 C.3     1  UNL1       -0.0402
     28 C           6.0863   -1.3229   -3.1680 C.3     1  UNL1       -0.0511
     29 C           6.6376   -0.2929   -2.2146 C.3     1  UNL1       -0.0422
     30 C           6.8710   -0.8724   -0.8274 C.3     1  UNL1        0.0083
     31 C           8.0730   -1.7629   -0.9035 C.3     1  UNL1       -0.0450
     32 C           8.4679   -2.4391    0.3579 C.3     1  UNL1       -0.0644
     33 C           7.1206    0.3001    0.0567 C.ar    1  UNL1       -0.0365
     34 C           7.2100    0.1800    1.4218 C.ar    1  UNL1       -0.0578
     35 C           7.4569    1.2646    2.2696 C.ar    1  UNL1       -0.0580
     36 C           7.6171    2.5088    1.7113 C.ar    1  UNL1       -0.0202
     37 C           7.5373    2.6835    0.3564 C.ar    1  UNL1        0.1171
     38 O           7.7056    3.9644   -0.1736 O.3     1  UNL1       -0.5068
     39 C           7.2945    1.5971   -0.4405 C.ar    1  UNL1       -0.0164
     40 C           5.6100   -1.5527   -0.4183 C.3     1  UNL1        0.0085
     41 C          -4.7871    0.5207    0.1492 C.3     1  UNL1        0.0085
     42 H          -8.9724    1.4926    0.2460 H       1  UNL1        0.0230
     43 H          -8.7723    1.6279    1.9991 H       1  UNL1        0.0230
     44 H          -8.7433   -0.0034    1.3172 H       1  UNL1        0.0230
     45 H          -6.6148    2.2383    1.0929 H       1  UNL1        0.0272
     46 H          -6.5721    0.7281    1.9968 H       1  UNL1        0.0272
     47 H          -4.9766   -1.5463    1.3364 H       1  UNL1        0.0620
     48 H          -5.6501   -3.8573    1.6081 H       1  UNL1        0.0619
     49 H          -7.7149   -4.6990    0.5633 H       1  UNL1        0.0654
     50 H         -10.1813   -3.2419   -0.2885 H       1  UNL1        0.2921
     51 H          -8.4798   -0.8586   -1.0742 H       1  UNL1        0.0657
     52 H          -7.8356    1.0402   -1.3828 H       1  UNL1        0.0274
     53 H          -6.6681   -0.0803   -2.0788 H       1  UNL1        0.0274
     54 H          -6.7859    2.2900   -2.9734 H       1  UNL1        0.0266
     55 H          -5.1757    1.5884   -2.7602 H       1  UNL1        0.0266
     56 H          -6.5224    3.6038   -0.8607 H       1  UNL1        0.0278
     57 H          -5.4115    3.8966   -2.1813 H       1  UNL1        0.0278
     58 H          -3.6073    3.4510   -0.9485 H       1  UNL1        0.0426
     59 H          -4.6074    3.3693    0.4964 H       1  UNL1        0.0426
     60 H          -2.3996    1.6886   -1.6379 H       1  UNL1        0.0426
     61 H          -2.5304    0.1741   -0.7341 H       1  UNL1        0.0426
     62 H          -1.7211    2.8847    0.4395 H       1  UNL1        0.0278
     63 H          -0.7478    1.4781   -0.0251 H       1  UNL1        0.0278
     64 H          -2.8753    1.6848    2.2126 H       1  UNL1        0.0266
     65 H          -1.1415    1.7488    2.3797 H       1  UNL1        0.0266
     66 H          -2.5025   -0.4939    2.8639 H       1  UNL1        0.0265
     67 H          -2.3855   -0.7550    1.1122 H       1  UNL1        0.0265
     68 H          -0.1508   -0.6968    3.1729 H       1  UNL1        0.0265
     69 H          -0.8751   -2.0569    2.2361 H       1  UNL1        0.0265
     70 H           1.1459   -1.8150    1.2521 H       1  UNL1        0.0265
     71 H           0.1409   -0.9288    0.1171 H       1  UNL1        0.0265
     72 H           1.9983    0.2271    2.2822 H       1  UNL1        0.0266
     73 H           0.9237    1.2748    1.2564 H       1  UNL1        0.0266
     74 H           3.1523    1.2646    0.4225 H       1  UNL1        0.0278
     75 H           2.0965    0.4612   -0.7650 H       1  UNL1        0.0278
     76 H           2.9313   -1.7929    0.2768 H       1  UNL1        0.0426
     77 H           3.9878   -0.8229    1.3243 H       1  UNL1        0.0426
     78 H           2.8633   -1.2217   -1.9605 H       1  UNL1        0.0426
     79 H           3.8500    0.1942   -2.4411 H       1  UNL1        0.0426
     80 H           4.5522   -2.7903   -2.7172 H       1  UNL1        0.0278
     81 H           4.1204   -1.5936   -3.9303 H       1  UNL1        0.0278
     82 H           6.1839   -0.8761   -4.1795 H       1  UNL1        0.0266
     83 H           6.7010   -2.2486   -3.2072 H       1  UNL1        0.0266
     84 H           7.5686    0.0999   -2.6263 H       1  UNL1        0.0274
     85 H           5.8312    0.4618   -2.0917 H       1  UNL1        0.0274
     86 H           8.0324   -2.5055   -1.6999 H       1  UNL1        0.0272
     87 H           8.9340   -1.0825   -1.1819 H       1  UNL1        0.0272
     88 H           9.0757   -1.8144    1.0431 H       1  UNL1        0.0230
     89 H           9.1443   -3.3224    0.1304 H       1  UNL1        0.0230
     90 H           7.6380   -2.9028    0.9294 H       1  UNL1        0.0230
     91 H           7.0765   -0.8025    1.8598 H       1  UNL1        0.0620
     92 H           7.5137    1.0944    3.3335 H       1  UNL1        0.0619
     93 H           7.8089    3.3493    2.3807 H       1  UNL1        0.0654
     94 H           7.0212    4.3661   -0.8066 H       1  UNL1        0.2921
     95 H           7.2416    1.7670   -1.4965 H       1  UNL1        0.0657
     96 H           5.6174   -1.7614    0.6790 H       1  UNL1        0.0435
     97 H           5.4257   -2.5106   -0.9099 H       1  UNL1        0.0435
     98 H          -4.3243   -0.4489   -0.2314 H       1  UNL1        0.0435
     99 H          -4.6566    0.4213    1.2735 H       1  UNL1        0.0435
@<TRIPOS>BOND
     1     1     2    1
     2     3     2    1
     3     3     4    1
     4     4     5   ar
     5     5     6   ar
     6     6     7   ar
     7     7     8   ar
     8     8     9    1
     9     8    10   ar
    10     3    11    1
    11    11    12    1
    12    12    13    1
    13    13    14    1
    14    14    15    1
    15    15    16    1
    16    16    17    1
    17    17    18    1
    18    18    19    1
    19    19    20    1
    20    20    21    1
    21    21    22    1
    22    22    23    1
    23    23    24    1
    24    24    25    1
    25    25    26    1
    26    26    27    1
    27    27    28    1
    28    28    29    1
    29    29    30    1
    30    30    31    1
    31    31    32    1
    32    30    33    1
    33    33    34   ar
    34    34    35   ar
    35    35    36   ar
    36    36    37   ar
    37    37    38    1
    38    37    39   ar
    39    30    40    1
    40    15    41    1
    41    41     3    1
    42    10     4   ar
    43    40    25    1
    44    39    33   ar
    45     1    42    1
    46     1    43    1
    47     1    44    1
    48     2    45    1
    49     2    46    1
    50     5    47    1
    51     6    48    1
    52     7    49    1
    53     9    50    1
    54    10    51    1
    55    11    52    1
    56    11    53    1
    57    12    54    1
    58    12    55    1
    59    13    56    1
    60    13    57    1
    61    14    58    1
    62    14    59    1
    63    16    60    1
    64    16    61    1
    65    17    62    1
    66    17    63    1
    67    18    64    1
    68    18    65    1
    69    19    66    1
    70    19    67    1
    71    20    68    1
    72    20    69    1
    73    21    70    1
    74    21    71    1
    75    22    72    1
    76    22    73    1
    77    23    74    1
    78    23    75    1
    79    24    76    1
    80    24    77    1
    81    26    78    1
    82    26    79    1
    83    27    80    1
    84    27    81    1
    85    28    82    1
    86    28    83    1
    87    29    84    1
    88    29    85    1
    89    31    86    1
    90    31    87    1
    91    32    88    1
    92    32    89    1
    93    32    90    1
    94    34    91    1
    95    35    92    1
    96    36    93    1
    97    38    94    1
    98    39    95    1
    99    40    96    1
   100    40    97    1
   101    41    98    1
   102    41    99    1
