@<TRIPOS>MOLECULE
*****
 115 124 0 0 0
SMALL
GASTEIGER

@<TRIPOS>ATOM
      1 C           3.7757    0.2974    0.9718 C.3     1  UNL1        0.0829
      2 N           3.1146   -0.7034    1.8229 N.pl3   1  UNL1       -0.3243
      3 C           3.3774   -1.7147    2.8684 C.3     1  UNL1        0.0012
      4 C           1.7314   -0.5647    1.4158 C.ar    1  UNL1        0.0372
      5 C           0.5190   -0.7777    2.0427 C.ar    1  UNL1        0.0017
      6 C          -0.6980   -0.5604    1.4162 C.ar    1  UNL1        0.1265
      7 O          -1.8486   -0.8122    2.1305 O.3     1  UNL1       -0.4947
      8 C          -1.7607   -1.2694    3.4567 C.3     1  UNL1        0.0788
      9 C          -0.7425   -0.1013    0.0852 C.ar    1  UNL1        0.0172
     10 C           0.4927    0.0954   -0.4990 C.ar    1  UNL1       -0.0481
     11 C           1.6969   -0.1181    0.1140 C.ar    1  UNL1       -0.0162
     12 C           3.1278    0.0381   -0.3461 C.3     1  UNL1        0.0376
     13 C           3.1871    1.1204   -1.3533 C.3     1  UNL1       -0.0271
     14 C           3.1913    0.3654   -2.6495 C.3     1  UNL1        0.0005
     15 N           3.2307   -1.0457   -2.3603 N.3     1  UNL1       -0.2940
     16 C           4.0946   -1.6546   -3.3318 C.3     1  UNL1        0.0174
     17 C           5.5234   -1.3554   -3.1158 C.2     1  UNL1       -0.0734
     18 C           5.8717   -1.4063   -1.8136 C.2     1  UNL1       -0.0789
     19 C           4.9216   -1.7316   -0.6858 C.3     1  UNL1        0.0091
     20 C           4.9338   -3.2681   -0.6229 C.3     1  UNL1       -0.0452
     21 C           6.2949   -3.8006   -0.3482 C.3     1  UNL1       -0.0644
     22 C           5.5396   -1.3090    0.5914 C.3     1  UNL1        0.0084
     23 C           5.2478    0.1203    0.9219 C.3     1  UNL1        0.2104
     24 O           5.8287    0.8708   -0.1292 O.3     1  UNL1       -0.4319
     25 C           6.3239    2.0819    0.3332 C.2     1  UNL1        0.4104
     26 O           6.5888    3.0273   -0.4798 O.2     1  UNL1       -0.2258
     27 N           6.4372    1.9862    1.7679 N.am    1  UNL1       -0.2030
     28 C           6.9192    3.0907    2.5362 C.3     1  UNL1        0.0391
     29 C           8.4378    3.0525    2.7035 C.3     1  UNL1        0.0390
     30 CL          8.8765    1.5549    3.5309 Cl      1  UNL1       -0.1238
     31 C           5.9788    0.6520    2.0865 C.2     1  UNL1        0.2703
     32 O           6.3299    0.3164    3.2647 O.2     1  UNL1       -0.2706
     33 C           3.5490   -1.2531   -0.9903 C.3     1  UNL1        0.0314
     34 C          -2.0533    0.1822   -0.6009 C.3     1  UNL1        0.1360
     35 C          -2.7341   -1.1869   -0.5820 C.3     1  UNL1       -0.0234
     36 C          -4.1754   -1.1857   -0.7810 C.3     1  UNL1       -0.0239
     37 C          -4.7554   -1.0832   -2.1426 C.3     1  UNL1        0.0020
     38 N          -5.9177   -0.2697   -1.9623 N.3     1  UNL1       -0.2990
     39 C          -6.6579   -0.7193   -0.8598 C.3     1  UNL1        0.0278
     40 C          -6.3447   -2.0197   -0.2194 C.3     1  UNL1        0.0788
     41 O          -7.0382   -3.0207   -0.8978 O.3     1  UNL1       -0.3873
     42 C          -6.8654   -2.1060    1.2109 C.3     1  UNL1       -0.0256
     43 C          -8.3523   -1.9473    1.3005 C.3     1  UNL1       -0.0626
     44 C          -4.8989   -2.4070   -0.1970 C.3     1  UNL1       -0.0188
     45 C          -5.7814    1.1011   -2.2071 C.3     1  UNL1        0.0031
     46 C          -4.4869    1.7831   -2.0363 C.3     1  UNL1       -0.0126
     47 C          -3.9166    1.8852   -0.6772 C.ar    1  UNL1       -0.0165
     48 C          -2.8541    1.2518    0.0138 C.ar    1  UNL1        0.0418
     49 N          -2.8029    1.8362    1.2223 N.ar    1  UNL1       -0.3565
     50 C          -3.6988    2.7854    1.4449 C.ar    1  UNL1        0.0470
     51 C          -4.0315    3.6299    2.4771 C.ar    1  UNL1       -0.0378
     52 C          -5.0550    4.5443    2.4081 C.ar    1  UNL1       -0.0598
     53 C          -5.7853    4.6227    1.2528 C.ar    1  UNL1       -0.0611
     54 C          -5.4508    3.7778    0.2228 C.ar    1  UNL1       -0.0523
     55 C          -4.4097    2.8290    0.2572 C.ar    1  UNL1        0.0032
     56 C          -1.6027    0.5461   -2.0015 C.2     1  UNL1        0.3235
     57 O          -1.5451    0.0446   -3.1382 O.2     1  UNL1       -0.2494
     58 O          -1.0861    1.8526   -2.0763 O.3     1  UNL1       -0.4670
     59 C          -0.6298    2.3256   -3.3317 C.3     1  UNL1        0.0817
     60 H           3.4630    1.3060    1.3035 H       1  UNL1        0.0553
     61 H           4.2801   -1.4348    3.4393 H       1  UNL1        0.0428
     62 H           2.5523   -1.6562    3.6425 H       1  UNL1        0.0428
     63 H           3.3306   -2.7358    2.5011 H       1  UNL1        0.0428
     64 H           0.5316   -1.1361    3.0851 H       1  UNL1        0.0673
     65 H          -1.2017   -0.6004    4.1221 H       1  UNL1        0.0660
     66 H          -1.3090   -2.3036    3.5042 H       1  UNL1        0.0660
     67 H          -2.8037   -1.4261    3.8393 H       1  UNL1        0.0660
     68 H           0.5661    0.4281   -1.4985 H       1  UNL1        0.0625
     69 H           4.0432    1.7831   -1.3544 H       1  UNL1        0.0287
     70 H           2.2923    1.8115   -1.3111 H       1  UNL1        0.0287
     71 H           2.2492    0.5719   -3.1955 H       1  UNL1        0.0427
     72 H           4.0000    0.7017   -3.3374 H       1  UNL1        0.0427
     73 H           3.8438   -1.1331   -4.3049 H       1  UNL1        0.0470
     74 H           3.8712   -2.7167   -3.5536 H       1  UNL1        0.0470
     75 H           6.2847   -1.1126   -3.8430 H       1  UNL1        0.0582
     76 H           6.9296   -1.1920   -1.5784 H       1  UNL1        0.0575
     77 H           4.2680   -3.5061    0.2491 H       1  UNL1        0.0271
     78 H           4.4752   -3.7424   -1.4829 H       1  UNL1        0.0271
     79 H           6.4169   -3.9364    0.7455 H       1  UNL1        0.0230
     80 H           6.4791   -4.8022   -0.8093 H       1  UNL1        0.0230
     81 H           7.1021   -3.1048   -0.6496 H       1  UNL1        0.0230
     82 H           6.6622   -1.3567    0.4465 H       1  UNL1        0.0318
     83 H           5.3227   -2.0181    1.3867 H       1  UNL1        0.0318
     84 H           6.6713    4.0476    2.0396 H       1  UNL1        0.0482
     85 H           6.4390    3.1576    3.5425 H       1  UNL1        0.0482
     86 H           8.7942    3.8861    3.3244 H       1  UNL1        0.0445
     87 H           8.9464    3.1378    1.7324 H       1  UNL1        0.0445
     88 H           2.8446   -2.0699   -0.6465 H       1  UNL1        0.0480
     89 H          -2.4374   -1.8352    0.2346 H       1  UNL1        0.0286
     90 H          -2.2791   -1.6982   -1.5035 H       1  UNL1        0.0286
     91 H          -4.5775   -0.3845   -0.0675 H       1  UNL1        0.0314
     92 H          -5.1747   -2.0633   -2.5408 H       1  UNL1        0.0429
     93 H          -4.0932   -0.7765   -2.9570 H       1  UNL1        0.0429
     94 H          -7.7369   -0.6771   -1.1311 H       1  UNL1        0.0455
     95 H          -6.5652    0.0630   -0.0495 H       1  UNL1        0.0455
     96 H          -6.9987   -3.8961   -0.4558 H       1  UNL1        0.2102
     97 H          -6.6361   -3.1621    1.5414 H       1  UNL1        0.0291
     98 H          -6.3024   -1.4699    1.9005 H       1  UNL1        0.0291
     99 H          -8.7266   -2.4522    2.2178 H       1  UNL1        0.0231
    100 H          -8.8258   -2.4406    0.4403 H       1  UNL1        0.0231
    101 H          -8.6409   -0.8848    1.4035 H       1  UNL1        0.0231
    102 H          -4.7253   -3.2074   -0.9412 H       1  UNL1        0.0296
    103 H          -4.5615   -2.6537    0.8069 H       1  UNL1        0.0296
    104 H          -6.1917    1.2666   -3.2528 H       1  UNL1        0.0430
    105 H          -6.5323    1.7047   -1.6003 H       1  UNL1        0.0430
    106 H          -3.7102    1.4852   -2.7741 H       1  UNL1        0.0326
    107 H          -4.6644    2.8589   -2.3855 H       1  UNL1        0.0326
    108 H          -2.1317    1.6754    2.0341 H       1  UNL1        0.1656
    109 H          -3.4788    3.5989    3.4065 H       1  UNL1        0.0638
    110 H          -5.2771    5.1809    3.2378 H       1  UNL1        0.0618
    111 H          -6.5994    5.3239    1.1477 H       1  UNL1        0.0618
    112 H          -6.0523    3.8744   -0.6680 H       1  UNL1        0.0624
    113 H          -0.8391    3.4285   -3.3310 H       1  UNL1        0.0661
    114 H           0.4473    2.1292   -3.4672 H       1  UNL1        0.0661
    115 H          -1.1962    1.8888   -4.1835 H       1  UNL1        0.0661
@<TRIPOS>BOND
     1     1     2    1
     2     2     3    1
     3     2     4    1
     4     4     5   ar
     5     5     6   ar
     6     6     7    1
     7     7     8    1
     8     6     9   ar
     9     9    10   ar
    10    10    11   ar
    11    11    12    1
    12    12    13    1
    13    13    14    1
    14    14    15    1
    15    15    16    1
    16    16    17    1
    17    17    18    2
    18    18    19    1
    19    19    20    1
    20    20    21    1
    21    19    22    1
    22    22    23    1
    23    23    24    1
    24    24    25    1
    25    25    26    2
    26    25    27   am
    27    27    28    1
    28    28    29    1
    29    29    30    1
    30    27    31   am
    31    31    32    2
    32    19    33    1
    33     9    34    1
    34    34    35    1
    35    35    36    1
    36    36    37    1
    37    37    38    1
    38    38    39    1
    39    39    40    1
    40    40    41    1
    41    40    42    1
    42    42    43    1
    43    40    44    1
    44    38    45    1
    45    45    46    1
    46    46    47    1
    47    47    48   ar
    48    48    49   ar
    49    49    50   ar
    50    50    51   ar
    51    51    52   ar
    52    52    53   ar
    53    53    54   ar
    54    54    55   ar
    55    34    56    1
    56    56    57    2
    57    56    58    1
    58    58    59    1
    59    12     1    1
    60    33    12    1
    61    48    34    1
    62    55    50   ar
    63    23     1    1
    64    31    23    1
    65    44    36    1
    66    55    47   ar
    67    11     4   ar
    68    33    15    1
    69     1    60    1
    70     3    61    1
    71     3    62    1
    72     3    63    1
    73     5    64    1
    74     8    65    1
    75     8    66    1
    76     8    67    1
    77    10    68    1
    78    13    69    1
    79    13    70    1
    80    14    71    1
    81    14    72    1
    82    16    73    1
    83    16    74    1
    84    17    75    1
    85    18    76    1
    86    20    77    1
    87    20    78    1
    88    21    79    1
    89    21    80    1
    90    21    81    1
    91    22    82    1
    92    22    83    1
    93    28    84    1
    94    28    85    1
    95    29    86    1
    96    29    87    1
    97    33    88    1
    98    35    89    1
    99    35    90    1
   100    36    91    1
   101    37    92    1
   102    37    93    1
   103    39    94    1
   104    39    95    1
   105    41    96    1
   106    42    97    1
   107    42    98    1
   108    43    99    1
   109    43   100    1
   110    43   101    1
   111    44   102    1
   112    44   103    1
   113    45   104    1
   114    45   105    1
   115    46   106    1
   116    46   107    1
   117    49   108    1
   118    51   109    1
   119    52   110    1
   120    53   111    1
   121    54   112    1
   122    59   113    1
   123    59   114    1
   124    59   115    1
