
     RDKit          3D

115124  0  0  0  0  0  0  0  0999 V2000
    3.7757    0.2974    0.9718 C   0  0  2  0  0  0  0  0  0  0  0  0
    3.1146   -0.7034    1.8229 N   0  0  0  0  0  0  0  0  0  0  0  0
    3.3774   -1.7147    2.8684 C   0  0  0  0  0  0  0  0  0  0  0  0
    1.7314   -0.5647    1.4158 C   0  0  0  0  0  0  0  0  0  0  0  0
    0.5190   -0.7777    2.0427 C   0  0  0  0  0  0  0  0  0  0  0  0
   -0.6980   -0.5604    1.4162 C   0  0  0  0  0  0  0  0  0  0  0  0
   -1.8486   -0.8122    2.1305 O   0  0  0  0  0  0  0  0  0  0  0  0
   -1.7607   -1.2694    3.4567 C   0  0  0  0  0  0  0  0  0  0  0  0
   -0.7425   -0.1013    0.0852 C   0  0  0  0  0  0  0  0  0  0  0  0
    0.4927    0.0954   -0.4990 C   0  0  0  0  0  0  0  0  0  0  0  0
    1.6969   -0.1181    0.1140 C   0  0  0  0  0  0  0  0  0  0  0  0
    3.1278    0.0381   -0.3461 C   0  0  1  0  0  0  0  0  0  0  0  0
    3.1871    1.1204   -1.3533 C   0  0  0  0  0  0  0  0  0  0  0  0
    3.1913    0.3654   -2.6495 C   0  0  0  0  0  0  0  0  0  0  0  0
    3.2307   -1.0457   -2.3603 N   0  0  0  0  0  0  0  0  0  0  0  0
    4.0946   -1.6546   -3.3318 C   0  0  0  0  0  0  0  0  0  0  0  0
    5.5234   -1.3554   -3.1158 C   0  0  0  0  0  0  0  0  0  0  0  0
    5.8717   -1.4063   -1.8136 C   0  0  0  0  0  0  0  0  0  0  0  0
    4.9216   -1.7316   -0.6858 C   0  0  1  0  0  0  0  0  0  0  0  0
    4.9338   -3.2681   -0.6229 C   0  0  0  0  0  0  0  0  0  0  0  0
    6.2949   -3.8006   -0.3482 C   0  0  0  0  0  0  0  0  0  0  0  0
    5.5396   -1.3090    0.5914 C   0  0  0  0  0  0  0  0  0  0  0  0
    5.2478    0.1203    0.9219 C   0  0  1  0  0  0  0  0  0  0  0  0
    5.8287    0.8708   -0.1292 O   0  0  0  0  0  0  0  0  0  0  0  0
    6.3239    2.0819    0.3332 C   0  0  0  0  0  0  0  0  0  0  0  0
    6.5888    3.0273   -0.4798 O   0  0  0  0  0  0  0  0  0  0  0  0
    6.4372    1.9862    1.7679 N   0  0  0  0  0  0  0  0  0  0  0  0
    6.9192    3.0907    2.5362 C   0  0  0  0  0  0  0  0  0  0  0  0
    8.4378    3.0525    2.7035 C   0  0  0  0  0  0  0  0  0  0  0  0
    8.8765    1.5549    3.5309 Cl  0  0  0  0  0  0  0  0  0  0  0  0
    5.9788    0.6520    2.0865 C   0  0  0  0  0  0  0  0  0  0  0  0
    6.3299    0.3164    3.2647 O   0  0  0  0  0  0  0  0  0  0  0  0
    3.5490   -1.2531   -0.9903 C   0  0  1  0  0  0  0  0  0  0  0  0
   -2.0533    0.1822   -0.6009 C   0  0  1  0  0  0  0  0  0  0  0  0
   -2.7341   -1.1869   -0.5820 C   0  0  0  0  0  0  0  0  0  0  0  0
   -4.1754   -1.1857   -0.7810 C   0  0  1  0  0  0  0  0  0  0  0  0
   -4.7554   -1.0832   -2.1426 C   0  0  0  0  0  0  0  0  0  0  0  0
   -5.9177   -0.2697   -1.9623 N   0  0  0  0  0  0  0  0  0  0  0  0
   -6.6579   -0.7193   -0.8598 C   0  0  0  0  0  0  0  0  0  0  0  0
   -6.3447   -2.0197   -0.2194 C   0  0  2  0  0  0  0  0  0  0  0  0
   -7.0382   -3.0207   -0.8978 O   0  0  0  0  0  0  0  0  0  0  0  0
   -6.8654   -2.1060    1.2109 C   0  0  0  0  0  0  0  0  0  0  0  0
   -8.3523   -1.9473    1.3005 C   0  0  0  0  0  0  0  0  0  0  0  0
   -4.8989   -2.4070   -0.1970 C   0  0  0  0  0  0  0  0  0  0  0  0
   -5.7814    1.1011   -2.2071 C   0  0  0  0  0  0  0  0  0  0  0  0
   -4.4869    1.7831   -2.0363 C   0  0  0  0  0  0  0  0  0  0  0  0
   -3.9166    1.8852   -0.6772 C   0  0  0  0  0  0  0  0  0  0  0  0
   -2.8541    1.2518    0.0138 C   0  0  0  0  0  0  0  0  0  0  0  0
   -2.8029    1.8362    1.2223 N   0  0  0  0  0  0  0  0  0  0  0  0
   -3.6988    2.7854    1.4449 C   0  0  0  0  0  0  0  0  0  0  0  0
   -4.0315    3.6299    2.4771 C   0  0  0  0  0  0  0  0  0  0  0  0
   -5.0550    4.5443    2.4081 C   0  0  0  0  0  0  0  0  0  0  0  0
   -5.7853    4.6227    1.2528 C   0  0  0  0  0  0  0  0  0  0  0  0
   -5.4508    3.7778    0.2228 C   0  0  0  0  0  0  0  0  0  0  0  0
   -4.4097    2.8290    0.2572 C   0  0  0  0  0  0  0  0  0  0  0  0
   -1.6027    0.5461   -2.0015 C   0  0  0  0  0  0  0  0  0  0  0  0
   -1.5451    0.0446   -3.1382 O   0  0  0  0  0  0  0  0  0  0  0  0
   -1.0861    1.8526   -2.0763 O   0  0  0  0  0  0  0  0  0  0  0  0
   -0.6298    2.3256   -3.3317 C   0  0  0  0  0  0  0  0  0  0  0  0
    3.4630    1.3060    1.3035 H   0  0  0  0  0  0  0  0  0  0  0  0
    4.2801   -1.4348    3.4393 H   0  0  0  0  0  0  0  0  0  0  0  0
    2.5523   -1.6562    3.6425 H   0  0  0  0  0  0  0  0  0  0  0  0
    3.3306   -2.7358    2.5011 H   0  0  0  0  0  0  0  0  0  0  0  0
    0.5316   -1.1361    3.0851 H   0  0  0  0  0  0  0  0  0  0  0  0
   -1.2017   -0.6004    4.1221 H   0  0  0  0  0  0  0  0  0  0  0  0
   -1.3090   -2.3036    3.5042 H   0  0  0  0  0  0  0  0  0  0  0  0
   -2.8037   -1.4261    3.8393 H   0  0  0  0  0  0  0  0  0  0  0  0
    0.5661    0.4281   -1.4985 H   0  0  0  0  0  0  0  0  0  0  0  0
    4.0432    1.7831   -1.3544 H   0  0  0  0  0  0  0  0  0  0  0  0
    2.2923    1.8115   -1.3111 H   0  0  0  0  0  0  0  0  0  0  0  0
    2.2492    0.5719   -3.1955 H   0  0  0  0  0  0  0  0  0  0  0  0
    4.0000    0.7017   -3.3374 H   0  0  0  0  0  0  0  0  0  0  0  0
    3.8438   -1.1331   -4.3049 H   0  0  0  0  0  0  0  0  0  0  0  0
    3.8712   -2.7167   -3.5536 H   0  0  0  0  0  0  0  0  0  0  0  0
    6.2847   -1.1126   -3.8430 H   0  0  0  0  0  0  0  0  0  0  0  0
    6.9296   -1.1920   -1.5784 H   0  0  0  0  0  0  0  0  0  0  0  0
    4.2680   -3.5061    0.2491 H   0  0  0  0  0  0  0  0  0  0  0  0
    4.4752   -3.7424   -1.4829 H   0  0  0  0  0  0  0  0  0  0  0  0
    6.4169   -3.9364    0.7455 H   0  0  0  0  0  0  0  0  0  0  0  0
    6.4791   -4.8022   -0.8093 H   0  0  0  0  0  0  0  0  0  0  0  0
    7.1021   -3.1048   -0.6496 H   0  0  0  0  0  0  0  0  0  0  0  0
    6.6622   -1.3567    0.4465 H   0  0  0  0  0  0  0  0  0  0  0  0
    5.3227   -2.0181    1.3867 H   0  0  0  0  0  0  0  0  0  0  0  0
    6.6713    4.0476    2.0396 H   0  0  0  0  0  0  0  0  0  0  0  0
    6.4390    3.1576    3.5425 H   0  0  0  0  0  0  0  0  0  0  0  0
    8.7942    3.8861    3.3244 H   0  0  0  0  0  0  0  0  0  0  0  0
    8.9464    3.1378    1.7324 H   0  0  0  0  0  0  0  0  0  0  0  0
    2.8446   -2.0699   -0.6465 H   0  0  0  0  0  0  0  0  0  0  0  0
   -2.4374   -1.8352    0.2346 H   0  0  0  0  0  0  0  0  0  0  0  0
   -2.2791   -1.6982   -1.5035 H   0  0  0  0  0  0  0  0  0  0  0  0
   -4.5775   -0.3845   -0.0675 H   0  0  0  0  0  0  0  0  0  0  0  0
   -5.1747   -2.0633   -2.5408 H   0  0  0  0  0  0  0  0  0  0  0  0
   -4.0932   -0.7765   -2.9570 H   0  0  0  0  0  0  0  0  0  0  0  0
   -7.7369   -0.6771   -1.1311 H   0  0  0  0  0  0  0  0  0  0  0  0
   -6.5652    0.0630   -0.0495 H   0  0  0  0  0  0  0  0  0  0  0  0
   -6.9987   -3.8961   -0.4558 H   0  0  0  0  0  0  0  0  0  0  0  0
   -6.6361   -3.1621    1.5414 H   0  0  0  0  0  0  0  0  0  0  0  0
   -6.3024   -1.4699    1.9005 H   0  0  0  0  0  0  0  0  0  0  0  0
   -8.7266   -2.4522    2.2178 H   0  0  0  0  0  0  0  0  0  0  0  0
   -8.8258   -2.4406    0.4403 H   0  0  0  0  0  0  0  0  0  0  0  0
   -8.6409   -0.8848    1.4035 H   0  0  0  0  0  0  0  0  0  0  0  0
   -4.7253   -3.2074   -0.9412 H   0  0  0  0  0  0  0  0  0  0  0  0
   -4.5615   -2.6537    0.8069 H   0  0  0  0  0  0  0  0  0  0  0  0
   -6.1917    1.2666   -3.2528 H   0  0  0  0  0  0  0  0  0  0  0  0
   -6.5323    1.7047   -1.6003 H   0  0  0  0  0  0  0  0  0  0  0  0
   -3.7102    1.4852   -2.7741 H   0  0  0  0  0  0  0  0  0  0  0  0
   -4.6644    2.8589   -2.3855 H   0  0  0  0  0  0  0  0  0  0  0  0
   -2.1317    1.6754    2.0341 H   0  0  0  0  0  0  0  0  0  0  0  0
   -3.4788    3.5989    3.4065 H   0  0  0  0  0  0  0  0  0  0  0  0
   -5.2771    5.1809    3.2378 H   0  0  0  0  0  0  0  0  0  0  0  0
   -6.5994    5.3239    1.1477 H   0  0  0  0  0  0  0  0  0  0  0  0
   -6.0523    3.8744   -0.6680 H   0  0  0  0  0  0  0  0  0  0  0  0
   -0.8391    3.4285   -3.3310 H   0  0  0  0  0  0  0  0  0  0  0  0
    0.4473    2.1292   -3.4672 H   0  0  0  0  0  0  0  0  0  0  0  0
   -1.1962    1.8888   -4.1835 H   0  0  0  0  0  0  0  0  0  0  0  0
  1  2  1  0
  2  3  1  0
  2  4  1  0
  4  5  2  0
  5  6  1  0
  6  7  1  0
  7  8  1  0
  6  9  2  0
  9 10  1  0
 10 11  2  0
 11 12  1  0
 12 13  1  6
 13 14  1  0
 14 15  1  0
 15 16  1  0
 16 17  1  0
 17 18  2  0
 18 19  1  0
 19 20  1  1
 20 21  1  0
 19 22  1  0
 22 23  1  0
 23 24  1  6
 24 25  1  0
 25 26  2  0
 25 27  1  0
 27 28  1  0
 28 29  1  0
 29 30  1  0
 27 31  1  0
 31 32  2  0
 19 33  1  0
  9 34  1  0
 34 35  1  0
 35 36  1  0
 36 37  1  0
 37 38  1  0
 38 39  1  0
 39 40  1  0
 40 41  1  6
 40 42  1  0
 42 43  1  0
 40 44  1  0
 38 45  1  0
 45 46  1  0
 46 47  1  0
 47 48  2  0
 48 49  1  0
 49 50  1  0
 50 51  2  0
 51 52  1  0
 52 53  2  0
 53 54  1  0
 54 55  2  0
 34 56  1  6
 56 57  2  0
 56 58  1  0
 58 59  1  0
 12  1  1  0
 33 12  1  0
 48 34  1  0
 55 50  1  0
 23  1  1  0
 31 23  1  0
 44 36  1  0
 55 47  1  0
 11  4  1  0
 33 15  1  0
  1 60  1  1
  3 61  1  0
  3 62  1  0
  3 63  1  0
  5 64  1  0
  8 65  1  0
  8 66  1  0
  8 67  1  0
 10 68  1  0
 13 69  1  0
 13 70  1  0
 14 71  1  0
 14 72  1  0
 16 73  1  0
 16 74  1  0
 17 75  1  0
 18 76  1  0
 20 77  1  0
 20 78  1  0
 21 79  1  0
 21 80  1  0
 21 81  1  0
 22 82  1  0
 22 83  1  0
 28 84  1  0
 28 85  1  0
 29 86  1  0
 29 87  1  0
 33 88  1  1
 35 89  1  0
 35 90  1  0
 36 91  1  1
 37 92  1  0
 37 93  1  0
 39 94  1  0
 39 95  1  0
 41 96  1  0
 42 97  1  0
 42 98  1  0
 43 99  1  0
 43100  1  0
 43101  1  0
 44102  1  0
 44103  1  0
 45104  1  0
 45105  1  0
 46106  1  0
 46107  1  0
 49108  1  0
 51109  1  0
 52110  1  0
 53111  1  0
 54112  1  0
 59113  1  0
 59114  1  0
 59115  1  0
M  END
$$$$
