@<TRIPOS>MOLECULE
*****
 63 68 0 0 0
SMALL
GASTEIGER

@<TRIPOS>ATOM
      1 N1          4.7177   -3.4464   -4.1763 N.3     1  <1>        -0.2035
      2 S1          5.2294   -3.5617   -2.5331 S.O2    1  <1>         0.0559
      3 O1          6.5949   -2.9351   -2.4394 O.2     1  <1>        -0.1533
      4 O2          5.4030   -5.0222   -2.2238 O.2     1  <1>        -0.1533
      5 C1          4.0963   -2.7927   -1.4484 C.ar    1  <1>         0.1050
      6 C2          4.2378   -1.4648   -1.1291 C.ar    1  <1>        -0.0351
      7 C3          3.3628   -0.8261   -0.2782 C.ar    1  <1>        -0.0564
      8 C4          2.2786   -1.4888    0.3118 C.ar    1  <1>        -0.0428
      9 C5          1.4067   -0.7584    1.2533 C.3     1  <1>         0.0014
     10 C6          0.6264    0.3502    0.7345 C.ar    1  <1>         0.0062
     11 C7         -0.5809    0.3034    0.0751 C.ar    1  <1>         0.0970
     12 C8         -1.4341   -0.8303   -0.2686 C.ar    1  <1>         0.0030
     13 C9         -0.9972   -1.8909   -1.0078 C.ar    1  <1>        -0.0525
     14 C10        -1.8267   -2.9742   -1.2967 C.ar    1  <1>        -0.0606
     15 C11        -3.1089   -2.9614   -0.8229 C.ar    1  <1>        -0.0540
     16 C12        -3.6115   -1.9194   -0.0716 C.ar    1  <1>        -0.0173
     17 C13        -4.9911   -1.9590    0.4048 C.ar    1  <1>        -0.0179
     18 C14        -5.3750   -1.3653    1.5903 C.ar    1  <1>        -0.0540
     19 C15        -6.6890   -1.4201    2.0107 C.ar    1  <1>        -0.0612
     20 C16        -7.6704   -2.0588    1.2826 C.ar    1  <1>        -0.0617
     21 C17        -7.3009   -2.6579    0.0937 C.ar    1  <1>        -0.0612
     22 C18        -5.9892   -2.6003   -0.3210 C.ar    1  <1>        -0.0540
     23 C19        -2.7594   -0.8814    0.1853 C.ar    1  <1>        -0.0448
     24 N2         -0.9819    1.5771   -0.2264 N.ar    1  <1>        -0.1641
     25 N3         -0.0605    2.3730    0.2264 N.ar    1  <1>        -0.2115
     26 C20        -0.0461    3.8327    0.1428 C.ar    1  <1>         0.1947
     27 N4          0.7644    4.6736   -0.2379 N.ar    1  <1>        -0.2145
     28 C21         0.5980    5.9629   -0.2383 C.ar    1  <1>         0.1568
     29 C22         1.6121    6.9566   -0.7116 C.2     1  <1>         0.3559
     30 O3          2.6931    6.5173   -1.1345 O.2     1  <1>        -0.2434
     31 O4          1.3810    8.2999   -0.6891 O.3     1  <1>        -0.4761
     32 C23        -0.6400    6.3985    0.2510 C.ar    1  <1>         0.0116
     33 S2         -1.4228    4.8083    0.6608 S.2     1  <1>        -0.0554
     34 C24         0.9616    1.6842    0.8302 C.ar    1  <1>         0.0543
     35 C25         2.1101    2.3431    1.3999 C.3     1  <1>         0.0019
     36 C26         2.0924    2.8202    2.8415 C.3     1  <1>        -0.0442
     37 C27         3.1302    1.9136    2.3120 C.3     1  <1>        -0.0442
     38 C28         2.1615   -2.8214   -0.0270 C.ar    1  <1>        -0.0564
     39 C29         3.0351   -3.4659   -0.8787 C.ar    1  <1>        -0.0351
     40 H1          4.1381   -4.2645   -4.4654 H       1  <1>         0.1442
     41 H2          5.5123   -3.2660   -4.8259 H       1  <1>         0.1442
     42 H3          5.0623   -0.8936   -1.5580 H       1  <1>         0.0637
     43 H4          3.4625    0.2221   -0.0172 H       1  <1>         0.0621
     44 H5          0.5890   -1.5615    1.4924 H       1  <1>         0.0363
     45 H6          1.8165   -0.6621    2.2763 H       1  <1>         0.0363
     46 H7         -0.0160   -1.9146   -1.4108 H       1  <1>         0.0624
     47 H8         -1.4429   -3.7879   -1.8803 H       1  <1>         0.0618
     48 H9         -3.7745   -3.8003   -1.0387 H       1  <1>         0.0624
     49 H10        -4.6239   -0.8539    2.1874 H       1  <1>         0.0624
     50 H11        -6.9906   -0.9553    2.9399 H       1  <1>         0.0618
     51 H12        -8.7005   -2.0964    1.6213 H       1  <1>         0.0618
     52 H13        -8.0336   -3.1671   -0.5047 H       1  <1>         0.0618
     53 H14        -5.6643   -3.0621   -1.2541 H       1  <1>         0.0624
     54 H15        -3.1333   -0.0546    0.7726 H       1  <1>         0.0630
     55 H16         2.1096    9.0035   -0.6822 H       1  <1>         0.2955
     56 H17        -1.0857    7.4061    0.3820 H       1  <1>         0.0718
     57 H18         2.4685    3.2099    0.7245 H       1  <1>         0.0364
     58 H19         1.2285    2.4597    3.4299 H       1  <1>         0.0272
     59 H20         2.3501    3.8680    3.0918 H       1  <1>         0.0272
     60 H21         3.3185    0.9146    2.7308 H       1  <1>         0.0272
     61 H22         4.1583    2.4219    2.2508 H       1  <1>         0.0272
     62 H23         1.3191   -3.3746    0.4189 H       1  <1>         0.0621
     63 H24         2.9244   -4.5034   -1.1280 H       1  <1>         0.0637
@<TRIPOS>BOND
     1     1     2    1
     2     2     3    2
     3     2     4    2
     4     2     5    1
     5     5     6   ar
     6     6     7   ar
     7     7     8   ar
     8     8     9    1
     9     9    10    1
    10    10    11   ar
    11    11    12    1
    12    12    13   ar
    13    13    14   ar
    14    14    15   ar
    15    15    16   ar
    16    16    17    1
    17    17    18   ar
    18    18    19   ar
    19    19    20   ar
    20    20    21   ar
    21    21    22   ar
    22    16    23   ar
    23    11    24   ar
    24    24    25   ar
    25    25    26    1
    26    26    27   ar
    27    27    28   ar
    28    28    29    1
    29    29    30    2
    30    29    31    1
    31    28    32   ar
    32    32    33   ar
    33    25    34   ar
    34    34    35    1
    35    35    36    1
    36    36    37    1
    37     8    38   ar
    38    38    39   ar
    39    39     5   ar
    40    34    10   ar
    41    37    35    1
    42    23    12   ar
    43    33    26   ar
    44    22    17   ar
    45     1    40    1
    46     1    41    1
    47     6    42    1
    48     7    43    1
    49     9    44    1
    50     9    45    1
    51    13    46    1
    52    14    47    1
    53    15    48    1
    54    18    49    1
    55    19    50    1
    56    20    51    1
    57    21    52    1
    58    22    53    1
    59    23    54    1
    60    31    55    1
    61    32    56    1
    62    35    57    1
    63    36    58    1
    64    36    59    1
    65    37    60    1
    66    37    61    1
    67    38    62    1
    68    39    63    1
