@<TRIPOS>MOLECULE
*****
 56 59 0 0 0
SMALL
GASTEIGER

@<TRIPOS>ATOM
      1 C          -4.7811    2.4954   -1.6539 C.3     1  UNL1       -0.0394
      2 C          -4.7781    1.6546   -0.4507 C.ar    1  UNL1       -0.0455
      3 C          -5.7534    1.8506    0.5421 C.ar    1  UNL1       -0.0585
      4 C          -5.7098    1.0476    1.6754 C.ar    1  UNL1       -0.0615
      5 C          -4.7401    0.0836    1.8296 C.ar    1  UNL1       -0.0614
      6 C          -3.7888   -0.1026    0.8535 C.ar    1  UNL1       -0.0565
      7 C          -3.8083    0.6907   -0.2984 C.ar    1  UNL1       -0.0238
      8 C          -2.7987    0.4612   -1.3492 C.3     1  UNL1        0.0590
      9 C          -3.1154   -0.8018   -2.1630 C.3     1  UNL1        0.0673
     10 C          -4.4114   -0.7476   -2.8350 C.2     1  UNL1        0.3068
     11 O          -5.5094   -0.9553   -2.2616 O.2     1  UNL1       -0.2509
     12 O          -4.4229   -0.4440   -4.2083 O.3     1  UNL1       -0.4806
     13 N          -1.4835    0.2492   -0.7723 N.am    1  UNL1       -0.3027
     14 C          -0.3531    1.0212   -1.1965 C.2     1  UNL1        0.2648
     15 O          -0.5342    1.8865   -2.0802 O.2     1  UNL1       -0.2684
     16 C           0.9605    0.7788   -0.5952 C.ar    1  UNL1        0.1511
     17 C           1.2652   -0.1226    0.4213 C.ar    1  UNL1        0.0322
     18 C           2.6066   -0.0335    0.6724 C.ar    1  UNL1        0.2187
     19 O           3.3085   -0.7557    1.6033 O.3     1  UNL1       -0.4760
     20 C           2.7649   -1.7086    2.4418 C.3     1  UNL1        0.0940
     21 C           2.1557   -2.9076    1.7498 C.3     1  UNL1       -0.0067
     22 C           1.5504   -3.9592    2.6975 C.3     1  UNL1       -0.0468
     23 C           2.8749   -4.1869    2.0009 C.3     1  UNL1       -0.0468
     24 N           3.1146    0.9036   -0.1723 N.ar    1  UNL1       -0.1969
     25 C           4.4906    1.2616   -0.1935 C.ar    1  UNL1        0.1042
     26 C           5.0176    2.1869    0.6786 C.ar    1  UNL1       -0.0333
     27 C           6.3769    2.5202    0.6354 C.ar    1  UNL1       -0.0596
     28 C           7.2000    1.9242   -0.2818 C.ar    1  UNL1       -0.0589
     29 C           6.6652    1.0023   -1.1481 C.ar    1  UNL1       -0.0243
     30 C           5.3261    0.6683   -1.1115 C.ar    1  UNL1        0.1488
     31 F           4.8456   -0.2491   -1.9889 F       1  UNL1       -0.2033
     32 N           2.1234    1.3687   -0.9104 N.ar    1  UNL1       -0.1585
     33 H          -3.7968    3.0149   -1.8211 H       1  UNL1        0.0278
     34 H          -5.4923    3.3613   -1.4705 H       1  UNL1        0.0278
     35 H          -5.1130    2.0160   -2.5773 H       1  UNL1        0.0278
     36 H          -6.5105    2.6178    0.3988 H       1  UNL1        0.0620
     37 H          -6.4382    1.1632    2.4605 H       1  UNL1        0.0618
     38 H          -4.7462   -0.5126    2.7220 H       1  UNL1        0.0618
     39 H          -3.0123   -0.8642    0.9586 H       1  UNL1        0.0621
     40 H          -2.7710    1.2904   -2.0863 H       1  UNL1        0.0554
     41 H          -3.0643   -1.6673   -1.4461 H       1  UNL1        0.0399
     42 H          -2.2921   -0.9694   -2.8912 H       1  UNL1        0.0399
     43 H          -5.2688   -0.5660   -4.7449 H       1  UNL1        0.2951
     44 H          -1.3104   -0.4670   -0.0369 H       1  UNL1        0.1497
     45 H           0.4913   -0.7263    0.8609 H       1  UNL1        0.0694
     46 H           1.9589   -1.2479    3.0943 H       1  UNL1        0.0700
     47 H           3.5575   -2.0329    3.1470 H       1  UNL1        0.0700
     48 H           1.6766   -2.7412    0.7726 H       1  UNL1        0.0334
     49 H           1.5287   -3.7171    3.7691 H       1  UNL1        0.0269
     50 H           0.6469   -4.4854    2.2699 H       1  UNL1        0.0269
     51 H           3.7767   -4.1853    2.6370 H       1  UNL1        0.0269
     52 H           2.8560   -5.0121    1.2647 H       1  UNL1        0.0269
     53 H           4.3881    2.6646    1.4037 H       1  UNL1        0.0640
     54 H           6.7188    3.2646    1.3612 H       1  UNL1        0.0618
     55 H           8.2377    2.1749   -0.3190 H       1  UNL1        0.0618
     56 H           7.3202    0.5466   -1.8578 H       1  UNL1        0.0647
@<TRIPOS>BOND
     1     1     2    1
     2     2     3   ar
     3     3     4   ar
     4     4     5   ar
     5     5     6   ar
     6     6     7   ar
     7     7     8    1
     8     8     9    1
     9     9    10    1
    10    10    11    2
    11    10    12    1
    12     8    13    1
    13    13    14   am
    14    14    15    2
    15    14    16    1
    16    16    17   ar
    17    17    18   ar
    18    18    19    1
    19    19    20    1
    20    20    21    1
    21    21    22    1
    22    22    23    1
    23    18    24   ar
    24    24    25    1
    25    25    26   ar
    26    26    27   ar
    27    27    28   ar
    28    28    29   ar
    29    29    30   ar
    30    30    31    1
    31    24    32   ar
    32     7     2   ar
    33    32    16   ar
    34    23    21    1
    35    30    25   ar
    36     1    33    1
    37     1    34    1
    38     1    35    1
    39     3    36    1
    40     4    37    1
    41     5    38    1
    42     6    39    1
    43     8    40    1
    44     9    41    1
    45     9    42    1
    46    12    43    1
    47    13    44    1
    48    17    45    1
    49    20    46    1
    50    20    47    1
    51    21    48    1
    52    22    49    1
    53    22    50    1
    54    23    51    1
    55    23    52    1
    56    26    53    1
    57    27    54    1
    58    28    55    1
    59    29    56    1
