@<TRIPOS>MOLECULE
*****
 18 18 0 0 0
SMALL
GASTEIGER

@<TRIPOS>ATOM
      1 N           2.4875    1.2101    0.6267 N.am    1  UNL1       -0.3252
      2 C           2.0520    0.0646   -0.0949 C.2     1  UNL1        0.2452
      3 O           2.9168   -0.6419   -0.6674 O.2     1  UNL1       -0.2703
      4 C           0.6572   -0.3032   -0.1857 C.ar    1  UNL1        0.0815
      5 C           0.3025   -1.4262   -0.9011 C.ar    1  UNL1       -0.0459
      6 C          -1.0397   -1.8009   -1.0024 C.ar    1  UNL1       -0.0574
      7 C          -2.0504   -1.0822   -0.4054 C.ar    1  UNL1       -0.0165
      8 C          -1.6664    0.0519    0.3142 C.ar    1  UNL1        0.1590
      9 O          -2.7317    0.7471    0.9015 O.3     1  UNL1       -0.5033
     10 C          -0.3415    0.4239    0.4156 C.ar    1  UNL1        0.1705
     11 O          -0.0400    1.5637    1.1484 O.3     1  UNL1       -0.5028
     12 H           2.3931    2.2456    0.7213 H       1  UNL1        0.1453
     13 H           3.1871    0.9181    1.3691 H       1  UNL1        0.1453
     14 H           1.0873   -2.0008   -1.3758 H       1  UNL1        0.0626
     15 H          -1.2954   -2.6992   -1.5779 H       1  UNL1        0.0619
     16 H          -3.0649   -1.4338   -0.5280 H       1  UNL1        0.0655
     17 H          -2.8567    1.7135    0.5998 H       1  UNL1        0.2923
     18 H           0.0031    2.4499    0.6420 H       1  UNL1        0.2923
@<TRIPOS>BOND
     1     1     2   am
     2     2     3    2
     3     2     4    1
     4     4     5   ar
     5     5     6   ar
     6     6     7   ar
     7     7     8   ar
     8     8     9    1
     9     8    10   ar
    10    10    11    1
    11    10     4   ar
    12     1    12    1
    13     1    13    1
    14     5    14    1
    15     6    15    1
    16     7    16    1
    17     9    17    1
    18    11    18    1
