@<TRIPOS>MOLECULE
*****
 50 53 0 0 0
SMALL
GASTEIGER

@<TRIPOS>ATOM
      1 N          -4.1257   -1.7009   -1.9800 N.pl3   1  UNL1       -0.3565
      2 C          -5.3903   -1.2758   -1.4472 C.ar    1  UNL1        0.0461
      3 C          -6.5510   -1.9363   -1.8058 C.ar    1  UNL1       -0.0392
      4 C          -7.7769   -1.5478   -1.3090 C.ar    1  UNL1       -0.0599
      5 C          -7.7994   -0.4761   -0.4417 C.ar    1  UNL1       -0.0599
      6 C          -6.6212    0.1868   -0.0837 C.ar    1  UNL1       -0.0387
      7 C          -5.4037   -0.2031   -0.5804 C.ar    1  UNL1        0.0545
      8 N          -4.1635    0.4294   -0.2557 N.am    1  UNL1       -0.2800
      9 C          -3.3830    0.0031    0.8471 C.2     1  UNL1        0.2483
     10 O          -3.8637   -0.9728    1.5178 O.2     1  UNL1       -0.2699
     11 C          -2.1192    0.5890    1.2416 C.ar    1  UNL1        0.0370
     12 C          -1.5514    1.6300    0.5687 C.ar    1  UNL1       -0.0493
     13 C          -0.3272    2.1873    0.9616 C.ar    1  UNL1       -0.0564
     14 C           0.3375    1.6945    2.0428 C.ar    1  UNL1       -0.0303
     15 C           1.6438    2.2094    2.5043 C.3     1  UNL1        0.0370
     16 N           2.7455    1.3976    2.0673 N.pl3   1  UNL1       -0.3093
     17 C           3.0520    1.2075    0.7115 C.ar    1  UNL1        0.2159
     18 N           2.3704    1.7675   -0.2785 N.ar    1  UNL1       -0.2229
     19 C           2.6507    1.5952   -1.5641 C.ar    1  UNL1        0.0332
     20 C           3.7128    0.7870   -1.9002 C.ar    1  UNL1       -0.0174
     21 C           4.4452    0.1875   -0.9033 C.ar    1  UNL1        0.0775
     22 C           5.5945   -0.6896   -1.1993 C.ar    1  UNL1        0.0186
     23 C           6.2893   -1.2614   -0.1640 C.ar    1  UNL1       -0.0497
     24 C           7.3651   -2.0834   -0.4034 C.ar    1  UNL1       -0.0430
     25 C           7.7574   -2.3413   -1.7004 C.ar    1  UNL1        0.0276
     26 N           7.0797   -1.7839   -2.6986 N.ar    1  UNL1       -0.2626
     27 C           6.0167   -0.9715   -2.4691 C.ar    1  UNL1        0.0367
     28 N           4.0970    0.4125    0.3712 N.ar    1  UNL1       -0.2145
     29 C          -0.2292    0.6297    2.7434 C.ar    1  UNL1       -0.0564
     30 C          -1.4454    0.0956    2.3323 C.ar    1  UNL1       -0.0493
     31 H          -3.9422   -1.7291   -3.0085 H       1  UNL1        0.1424
     32 H          -3.3732   -1.9883   -1.3195 H       1  UNL1        0.1424
     33 H          -6.5303   -2.7776   -2.4869 H       1  UNL1        0.0636
     34 H          -8.6915   -2.0644   -1.5883 H       1  UNL1        0.0618
     35 H          -8.7405   -0.1471   -0.0355 H       1  UNL1        0.0618
     36 H          -6.6647    1.0147    0.5901 H       1  UNL1        0.0637
     37 H          -3.7871    1.2299   -0.8204 H       1  UNL1        0.1552
     38 H          -2.0159    2.0758   -0.2987 H       1  UNL1        0.0625
     39 H           0.0938    3.0241    0.4236 H       1  UNL1        0.0621
     40 H           1.7477    3.2654    2.1456 H       1  UNL1        0.0512
     41 H           1.6598    2.2960    3.6318 H       1  UNL1        0.0512
     42 H           3.3541    0.9206    2.8102 H       1  UNL1        0.1492
     43 H           2.0683    2.0723   -2.3647 H       1  UNL1        0.0831
     44 H           3.9488    0.6398   -2.9235 H       1  UNL1        0.0654
     45 H           5.9541   -1.0374    0.8401 H       1  UNL1        0.0625
     46 H           7.9024   -2.5267    0.4294 H       1  UNL1        0.0633
     47 H           8.6171   -2.9974   -1.9065 H       1  UNL1        0.0829
     48 H           5.5196   -0.5585   -3.3229 H       1  UNL1        0.0836
     49 H           0.3045    0.2501    3.5951 H       1  UNL1        0.0621
     50 H          -1.8315   -0.7279    2.9168 H       1  UNL1        0.0625
@<TRIPOS>BOND
     1     1     2    1
     2     2     3   ar
     3     3     4   ar
     4     4     5   ar
     5     5     6   ar
     6     6     7   ar
     7     7     8    1
     8     8     9   am
     9     9    10    2
    10     9    11    1
    11    11    12   ar
    12    12    13   ar
    13    13    14   ar
    14    14    15    1
    15    15    16    1
    16    16    17    1
    17    17    18   ar
    18    18    19   ar
    19    19    20   ar
    20    20    21   ar
    21    21    22    1
    22    22    23   ar
    23    23    24   ar
    24    24    25   ar
    25    25    26   ar
    26    26    27   ar
    27    21    28   ar
    28    14    29   ar
    29    29    30   ar
    30     7     2   ar
    31    30    11   ar
    32    28    17   ar
    33    27    22   ar
    34     1    31    1
    35     1    32    1
    36     3    33    1
    37     4    34    1
    38     5    35    1
    39     6    36    1
    40     8    37    1
    41    12    38    1
    42    13    39    1
    43    15    40    1
    44    15    41    1
    45    16    42    1
    46    19    43    1
    47    20    44    1
    48    23    45    1
    49    24    46    1
    50    25    47    1
    51    27    48    1
    52    29    49    1
    53    30    50    1
