
     RDKit          3D

 50 53  0  0  0  0  0  0  0  0999 V2000
   -4.1257   -1.7009   -1.9800 N   0  0  0  0  0  0  0  0  0  0  0  0
   -5.3903   -1.2758   -1.4472 C   0  0  0  0  0  0  0  0  0  0  0  0
   -6.5510   -1.9363   -1.8058 C   0  0  0  0  0  0  0  0  0  0  0  0
   -7.7769   -1.5478   -1.3090 C   0  0  0  0  0  0  0  0  0  0  0  0
   -7.7994   -0.4761   -0.4417 C   0  0  0  0  0  0  0  0  0  0  0  0
   -6.6212    0.1868   -0.0837 C   0  0  0  0  0  0  0  0  0  0  0  0
   -5.4037   -0.2031   -0.5804 C   0  0  0  0  0  0  0  0  0  0  0  0
   -4.1635    0.4294   -0.2557 N   0  0  0  0  0  0  0  0  0  0  0  0
   -3.3830    0.0031    0.8471 C   0  0  0  0  0  0  0  0  0  0  0  0
   -3.8637   -0.9728    1.5178 O   0  0  0  0  0  0  0  0  0  0  0  0
   -2.1192    0.5890    1.2416 C   0  0  0  0  0  0  0  0  0  0  0  0
   -1.5514    1.6300    0.5687 C   0  0  0  0  0  0  0  0  0  0  0  0
   -0.3272    2.1873    0.9616 C   0  0  0  0  0  0  0  0  0  0  0  0
    0.3375    1.6945    2.0428 C   0  0  0  0  0  0  0  0  0  0  0  0
    1.6438    2.2094    2.5043 C   0  0  0  0  0  0  0  0  0  0  0  0
    2.7455    1.3976    2.0673 N   0  0  0  0  0  0  0  0  0  0  0  0
    3.0520    1.2075    0.7115 C   0  0  0  0  0  0  0  0  0  0  0  0
    2.3704    1.7675   -0.2785 N   0  0  0  0  0  0  0  0  0  0  0  0
    2.6507    1.5952   -1.5641 C   0  0  0  0  0  0  0  0  0  0  0  0
    3.7128    0.7870   -1.9002 C   0  0  0  0  0  0  0  0  0  0  0  0
    4.4452    0.1875   -0.9033 C   0  0  0  0  0  0  0  0  0  0  0  0
    5.5945   -0.6896   -1.1993 C   0  0  0  0  0  0  0  0  0  0  0  0
    6.2893   -1.2614   -0.1640 C   0  0  0  0  0  0  0  0  0  0  0  0
    7.3651   -2.0834   -0.4034 C   0  0  0  0  0  0  0  0  0  0  0  0
    7.7574   -2.3413   -1.7004 C   0  0  0  0  0  0  0  0  0  0  0  0
    7.0797   -1.7839   -2.6986 N   0  0  0  0  0  0  0  0  0  0  0  0
    6.0167   -0.9715   -2.4691 C   0  0  0  0  0  0  0  0  0  0  0  0
    4.0970    0.4125    0.3712 N   0  0  0  0  0  0  0  0  0  0  0  0
   -0.2292    0.6297    2.7434 C   0  0  0  0  0  0  0  0  0  0  0  0
   -1.4454    0.0956    2.3323 C   0  0  0  0  0  0  0  0  0  0  0  0
   -3.9422   -1.7291   -3.0085 H   0  0  0  0  0  0  0  0  0  0  0  0
   -3.3732   -1.9883   -1.3195 H   0  0  0  0  0  0  0  0  0  0  0  0
   -6.5303   -2.7776   -2.4869 H   0  0  0  0  0  0  0  0  0  0  0  0
   -8.6915   -2.0644   -1.5883 H   0  0  0  0  0  0  0  0  0  0  0  0
   -8.7405   -0.1471   -0.0355 H   0  0  0  0  0  0  0  0  0  0  0  0
   -6.6647    1.0147    0.5901 H   0  0  0  0  0  0  0  0  0  0  0  0
   -3.7871    1.2299   -0.8204 H   0  0  0  0  0  0  0  0  0  0  0  0
   -2.0159    2.0758   -0.2987 H   0  0  0  0  0  0  0  0  0  0  0  0
    0.0938    3.0241    0.4236 H   0  0  0  0  0  0  0  0  0  0  0  0
    1.7477    3.2654    2.1456 H   0  0  0  0  0  0  0  0  0  0  0  0
    1.6598    2.2960    3.6318 H   0  0  0  0  0  0  0  0  0  0  0  0
    3.3541    0.9206    2.8102 H   0  0  0  0  0  0  0  0  0  0  0  0
    2.0683    2.0723   -2.3647 H   0  0  0  0  0  0  0  0  0  0  0  0
    3.9488    0.6398   -2.9235 H   0  0  0  0  0  0  0  0  0  0  0  0
    5.9541   -1.0374    0.8401 H   0  0  0  0  0  0  0  0  0  0  0  0
    7.9024   -2.5267    0.4294 H   0  0  0  0  0  0  0  0  0  0  0  0
    8.6171   -2.9974   -1.9065 H   0  0  0  0  0  0  0  0  0  0  0  0
    5.5196   -0.5585   -3.3229 H   0  0  0  0  0  0  0  0  0  0  0  0
    0.3045    0.2501    3.5951 H   0  0  0  0  0  0  0  0  0  0  0  0
   -1.8315   -0.7279    2.9168 H   0  0  0  0  0  0  0  0  0  0  0  0
  1  2  1  0
  2  3  2  0
  3  4  1  0
  4  5  2  0
  5  6  1  0
  6  7  2  0
  7  8  1  0
  8  9  1  0
  9 10  2  0
  9 11  1  0
 11 12  2  0
 12 13  1  0
 13 14  2  0
 14 15  1  0
 15 16  1  0
 16 17  1  0
 17 18  2  0
 18 19  1  0
 19 20  2  0
 20 21  1  0
 21 22  1  0
 22 23  2  0
 23 24  1  0
 24 25  2  0
 25 26  1  0
 26 27  2  0
 21 28  2  0
 14 29  1  0
 29 30  2  0
  7  2  1  0
 30 11  1  0
 28 17  1  0
 27 22  1  0
  1 31  1  0
  1 32  1  0
  3 33  1  0
  4 34  1  0
  5 35  1  0
  6 36  1  0
  8 37  1  0
 12 38  1  0
 13 39  1  0
 15 40  1  0
 15 41  1  0
 16 42  1  0
 19 43  1  0
 20 44  1  0
 23 45  1  0
 24 46  1  0
 25 47  1  0
 27 48  1  0
 29 49  1  0
 30 50  1  0
M  END
$$$$
