@<TRIPOS>MOLECULE
*****
 62 67 0 0 0
SMALL
GASTEIGER

@<TRIPOS>ATOM
      1 C           6.2133   -0.2652   -2.7887 C.3     1  UNL1        0.0707
      2 S           6.8080   -1.3385   -1.5054 S.O2    1  UNL1        0.0291
      3 O           6.7641   -2.7525   -2.0199 O.2     1  UNL1       -0.1583
      4 O           8.2437   -0.9901   -1.2450 O.2     1  UNL1       -0.1583
      5 N           5.8999   -1.2338   -0.0786 N.3     1  UNL1       -0.1789
      6 C           4.5320   -1.5994   -0.1987 C.3     1  UNL1        0.0329
      7 C           3.7254   -0.2990   -0.2817 C.3     1  UNL1        0.0137
      8 N           3.8165    0.3373    0.9817 N.3     1  UNL1       -0.2951
      9 C           2.8988   -0.1461    1.9536 C.3     1  UNL1        0.0304
     10 C           1.4746    0.0524    1.5212 C.ar    1  UNL1        0.0065
     11 C           0.5957    1.0719    1.6639 C.ar    1  UNL1       -0.0241
     12 C          -0.6391    0.9023    1.1476 C.ar    1  UNL1        0.0841
     13 N          -1.6567    1.8283    1.1997 N.ar    1  UNL1       -0.2266
     14 C          -2.8514    1.5730    0.6598 C.ar    1  UNL1        0.1631
     15 C          -3.8729    2.6392    0.7741 C.ar    1  UNL1        0.0298
     16 C          -3.5937    3.8298    1.4070 C.ar    1  UNL1       -0.0503
     17 C          -4.5095    4.8508    1.5389 C.ar    1  UNL1       -0.0591
     18 C          -5.7673    4.6427    0.9983 C.ar    1  UNL1       -0.0363
     19 C          -6.0968    3.4739    0.3572 C.ar    1  UNL1        0.0664
     20 N          -7.2083    3.0147   -0.2439 N.ar    1  UNL1       -0.2769
     21 N          -7.0042    1.8162   -0.7084 N.ar    1  UNL1       -0.1812
     22 C          -5.7322    1.4559   -0.4175 C.ar    1  UNL1        0.0576
     23 C          -5.1202    2.4772    0.2579 C.ar    1  UNL1        0.0301
     24 N          -3.1801    0.4332    0.0323 N.ar    1  UNL1       -0.2114
     25 C          -2.2154   -0.4977   -0.0408 C.ar    1  UNL1        0.1397
     26 N          -2.3789   -1.7599   -0.6655 N.pl3   1  UNL1       -0.3098
     27 C          -2.2317   -3.0404   -0.0099 C.3     1  UNL1        0.0370
     28 C          -3.5376   -3.7872   -0.1853 C.3     1  UNL1        0.0634
     29 O          -4.0739   -3.6673   -1.4425 O.3     1  UNL1       -0.3767
     30 C          -3.1745   -3.2103   -2.4004 C.3     1  UNL1        0.0634
     31 C          -2.7205   -1.7827   -2.0718 C.3     1  UNL1        0.0370
     32 C          -0.9502   -0.2477    0.5219 C.ar    1  UNL1        0.0778
     33 S           0.4964   -1.1967    0.6132 S.2     1  UNL1       -0.0869
     34 C           5.1276    0.5151    1.4961 C.3     1  UNL1        0.0137
     35 C           6.2229   -0.1729    0.7925 C.3     1  UNL1        0.0329
     36 H           5.2631   -0.6356   -3.2180 H       1  UNL1        0.0479
     37 H           6.9407   -0.2194   -3.6234 H       1  UNL1        0.0479
     38 H           6.0840    0.7754   -2.4336 H       1  UNL1        0.0479
     39 H           4.2291   -2.1861    0.6772 H       1  UNL1        0.0456
     40 H           4.3881   -2.1608   -1.1421 H       1  UNL1        0.0456
     41 H           4.1353    0.2993   -1.1205 H       1  UNL1        0.0440
     42 H           2.6882   -0.5917   -0.4890 H       1  UNL1        0.0440
     43 H           3.0940    0.4129    2.8967 H       1  UNL1        0.0481
     44 H           3.1104   -1.2355    2.0867 H       1  UNL1        0.0481
     45 H           0.9586    1.9934    2.2059 H       1  UNL1        0.0647
     46 H          -2.6108    3.9827    1.8250 H       1  UNL1        0.0625
     47 H          -4.2952    5.7835    2.0332 H       1  UNL1        0.0618
     48 H          -6.5341    5.4096    1.0694 H       1  UNL1        0.0639
     49 H          -8.0866    3.6077   -0.2905 H       1  UNL1        0.1889
     50 H          -5.3563    0.4949   -0.7145 H       1  UNL1        0.0854
     51 H          -2.0601   -2.9478    1.0785 H       1  UNL1        0.0487
     52 H          -1.3774   -3.5633   -0.4799 H       1  UNL1        0.0487
     53 H          -3.3258   -4.8541    0.1017 H       1  UNL1        0.0575
     54 H          -4.2233   -3.3821    0.6115 H       1  UNL1        0.0575
     55 H          -2.3005   -3.8845   -2.4595 H       1  UNL1        0.0575
     56 H          -3.7157   -3.1897   -3.3671 H       1  UNL1        0.0575
     57 H          -3.6287   -1.1530   -2.1981 H       1  UNL1        0.0487
     58 H          -1.8979   -1.5250   -2.7353 H       1  UNL1        0.0487
     59 H           5.3050    1.6282    1.5858 H       1  UNL1        0.0440
     60 H           5.1200    0.1660    2.5695 H       1  UNL1        0.0440
     61 H           6.7881    0.6019    0.1938 H       1  UNL1        0.0456
     62 H           7.0042   -0.5532    1.5154 H       1  UNL1        0.0456
@<TRIPOS>BOND
     1     1     2    1
     2     2     3    2
     3     2     4    2
     4     2     5    1
     5     5     6    1
     6     6     7    1
     7     7     8    1
     8     8     9    1
     9     9    10    1
    10    10    11   ar
    11    11    12   ar
    12    12    13   ar
    13    13    14   ar
    14    14    15    1
    15    15    16   ar
    16    16    17   ar
    17    17    18   ar
    18    18    19   ar
    19    19    20   ar
    20    20    21   ar
    21    21    22   ar
    22    22    23   ar
    23    14    24   ar
    24    24    25   ar
    25    25    26    1
    26    26    27    1
    27    27    28    1
    28    28    29    1
    29    29    30    1
    30    30    31    1
    31    25    32   ar
    32    32    33   ar
    33     8    34    1
    34    34    35    1
    35    35     5    1
    36    33    10   ar
    37    32    12   ar
    38    23    15   ar
    39    31    26    1
    40    23    19   ar
    41     1    36    1
    42     1    37    1
    43     1    38    1
    44     6    39    1
    45     6    40    1
    46     7    41    1
    47     7    42    1
    48     9    43    1
    49     9    44    1
    50    11    45    1
    51    16    46    1
    52    17    47    1
    53    18    48    1
    54    20    49    1
    55    22    50    1
    56    27    51    1
    57    27    52    1
    58    28    53    1
    59    28    54    1
    60    30    55    1
    61    30    56    1
    62    31    57    1
    63    31    58    1
    64    34    59    1
    65    34    60    1
    66    35    61    1
    67    35    62    1
