@<TRIPOS>MOLECULE
*****
 25 25 0 0 0
SMALL
GASTEIGER

@<TRIPOS>ATOM
      1 N           3.5144    1.4064   -0.2949 N.3     1  UNL1        0.0000
      2 C           2.1105    1.1985   -0.5218 C.3     1  UNL1        0.0000
      3 C           1.6301   -0.0419    0.1505 C.2     1  UNL1        0.0000
      4 O           2.4677   -0.7134    0.7963 O.2     1  UNL1        0.0000
      5 N           0.2778   -0.4631    0.0737 N.am    1  UNL1        0.0000
      6 C          -0.2196   -1.6677    0.7187 C.3     1  UNL1        0.0000
      7 C          -1.4609   -2.0426   -0.0373 C.3     1  UNL1        0.0000
      8 C          -1.7282   -0.9382   -1.0065 C.3     1  UNL1        0.0000
      9 C          -0.8218    0.1852   -0.6244 C.3     1  UNL1        0.0000
     10 B          -1.5804    1.2242    0.2866 B       1  UNL1        0.0000
     11 O          -2.6279    0.7249    1.1723 O.3     1  UNL1        0.0000
     12 O          -1.3074    2.6314    0.1203 O.3     1  UNL1        0.0000
     13 H           3.7363    1.4293    0.7238 H       1  UNL1        0.0000
     14 H           4.1284    0.7171   -0.7368 H       1  UNL1        0.0000
     15 H           1.5671    2.0706   -0.1016 H       1  UNL1        0.0000
     16 H           1.9553    1.1267   -1.6186 H       1  UNL1        0.0000
     17 H           0.5359   -2.4913    0.6556 H       1  UNL1        0.0000
     18 H          -0.4727   -1.4758    1.8016 H       1  UNL1        0.0000
     19 H          -2.3104   -2.2258    0.6731 H       1  UNL1        0.0000
     20 H          -1.2701   -2.9787   -0.6029 H       1  UNL1        0.0000
     21 H          -2.7942   -0.6377   -0.9404 H       1  UNL1        0.0000
     22 H          -1.5338   -1.2043   -2.0630 H       1  UNL1        0.0000
     23 H          -0.3878    0.6657   -1.5231 H       1  UNL1        0.0000
     24 H          -2.1671    0.4218    2.0149 H       1  UNL1        0.0000
     25 H          -1.2415    3.0787    0.9974 H       1  UNL1        0.0000
@<TRIPOS>BOND
     1     1     2    1
     2     2     3    1
     3     3     4    2
     4     3     5   am
     5     5     6    1
     6     6     7    1
     7     7     8    1
     8     8     9    1
     9     9    10    1
    10    10    11    1
    11    10    12    1
    12     9     5    1
    13     1    13    1
    14     1    14    1
    15     2    15    1
    16     2    16    1
    17     6    17    1
    18     6    18    1
    19     7    19    1
    20     7    20    1
    21     8    21    1
    22     8    22    1
    23     9    23    1
    24    11    24    1
    25    12    25    1
