
     RDKit          3D

 46 49  0  0  0  0  0  0  0  0999 V2000
    6.6554   -0.0369   -1.0511 C   0  0  0  0  0  0  0  0  0  0  0  0
    5.9442   -1.2735   -0.0153 S   0  0  0  0  0  6  0  0  0  0  0  0
    6.6748   -2.5610   -0.2824 O   0  0  0  0  0  0  0  0  0  0  0  0
    6.2337   -0.8877    1.4232 O   0  0  0  0  0  0  0  0  0  0  0  0
    4.2693   -1.4996   -0.2461 N   0  0  0  0  0  0  0  0  0  0  0  0
    3.2661   -0.5180   -0.0355 C   0  0  0  0  0  0  0  0  0  0  0  0
    3.3980    0.7821   -0.4877 C   0  0  0  0  0  0  0  0  0  0  0  0
    2.3964    1.6956   -0.2563 C   0  0  0  0  0  0  0  0  0  0  0  0
    1.2758    1.3182    0.4180 C   0  0  0  0  0  0  0  0  0  0  0  0
    1.0837    0.0394    0.8940 C   0  0  0  0  0  0  0  0  0  0  0  0
   -0.1169   -0.3637    1.6190 C   0  0  0  0  0  0  0  0  0  0  0  0
   -0.1161   -0.8400    2.8936 N   0  0  0  0  0  0  0  0  0  0  0  0
   -1.3714   -1.1270    3.2819 C   0  0  0  0  0  0  0  0  0  0  0  0
   -2.1538   -0.8186    2.2209 N   0  0  0  0  0  0  0  0  0  0  0  0
   -3.5934   -0.9780    2.2126 C   0  0  0  0  0  0  0  0  0  0  0  0
   -3.9671   -2.3562    1.7181 C   0  0  0  0  0  0  0  0  0  0  0  0
   -3.4432   -3.3531    2.5081 F   0  0  0  0  0  0  0  0  0  0  0  0
   -3.6408   -2.5294    0.3992 F   0  0  0  0  0  0  0  0  0  0  0  0
   -1.4260   -0.3535    1.1970 C   0  0  0  0  0  0  0  0  0  0  0  0
   -1.8986    0.0917   -0.1314 C   0  0  0  0  0  0  0  0  0  0  0  0
   -1.5370   -0.5762   -1.2824 C   0  0  0  0  0  0  0  0  0  0  0  0
   -1.9888   -0.1374   -2.4979 C   0  0  0  0  0  0  0  0  0  0  0  0
   -2.8063    0.9782   -2.5393 C   0  0  0  0  0  0  0  0  0  0  0  0
   -3.4054    1.6471   -3.5617 N   0  0  0  0  0  0  0  0  0  0  0  0
   -4.1158    2.6897   -3.1029 C   0  0  0  0  0  0  0  0  0  0  0  0
   -3.9555    2.6741   -1.7351 C   0  0  0  0  0  0  0  0  0  0  0  0
   -4.5362    3.6066   -0.8162 C   0  0  0  0  0  0  0  0  0  0  0  0
   -5.0210    4.3474   -0.0738 N   0  0  0  0  0  0  0  0  0  0  0  0
   -3.1537    1.6230   -1.4119 N   0  0  0  0  0  0  0  0  0  0  0  0
   -2.6966    1.1689   -0.2525 N   0  0  0  0  0  0  0  0  0  0  0  0
    2.0920   -0.8556    0.6536 C   0  0  0  0  0  0  0  0  0  0  0  0
    7.7415   -0.2839   -1.2420 H   0  0  0  0  0  0  0  0  0  0  0  0
    6.1641   -0.0148   -2.0579 H   0  0  0  0  0  0  0  0  0  0  0  0
    6.6407    0.9392   -0.5569 H   0  0  0  0  0  0  0  0  0  0  0  0
    3.9117   -2.4421   -0.5749 H   0  0  0  0  0  0  0  0  0  0  0  0
    4.2980    1.0568   -1.0224 H   0  0  0  0  0  0  0  0  0  0  0  0
    2.4959    2.7293   -0.6114 H   0  0  0  0  0  0  0  0  0  0  0  0
    0.5105    2.0507    0.5842 H   0  0  0  0  0  0  0  0  0  0  0  0
   -1.6972   -1.5258    4.2504 H   0  0  0  0  0  0  0  0  0  0  0  0
   -4.0143   -0.2446    1.5122 H   0  0  0  0  0  0  0  0  0  0  0  0
   -4.0261   -0.8356    3.2237 H   0  0  0  0  0  0  0  0  0  0  0  0
   -5.0736   -2.4450    1.8044 H   0  0  0  0  0  0  0  0  0  0  0  0
   -0.8959   -1.4458   -1.1932 H   0  0  0  0  0  0  0  0  0  0  0  0
   -1.7201   -0.6430   -3.3977 H   0  0  0  0  0  0  0  0  0  0  0  0
   -4.6913    3.3892   -3.6990 H   0  0  0  0  0  0  0  0  0  0  0  0
    2.0105   -1.8811    0.9998 H   0  0  0  0  0  0  0  0  0  0  0  0
  1  2  1  0
  2  3  2  0
  2  4  2  0
  2  5  1  0
  5  6  1  0
  6  7  2  0
  7  8  1  0
  8  9  2  0
  9 10  1  0
 10 11  1  0
 11 12  1  0
 12 13  2  0
 13 14  1  0
 14 15  1  0
 15 16  1  0
 16 17  1  0
 16 18  1  0
 14 19  1  0
 19 20  1  0
 20 21  1  0
 21 22  2  0
 22 23  1  0
 23 24  2  0
 24 25  1  0
 25 26  2  0
 26 27  1  0
 27 28  3  0
 26 29  1  0
 29 30  1  0
 10 31  2  0
 31  6  1  0
 19 11  2  0
 30 20  2  0
 29 23  1  0
  1 32  1  0
  1 33  1  0
  1 34  1  0
  5 35  1  0
  7 36  1  0
  8 37  1  0
  9 38  1  0
 13 39  1  0
 15 40  1  0
 15 41  1  0
 16 42  1  0
 21 43  1  0
 22 44  1  0
 25 45  1  0
 31 46  1  0
M  END
$$$$
