@<TRIPOS>MOLECULE
*****
 46 49 0 0 0
SMALL
GASTEIGER

@<TRIPOS>ATOM
      1 C           6.6554   -0.0369   -1.0511 C.3     1  UNL1        0.0736
      2 S           5.9442   -1.2735   -0.0153 S.O2    1  UNL1        0.0403
      3 O           6.6748   -2.5610   -0.2824 O.2     1  UNL1       -0.1555
      4 O           6.2337   -0.8877    1.4232 O.2     1  UNL1       -0.1555
      5 N           4.2693   -1.4996   -0.2461 N.pl3   1  UNL1       -0.2209
      6 C           3.2661   -0.5180   -0.0355 C.ar    1  UNL1        0.0483
      7 C           3.3980    0.7821   -0.4877 C.ar    1  UNL1       -0.0393
      8 C           2.3964    1.6956   -0.2563 C.ar    1  UNL1       -0.0593
      9 C           1.2758    1.3182    0.4180 C.ar    1  UNL1       -0.0524
     10 C           1.0837    0.0394    0.8940 C.ar    1  UNL1        0.0043
     11 C          -0.1169   -0.3637    1.6190 C.ar    1  UNL1        0.0983
     12 N          -0.1161   -0.8400    2.8936 N.ar    1  UNL1       -0.2351
     13 C          -1.3714   -1.1270    3.2819 C.ar    1  UNL1        0.0973
     14 N          -2.1538   -0.8186    2.2209 N.ar    1  UNL1       -0.3229
     15 C          -3.5934   -0.9780    2.2126 C.3     1  UNL1        0.0852
     16 C          -3.9671   -2.3562    1.7181 C.3     1  UNL1        0.2569
     17 F          -3.4432   -3.3531    2.5081 F       1  UNL1       -0.2073
     18 F          -3.6408   -2.5294    0.3992 F       1  UNL1       -0.2073
     19 C          -1.4260   -0.3535    1.1970 C.ar    1  UNL1        0.0968
     20 C          -1.8986    0.0917   -0.1314 C.ar    1  UNL1        0.1103
     21 C          -1.5370   -0.5762   -1.2824 C.ar    1  UNL1       -0.0290
     22 C          -1.9888   -0.1374   -2.4979 C.ar    1  UNL1       -0.0153
     23 C          -2.8063    0.9782   -2.5393 C.ar    1  UNL1        0.1555
     24 N          -3.4054    1.6471   -3.5617 N.ar    1  UNL1       -0.2333
     25 C          -4.1158    2.6897   -3.1029 C.ar    1  UNL1        0.0659
     26 C          -3.9555    2.6741   -1.7351 C.ar    1  UNL1        0.1618
     27 C          -4.5362    3.6066   -0.8162 C.1     1  UNL1        0.1208
     28 N          -5.0210    4.3474   -0.0738 N.1     1  UNL1       -0.1892
     29 N          -3.1537    1.6230   -1.4119 N.ar    1  UNL1       -0.2023
     30 N          -2.6966    1.1689   -0.2525 N.ar    1  UNL1       -0.1623
     31 C           2.0920   -0.8556    0.6536 C.ar    1  UNL1       -0.0301
     32 H           7.7415   -0.2839   -1.2420 H       1  UNL1        0.0482
     33 H           6.1641   -0.0148   -2.0579 H       1  UNL1        0.0482
     34 H           6.6407    0.9392   -0.5569 H       1  UNL1        0.0482
     35 H           3.9117   -2.4421   -0.5749 H       1  UNL1        0.1733
     36 H           4.2980    1.0568   -1.0224 H       1  UNL1        0.0636
     37 H           2.4959    2.7293   -0.6114 H       1  UNL1        0.0618
     38 H           0.5105    2.0507    0.5842 H       1  UNL1        0.0624
     39 H          -1.6972   -1.5258    4.2504 H       1  UNL1        0.1029
     40 H          -4.0143   -0.2446    1.5122 H       1  UNL1        0.0548
     41 H          -4.0261   -0.8356    3.2237 H       1  UNL1        0.0548
     42 H          -5.0736   -2.4450    1.8044 H       1  UNL1        0.1037
     43 H          -0.8959   -1.4458   -1.1932 H       1  UNL1        0.0641
     44 H          -1.7201   -0.6430   -3.3977 H       1  UNL1        0.0655
     45 H          -4.6913    3.3892   -3.6990 H       1  UNL1        0.0859
     46 H           2.0105   -1.8811    0.9998 H       1  UNL1        0.0643
@<TRIPOS>BOND
     1     1     2    1
     2     2     3    2
     3     2     4    2
     4     2     5    1
     5     5     6    1
     6     6     7   ar
     7     7     8   ar
     8     8     9   ar
     9     9    10   ar
    10    10    11    1
    11    11    12   ar
    12    12    13   ar
    13    13    14   ar
    14    14    15    1
    15    15    16    1
    16    16    17    1
    17    16    18    1
    18    14    19   ar
    19    19    20    1
    20    20    21   ar
    21    21    22   ar
    22    22    23   ar
    23    23    24   ar
    24    24    25   ar
    25    25    26   ar
    26    26    27    1
    27    27    28    3
    28    26    29   ar
    29    29    30   ar
    30    10    31   ar
    31    31     6   ar
    32    19    11   ar
    33    30    20   ar
    34    29    23   ar
    35     1    32    1
    36     1    33    1
    37     1    34    1
    38     5    35    1
    39     7    36    1
    40     8    37    1
    41     9    38    1
    42    13    39    1
    43    15    40    1
    44    15    41    1
    45    16    42    1
    46    21    43    1
    47    22    44    1
    48    25    45    1
    49    31    46    1
