@<TRIPOS>MOLECULE
*****
 76 80 0 0 0
SMALL
GASTEIGER

@<TRIPOS>ATOM
      1 C          -3.2289    1.8472   -3.3122 C.3     1  UNL1       -0.0612
      2 C          -3.4170    2.6832   -2.0535 C.3     1  UNL1       -0.0285
      3 C          -4.0638    1.8740   -0.9908 C.ar    1  UNL1       -0.0223
      4 C          -5.3589    1.9003   -0.5440 C.ar    1  UNL1        0.0090
      5 N          -5.5477    1.0034    0.4432 N.ar    1  UNL1       -0.3433
      6 C          -4.3892    0.3880    0.6481 C.ar    1  UNL1        0.0723
      7 C          -3.9825   -0.6188    1.5321 C.ar    1  UNL1        0.0753
      8 C          -2.6677   -1.0499    1.4967 C.ar    1  UNL1       -0.0249
      9 C          -1.7203   -0.5472    0.6370 C.ar    1  UNL1        0.0392
     10 C          -0.3463   -1.0403    0.6453 C.2     1  UNL1        0.2445
     11 O          -0.0454   -1.9501    1.4903 O.2     1  UNL1       -0.2702
     12 N           0.6549   -0.5763   -0.2146 N.am    1  UNL1       -0.3057
     13 C           2.0045   -1.1024   -0.1612 C.3     1  UNL1        0.0545
     14 C           2.3463   -1.7883   -1.4695 C.3     1  UNL1       -0.0067
     15 C           1.4117   -2.9059   -1.7249 C.ar    1  UNL1       -0.0455
     16 C           1.6904   -4.1912   -1.2682 C.ar    1  UNL1       -0.0585
     17 C           0.8527   -5.2567   -1.4829 C.ar    1  UNL1       -0.0615
     18 C          -0.3169   -5.0801   -2.1735 C.ar    1  UNL1       -0.0617
     19 C          -0.6238   -3.8240   -2.6389 C.ar    1  UNL1       -0.0615
     20 C           0.2211   -2.7598   -2.4199 C.ar    1  UNL1       -0.0585
     21 C           2.9343    0.0682    0.1007 C.3     1  UNL1        0.0862
     22 O           2.8255    0.9974   -0.9013 O.3     1  UNL1       -0.3887
     23 C           4.3391   -0.3520    0.3286 C.3     1  UNL1        0.0240
     24 N           5.1761    0.7192    0.7260 N.3     1  UNL1       -0.3095
     25 C           5.4745    1.7315   -0.2147 C.3     1  UNL1        0.0213
     26 C           6.4511    2.7324    0.3139 C.ar    1  UNL1       -0.0336
     27 C           5.9543    3.8214    0.9791 C.ar    1  UNL1       -0.0573
     28 C           6.8329    4.7811    1.4887 C.ar    1  UNL1       -0.0615
     29 C           8.1915    4.6044    1.3062 C.ar    1  UNL1       -0.0617
     30 C           8.6592    3.4820    0.6230 C.ar    1  UNL1       -0.0615
     31 C           7.7973    2.5343    0.1197 C.ar    1  UNL1       -0.0573
     32 C          -2.1260    0.4411   -0.2297 C.ar    1  UNL1       -0.0401
     33 C          -3.4501    0.9024   -0.2213 C.ar    1  UNL1        0.0056
     34 N          -4.7656   -1.2957    2.4933 N.pl3   1  UNL1       -0.2083
     35 C          -4.0341   -1.7716    3.6299 C.3     1  UNL1        0.0232
     36 S          -6.4648   -1.5876    2.4069 S.O2    1  UNL1        0.0470
     37 O          -6.6913   -3.0374    2.0989 O.2     1  UNL1       -0.1549
     38 O          -7.1486   -1.2649    3.6878 O.2     1  UNL1       -0.1549
     39 C          -7.1934   -0.6445    1.0855 C.3     1  UNL1        0.1028
     40 C          -6.8030    0.7907    1.1400 C.3     1  UNL1        0.0445
     41 H          -2.2280    1.3528   -3.3322 H       1  UNL1        0.0233
     42 H          -3.9777    1.0275   -3.3827 H       1  UNL1        0.0233
     43 H          -3.2538    2.4952   -4.2287 H       1  UNL1        0.0233
     44 H          -4.0015    3.6005   -2.2882 H       1  UNL1        0.0311
     45 H          -2.4143    3.0330   -1.7427 H       1  UNL1        0.0311
     46 H          -6.1202    2.5540   -0.9343 H       1  UNL1        0.0812
     47 H          -2.4073   -1.8373    2.2131 H       1  UNL1        0.0645
     48 H           0.4379    0.1651   -0.9144 H       1  UNL1        0.1494
     49 H           2.0651   -1.8620    0.6380 H       1  UNL1        0.0527
     50 H           3.3663   -2.2368   -1.3417 H       1  UNL1        0.0332
     51 H           2.3739   -1.0739   -2.3041 H       1  UNL1        0.0332
     52 H           2.6041   -4.3686   -0.7196 H       1  UNL1        0.0620
     53 H           1.0861   -6.2649   -1.1168 H       1  UNL1        0.0618
     54 H          -1.0157   -5.9056   -2.3667 H       1  UNL1        0.0618
     55 H          -1.5574   -3.6682   -3.1940 H       1  UNL1        0.0618
     56 H          -0.0541   -1.8023   -2.7976 H       1  UNL1        0.0620
     57 H           2.5505    0.5337    1.0486 H       1  UNL1        0.0624
     58 H           2.0223    1.5597   -0.7297 H       1  UNL1        0.2099
     59 H           4.7632   -0.7706   -0.6286 H       1  UNL1        0.0450
     60 H           4.4230   -1.2005    1.0516 H       1  UNL1        0.0450
     61 H           5.8808    0.5209    1.4426 H       1  UNL1        0.1223
     62 H           5.8875    1.2807   -1.1472 H       1  UNL1        0.0473
     63 H           4.5740    2.3161   -0.4810 H       1  UNL1        0.0473
     64 H           4.9033    4.0091    1.1499 H       1  UNL1        0.0621
     65 H           6.4888    5.6542    2.0185 H       1  UNL1        0.0618
     66 H           8.8993    5.3165    1.6812 H       1  UNL1        0.0618
     67 H           9.7177    3.3366    0.4758 H       1  UNL1        0.0618
     68 H           8.1944    1.6772   -0.4043 H       1  UNL1        0.0621
     69 H          -1.4607    0.8882   -0.9302 H       1  UNL1        0.0632
     70 H          -3.7030   -2.8418    3.5240 H       1  UNL1        0.0446
     71 H          -4.7352   -1.7846    4.4926 H       1  UNL1        0.0446
     72 H          -3.2011   -1.1080    3.9398 H       1  UNL1        0.0446
     73 H          -6.9598   -1.0731    0.0889 H       1  UNL1        0.0536
     74 H          -8.2952   -0.7168    1.2083 H       1  UNL1        0.0536
     75 H          -6.6966    1.0651    2.2285 H       1  UNL1        0.0508
     76 H          -7.5887    1.4714    0.7456 H       1  UNL1        0.0508
@<TRIPOS>BOND
     1     1     2    1
     2     2     3    1
     3     3     4   ar
     4     4     5   ar
     5     5     6   ar
     6     6     7   ar
     7     7     8   ar
     8     8     9   ar
     9     9    10    1
    10    10    11    2
    11    10    12   am
    12    12    13    1
    13    13    14    1
    14    14    15    1
    15    15    16   ar
    16    16    17   ar
    17    17    18   ar
    18    18    19   ar
    19    19    20   ar
    20    13    21    1
    21    21    22    1
    22    21    23    1
    23    23    24    1
    24    24    25    1
    25    25    26    1
    26    26    27   ar
    27    27    28   ar
    28    28    29   ar
    29    29    30   ar
    30    30    31   ar
    31     9    32   ar
    32    32    33   ar
    33     7    34    1
    34    34    35    1
    35    34    36    1
    36    36    37    2
    37    36    38    2
    38    36    39    1
    39    39    40    1
    40    33     3   ar
    41    40     5    1
    42    33     6   ar
    43    20    15   ar
    44    31    26   ar
    45     1    41    1
    46     1    42    1
    47     1    43    1
    48     2    44    1
    49     2    45    1
    50     4    46    1
    51     8    47    1
    52    12    48    1
    53    13    49    1
    54    14    50    1
    55    14    51    1
    56    16    52    1
    57    17    53    1
    58    18    54    1
    59    19    55    1
    60    20    56    1
    61    21    57    1
    62    22    58    1
    63    23    59    1
    64    23    60    1
    65    24    61    1
    66    25    62    1
    67    25    63    1
    68    27    64    1
    69    28    65    1
    70    29    66    1
    71    30    67    1
    72    31    68    1
    73    32    69    1
    74    35    70    1
    75    35    71    1
    76    35    72    1
    77    39    73    1
    78    39    74    1
    79    40    75    1
    80    40    76    1
