
     RDKit          3D

 76 80  0  0  0  0  0  0  0  0999 V2000
   -3.2289    1.8472   -3.3122 C   0  0  0  0  0  0  0  0  0  0  0  0
   -3.4170    2.6832   -2.0535 C   0  0  0  0  0  0  0  0  0  0  0  0
   -4.0638    1.8740   -0.9908 C   0  0  0  0  0  0  0  0  0  0  0  0
   -5.3589    1.9003   -0.5440 C   0  0  0  0  0  0  0  0  0  0  0  0
   -5.5477    1.0034    0.4432 N   0  0  0  0  0  0  0  0  0  0  0  0
   -4.3892    0.3880    0.6481 C   0  0  0  0  0  0  0  0  0  0  0  0
   -3.9825   -0.6188    1.5321 C   0  0  0  0  0  0  0  0  0  0  0  0
   -2.6677   -1.0499    1.4967 C   0  0  0  0  0  0  0  0  0  0  0  0
   -1.7203   -0.5472    0.6370 C   0  0  0  0  0  0  0  0  0  0  0  0
   -0.3463   -1.0403    0.6453 C   0  0  0  0  0  0  0  0  0  0  0  0
   -0.0454   -1.9501    1.4903 O   0  0  0  0  0  0  0  0  0  0  0  0
    0.6549   -0.5763   -0.2146 N   0  0  0  0  0  0  0  0  0  0  0  0
    2.0045   -1.1024   -0.1612 C   0  0  1  0  0  0  0  0  0  0  0  0
    2.3463   -1.7883   -1.4695 C   0  0  0  0  0  0  0  0  0  0  0  0
    1.4117   -2.9059   -1.7249 C   0  0  0  0  0  0  0  0  0  0  0  0
    1.6904   -4.1912   -1.2682 C   0  0  0  0  0  0  0  0  0  0  0  0
    0.8527   -5.2567   -1.4829 C   0  0  0  0  0  0  0  0  0  0  0  0
   -0.3169   -5.0801   -2.1735 C   0  0  0  0  0  0  0  0  0  0  0  0
   -0.6238   -3.8240   -2.6389 C   0  0  0  0  0  0  0  0  0  0  0  0
    0.2211   -2.7598   -2.4199 C   0  0  0  0  0  0  0  0  0  0  0  0
    2.9343    0.0682    0.1007 C   0  0  2  0  0  0  0  0  0  0  0  0
    2.8255    0.9974   -0.9013 O   0  0  0  0  0  0  0  0  0  0  0  0
    4.3391   -0.3520    0.3286 C   0  0  0  0  0  0  0  0  0  0  0  0
    5.1761    0.7192    0.7260 N   0  0  0  0  0  0  0  0  0  0  0  0
    5.4745    1.7315   -0.2147 C   0  0  0  0  0  0  0  0  0  0  0  0
    6.4511    2.7324    0.3139 C   0  0  0  0  0  0  0  0  0  0  0  0
    5.9543    3.8214    0.9791 C   0  0  0  0  0  0  0  0  0  0  0  0
    6.8329    4.7811    1.4887 C   0  0  0  0  0  0  0  0  0  0  0  0
    8.1915    4.6044    1.3062 C   0  0  0  0  0  0  0  0  0  0  0  0
    8.6592    3.4820    0.6230 C   0  0  0  0  0  0  0  0  0  0  0  0
    7.7973    2.5343    0.1197 C   0  0  0  0  0  0  0  0  0  0  0  0
   -2.1260    0.4411   -0.2297 C   0  0  0  0  0  0  0  0  0  0  0  0
   -3.4501    0.9024   -0.2213 C   0  0  0  0  0  0  0  0  0  0  0  0
   -4.7656   -1.2957    2.4933 N   0  0  0  0  0  0  0  0  0  0  0  0
   -4.0341   -1.7716    3.6299 C   0  0  0  0  0  0  0  0  0  0  0  0
   -6.4648   -1.5876    2.4069 S   0  0  0  0  0  6  0  0  0  0  0  0
   -6.6913   -3.0374    2.0989 O   0  0  0  0  0  0  0  0  0  0  0  0
   -7.1486   -1.2649    3.6878 O   0  0  0  0  0  0  0  0  0  0  0  0
   -7.1934   -0.6445    1.0855 C   0  0  0  0  0  0  0  0  0  0  0  0
   -6.8030    0.7907    1.1400 C   0  0  0  0  0  0  0  0  0  0  0  0
   -2.2280    1.3528   -3.3322 H   0  0  0  0  0  0  0  0  0  0  0  0
   -3.9777    1.0275   -3.3827 H   0  0  0  0  0  0  0  0  0  0  0  0
   -3.2538    2.4952   -4.2287 H   0  0  0  0  0  0  0  0  0  0  0  0
   -4.0015    3.6005   -2.2882 H   0  0  0  0  0  0  0  0  0  0  0  0
   -2.4143    3.0330   -1.7427 H   0  0  0  0  0  0  0  0  0  0  0  0
   -6.1202    2.5540   -0.9343 H   0  0  0  0  0  0  0  0  0  0  0  0
   -2.4073   -1.8373    2.2131 H   0  0  0  0  0  0  0  0  0  0  0  0
    0.4379    0.1651   -0.9144 H   0  0  0  0  0  0  0  0  0  0  0  0
    2.0651   -1.8620    0.6380 H   0  0  0  0  0  0  0  0  0  0  0  0
    3.3663   -2.2368   -1.3417 H   0  0  0  0  0  0  0  0  0  0  0  0
    2.3739   -1.0739   -2.3041 H   0  0  0  0  0  0  0  0  0  0  0  0
    2.6041   -4.3686   -0.7196 H   0  0  0  0  0  0  0  0  0  0  0  0
    1.0861   -6.2649   -1.1168 H   0  0  0  0  0  0  0  0  0  0  0  0
   -1.0157   -5.9056   -2.3667 H   0  0  0  0  0  0  0  0  0  0  0  0
   -1.5574   -3.6682   -3.1940 H   0  0  0  0  0  0  0  0  0  0  0  0
   -0.0541   -1.8023   -2.7976 H   0  0  0  0  0  0  0  0  0  0  0  0
    2.5505    0.5337    1.0486 H   0  0  0  0  0  0  0  0  0  0  0  0
    2.0223    1.5597   -0.7297 H   0  0  0  0  0  0  0  0  0  0  0  0
    4.7632   -0.7706   -0.6286 H   0  0  0  0  0  0  0  0  0  0  0  0
    4.4230   -1.2005    1.0516 H   0  0  0  0  0  0  0  0  0  0  0  0
    5.8808    0.5209    1.4426 H   0  0  0  0  0  0  0  0  0  0  0  0
    5.8875    1.2807   -1.1472 H   0  0  0  0  0  0  0  0  0  0  0  0
    4.5740    2.3161   -0.4810 H   0  0  0  0  0  0  0  0  0  0  0  0
    4.9033    4.0091    1.1499 H   0  0  0  0  0  0  0  0  0  0  0  0
    6.4888    5.6542    2.0185 H   0  0  0  0  0  0  0  0  0  0  0  0
    8.8993    5.3165    1.6812 H   0  0  0  0  0  0  0  0  0  0  0  0
    9.7177    3.3366    0.4758 H   0  0  0  0  0  0  0  0  0  0  0  0
    8.1944    1.6772   -0.4043 H   0  0  0  0  0  0  0  0  0  0  0  0
   -1.4607    0.8882   -0.9302 H   0  0  0  0  0  0  0  0  0  0  0  0
   -3.7030   -2.8418    3.5240 H   0  0  0  0  0  0  0  0  0  0  0  0
   -4.7352   -1.7846    4.4926 H   0  0  0  0  0  0  0  0  0  0  0  0
   -3.2011   -1.1080    3.9398 H   0  0  0  0  0  0  0  0  0  0  0  0
   -6.9598   -1.0731    0.0889 H   0  0  0  0  0  0  0  0  0  0  0  0
   -8.2952   -0.7168    1.2083 H   0  0  0  0  0  0  0  0  0  0  0  0
   -6.6966    1.0651    2.2285 H   0  0  0  0  0  0  0  0  0  0  0  0
   -7.5887    1.4714    0.7456 H   0  0  0  0  0  0  0  0  0  0  0  0
  1  2  1  0
  2  3  1  0
  3  4  2  0
  4  5  1  0
  5  6  1  0
  6  7  2  0
  7  8  1  0
  8  9  2  0
  9 10  1  0
 10 11  2  0
 10 12  1  0
 12 13  1  0
 13 14  1  0
 14 15  1  0
 15 16  2  0
 16 17  1  0
 17 18  2  0
 18 19  1  0
 19 20  2  0
 13 21  1  0
 21 22  1  0
 21 23  1  0
 23 24  1  0
 24 25  1  0
 25 26  1  0
 26 27  2  0
 27 28  1  0
 28 29  2  0
 29 30  1  0
 30 31  2  0
  9 32  1  0
 32 33  2  0
  7 34  1  0
 34 35  1  0
 34 36  1  0
 36 37  2  0
 36 38  2  0
 36 39  1  0
 39 40  1  0
 33  3  1  0
 40  5  1  0
 33  6  1  0
 20 15  1  0
 31 26  1  0
  1 41  1  0
  1 42  1  0
  1 43  1  0
  2 44  1  0
  2 45  1  0
  4 46  1  0
  8 47  1  0
 12 48  1  0
 13 49  1  1
 14 50  1  0
 14 51  1  0
 16 52  1  0
 17 53  1  0
 18 54  1  0
 19 55  1  0
 20 56  1  0
 21 57  1  1
 22 58  1  0
 23 59  1  0
 23 60  1  0
 24 61  1  0
 25 62  1  0
 25 63  1  0
 27 64  1  0
 28 65  1  0
 29 66  1  0
 30 67  1  0
 31 68  1  0
 32 69  1  0
 35 70  1  0
 35 71  1  0
 35 72  1  0
 39 73  1  0
 39 74  1  0
 40 75  1  0
 40 76  1  0
M  END
$$$$
