@<TRIPOS>MOLECULE
*****
 32 32 0 0 0
SMALL
GASTEIGER

@<TRIPOS>ATOM
      1 C          -4.1813   -0.6969    0.0247 C.3     1  UNL1       -0.0526
      2 C          -2.8321   -0.9775    0.6380 C.3     1  UNL1       -0.0067
      3 N          -1.7397   -0.8069   -0.2684 N.3     1  UNL1       -0.3135
      4 C          -1.4819    0.5207   -0.6845 C.3     1  UNL1        0.0088
      5 C          -1.1567    1.4404    0.4609 C.3     1  UNL1       -0.0494
      6 C          -0.3151    0.5109   -1.6487 C.3     1  UNL1       -0.0125
      7 C           0.9310   -0.0259   -1.0701 C.ar    1  UNL1       -0.0454
      8 C           1.2816   -1.3587   -1.1141 C.ar    1  UNL1       -0.0585
      9 C           2.4498   -1.8783   -0.5750 C.ar    1  UNL1       -0.0610
     10 C           3.3196   -1.0066    0.0463 C.ar    1  UNL1       -0.0501
     11 C           3.0349    0.3282    0.1263 C.ar    1  UNL1        0.0551
     12 C           1.8465    0.7891   -0.4339 C.ar    1  UNL1       -0.0469
     13 C           3.9846    1.2682    0.8029 C.3     1  UNL1        0.4174
     14 F           5.2543    0.7619    0.8179 F       1  UNL1       -0.1659
     15 F           3.5337    1.5716    2.0757 F       1  UNL1       -0.1659
     16 F           3.9634    2.4493    0.0505 F       1  UNL1       -0.1659
     17 H          -4.3103    0.3416   -0.3238 H       1  UNL1        0.0242
     18 H          -4.4181   -1.4451   -0.7608 H       1  UNL1        0.0242
     19 H          -4.9402   -0.8451    0.8293 H       1  UNL1        0.0242
     20 H          -2.8506   -2.0452    0.9430 H       1  UNL1        0.0421
     21 H          -2.6917   -0.4025    1.5747 H       1  UNL1        0.0421
     22 H          -1.6269   -1.5422   -0.9654 H       1  UNL1        0.1222
     23 H          -2.3213    0.9884   -1.2596 H       1  UNL1        0.0461
     24 H          -1.9744    1.4733    1.2148 H       1  UNL1        0.0245
     25 H          -0.2099    1.1821    0.9695 H       1  UNL1        0.0245
     26 H          -1.0131    2.4826    0.0558 H       1  UNL1        0.0245
     27 H          -0.1533    1.5380   -2.0583 H       1  UNL1        0.0328
     28 H          -0.6379   -0.0991   -2.5339 H       1  UNL1        0.0328
     29 H           0.6255   -2.0705   -1.5932 H       1  UNL1        0.0620
     30 H           2.7130   -2.9195   -0.6134 H       1  UNL1        0.0618
     31 H           4.2301   -1.3843    0.4719 H       1  UNL1        0.0623
     32 H           1.6865    1.8582   -0.3339 H       1  UNL1        0.0626
@<TRIPOS>BOND
     1     1     2    1
     2     2     3    1
     3     3     4    1
     4     4     5    1
     5     4     6    1
     6     6     7    1
     7     7     8   ar
     8     8     9   ar
     9     9    10   ar
    10    10    11   ar
    11    11    12   ar
    12    11    13    1
    13    13    14    1
    14    13    15    1
    15    13    16    1
    16    12     7   ar
    17     1    17    1
    18     1    18    1
    19     1    19    1
    20     2    20    1
    21     2    21    1
    22     3    22    1
    23     4    23    1
    24     5    24    1
    25     5    25    1
    26     5    26    1
    27     6    27    1
    28     6    28    1
    29     8    29    1
    30     9    30    1
    31    10    31    1
    32    12    32    1
