
     RDKit          3D

 32 32  0  0  0  0  0  0  0  0999 V2000
   -4.1813   -0.6969    0.0247 C   0  0  0  0  0  0  0  0  0  0  0  0
   -2.8321   -0.9775    0.6380 C   0  0  0  0  0  0  0  0  0  0  0  0
   -1.7397   -0.8069   -0.2684 N   0  0  0  0  0  0  0  0  0  0  0  0
   -1.4819    0.5207   -0.6845 C   0  0  1  0  0  0  0  0  0  0  0  0
   -1.1567    1.4404    0.4609 C   0  0  0  0  0  0  0  0  0  0  0  0
   -0.3151    0.5109   -1.6487 C   0  0  0  0  0  0  0  0  0  0  0  0
    0.9310   -0.0259   -1.0701 C   0  0  0  0  0  0  0  0  0  0  0  0
    1.2816   -1.3587   -1.1141 C   0  0  0  0  0  0  0  0  0  0  0  0
    2.4498   -1.8783   -0.5750 C   0  0  0  0  0  0  0  0  0  0  0  0
    3.3196   -1.0066    0.0463 C   0  0  0  0  0  0  0  0  0  0  0  0
    3.0349    0.3282    0.1263 C   0  0  0  0  0  0  0  0  0  0  0  0
    1.8465    0.7891   -0.4339 C   0  0  0  0  0  0  0  0  0  0  0  0
    3.9846    1.2682    0.8029 C   0  0  0  0  0  0  0  0  0  0  0  0
    5.2543    0.7619    0.8179 F   0  0  0  0  0  0  0  0  0  0  0  0
    3.5337    1.5716    2.0757 F   0  0  0  0  0  0  0  0  0  0  0  0
    3.9634    2.4493    0.0505 F   0  0  0  0  0  0  0  0  0  0  0  0
   -4.3103    0.3416   -0.3238 H   0  0  0  0  0  0  0  0  0  0  0  0
   -4.4181   -1.4451   -0.7608 H   0  0  0  0  0  0  0  0  0  0  0  0
   -4.9402   -0.8451    0.8293 H   0  0  0  0  0  0  0  0  0  0  0  0
   -2.8506   -2.0452    0.9430 H   0  0  0  0  0  0  0  0  0  0  0  0
   -2.6917   -0.4025    1.5747 H   0  0  0  0  0  0  0  0  0  0  0  0
   -1.6269   -1.5422   -0.9654 H   0  0  0  0  0  0  0  0  0  0  0  0
   -2.3213    0.9884   -1.2596 H   0  0  0  0  0  0  0  0  0  0  0  0
   -1.9744    1.4733    1.2148 H   0  0  0  0  0  0  0  0  0  0  0  0
   -0.2099    1.1821    0.9695 H   0  0  0  0  0  0  0  0  0  0  0  0
   -1.0131    2.4826    0.0558 H   0  0  0  0  0  0  0  0  0  0  0  0
   -0.1533    1.5380   -2.0583 H   0  0  0  0  0  0  0  0  0  0  0  0
   -0.6379   -0.0991   -2.5339 H   0  0  0  0  0  0  0  0  0  0  0  0
    0.6255   -2.0705   -1.5932 H   0  0  0  0  0  0  0  0  0  0  0  0
    2.7130   -2.9195   -0.6134 H   0  0  0  0  0  0  0  0  0  0  0  0
    4.2301   -1.3843    0.4719 H   0  0  0  0  0  0  0  0  0  0  0  0
    1.6865    1.8582   -0.3339 H   0  0  0  0  0  0  0  0  0  0  0  0
  1  2  1  0
  2  3  1  0
  3  4  1  0
  4  5  1  0
  4  6  1  0
  6  7  1  0
  7  8  2  0
  8  9  1  0
  9 10  2  0
 10 11  1  0
 11 12  2  0
 11 13  1  0
 13 14  1  0
 13 15  1  0
 13 16  1  0
 12  7  1  0
  1 17  1  0
  1 18  1  0
  1 19  1  0
  2 20  1  0
  2 21  1  0
  3 22  1  0
  4 23  1  6
  5 24  1  0
  5 25  1  0
  5 26  1  0
  6 27  1  0
  6 28  1  0
  8 29  1  0
  9 30  1  0
 10 31  1  0
 12 32  1  0
M  END
$$$$
