@<TRIPOS>MOLECULE
*****
 59 61 0 0 0
SMALL
GASTEIGER

@<TRIPOS>ATOM
      1 C           1.0283    0.8516    1.1586 C.3     1  UNL1        0.0862
      2 C           1.5801    0.0619    2.3341 C.3     1  UNL1       -0.0249
      3 C           1.6431   -1.4187    1.9354 C.3     1  UNL1       -0.0241
      4 C           3.0315   -1.6536    1.4378 C.ar    1  UNL1       -0.0259
      5 C           3.6146   -2.7296    2.0309 C.ar    1  UNL1       -0.0568
      6 C           4.9112   -3.0754    1.6698 C.ar    1  UNL1       -0.0614
      7 C           5.5524   -2.3073    0.7203 C.ar    1  UNL1       -0.0600
      8 C           4.9293   -1.2194    0.1373 C.ar    1  UNL1       -0.0400
      9 C           3.6424   -0.8634    0.4853 C.ar    1  UNL1        0.0401
     10 N           3.2602    0.2828   -0.2658 N.am    1  UNL1       -0.2592
     11 C           4.0397    0.7407   -1.3717 C.3     1  UNL1        0.1168
     12 C           5.0974    1.7284   -1.0125 C.2     1  UNL1        0.3227
     13 O           5.8790    2.2053   -2.0334 O.3     1  UNL1       -0.4795
     14 O           5.1805    2.0426    0.2192 O.2     1  UNL1       -0.2492
     15 C           2.0580    0.9954    0.0996 C.2     1  UNL1        0.2373
     16 O           1.8059    1.9907   -0.6604 O.2     1  UNL1       -0.2735
     17 N          -0.0886    0.0671    0.6711 N.3     1  UNL1       -0.2935
     18 C          -0.7536    0.6397   -0.4434 C.3     1  UNL1        0.1067
     19 C          -1.8738   -0.2815   -0.8647 C.3     1  UNL1       -0.0232
     20 C          -2.9076   -0.5393    0.1645 C.3     1  UNL1       -0.0258
     21 C          -3.9960   -1.4435   -0.2867 C.ar    1  UNL1       -0.0473
     22 C          -3.9817   -2.8215   -0.1565 C.ar    1  UNL1       -0.0586
     23 C          -5.0254   -3.6107   -0.5961 C.ar    1  UNL1       -0.0615
     24 C          -6.1344   -3.0025   -1.1925 C.ar    1  UNL1       -0.0617
     25 C          -6.1749   -1.6119   -1.3366 C.ar    1  UNL1       -0.0615
     26 C          -5.1129   -0.8622   -0.8846 C.ar    1  UNL1       -0.0586
     27 C          -1.1958    2.0372   -0.2741 C.2     1  UNL1        0.3243
     28 O          -1.1516    2.9182    0.6234 O.2     1  UNL1       -0.2491
     29 O          -1.8417    2.5553   -1.3904 O.3     1  UNL1       -0.4638
     30 C          -2.3464    3.8602   -1.4566 C.3     1  UNL1        0.0897
     31 C          -3.3918    4.1740   -0.4227 C.3     1  UNL1       -0.0306
     32 H           0.7332    1.8589    1.5150 H       1  UNL1        0.0557
     33 H           2.5856    0.4371    2.5560 H       1  UNL1        0.0288
     34 H           0.8890    0.1375    3.1841 H       1  UNL1        0.0288
     35 H           1.4212   -2.0969    2.7577 H       1  UNL1        0.0314
     36 H           0.9569   -1.5791    1.0581 H       1  UNL1        0.0314
     37 H           3.0997   -3.3245    2.7753 H       1  UNL1        0.0621
     38 H           5.4420   -3.9143    2.0943 H       1  UNL1        0.0618
     39 H           6.5623   -2.5710    0.4343 H       1  UNL1        0.0618
     40 H           5.4787   -0.6531   -0.6006 H       1  UNL1        0.0636
     41 H           4.3288    0.0025   -2.1227 H       1  UNL1        0.0584
     42 H           3.3140    1.3910   -1.9553 H       1  UNL1        0.0584
     43 H           6.6332    2.8408   -1.7720 H       1  UNL1        0.2951
     44 H          -0.7647   -0.0765    1.4763 H       1  UNL1        0.1234
     45 H          -0.0287    0.6304   -1.2962 H       1  UNL1        0.0576
     46 H          -2.2957    0.0249   -1.8486 H       1  UNL1        0.0289
     47 H          -1.3439   -1.2532   -1.0978 H       1  UNL1        0.0289
     48 H          -3.3781    0.3897    0.5273 H       1  UNL1        0.0314
     49 H          -2.4495   -1.0978    1.0325 H       1  UNL1        0.0314
     50 H          -3.1089   -3.2352    0.3071 H       1  UNL1        0.0620
     51 H          -4.9858   -4.6907   -0.4803 H       1  UNL1        0.0618
     52 H          -6.9669   -3.5684   -1.5488 H       1  UNL1        0.0618
     53 H          -7.0029   -1.0820   -1.7887 H       1  UNL1        0.0618
     54 H          -5.1478    0.2246   -0.9987 H       1  UNL1        0.0620
     55 H          -1.4831    4.5567   -1.2848 H       1  UNL1        0.0694
     56 H          -2.7277    4.0151   -2.4868 H       1  UNL1        0.0694
     57 H          -2.9407    4.4208    0.5505 H       1  UNL1        0.0262
     58 H          -3.9207    5.1029   -0.7808 H       1  UNL1        0.0262
     59 H          -4.1770    3.3991   -0.3585 H       1  UNL1        0.0262
@<TRIPOS>BOND
     1     1     2    1
     2     2     3    1
     3     3     4    1
     4     4     5   ar
     5     5     6   ar
     6     6     7   ar
     7     7     8   ar
     8     8     9   ar
     9     9    10    1
    10    10    11    1
    11    11    12    1
    12    12    13    1
    13    12    14    2
    14    10    15   am
    15    15    16    2
    16     1    17    1
    17    17    18    1
    18    18    19    1
    19    19    20    1
    20    20    21    1
    21    21    22   ar
    22    22    23   ar
    23    23    24   ar
    24    24    25   ar
    25    25    26   ar
    26    18    27    1
    27    27    28    2
    28    27    29    1
    29    29    30    1
    30    30    31    1
    31    15     1    1
    32    26    21   ar
    33     9     4   ar
    34     1    32    1
    35     2    33    1
    36     2    34    1
    37     3    35    1
    38     3    36    1
    39     5    37    1
    40     6    38    1
    41     7    39    1
    42     8    40    1
    43    11    41    1
    44    11    42    1
    45    13    43    1
    46    17    44    1
    47    18    45    1
    48    19    46    1
    49    19    47    1
    50    20    48    1
    51    20    49    1
    52    22    50    1
    53    23    51    1
    54    24    52    1
    55    25    53    1
    56    26    54    1
    57    30    55    1
    58    30    56    1
    59    31    57    1
    60    31    58    1
    61    31    59    1
