
     RDKit          3D

 59 61  0  0  0  0  0  0  0  0999 V2000
    1.0283    0.8516    1.1586 C   0  0  1  0  0  0  0  0  0  0  0  0
    1.5801    0.0619    2.3341 C   0  0  0  0  0  0  0  0  0  0  0  0
    1.6431   -1.4187    1.9354 C   0  0  0  0  0  0  0  0  0  0  0  0
    3.0315   -1.6536    1.4378 C   0  0  0  0  0  0  0  0  0  0  0  0
    3.6146   -2.7296    2.0309 C   0  0  0  0  0  0  0  0  0  0  0  0
    4.9112   -3.0754    1.6698 C   0  0  0  0  0  0  0  0  0  0  0  0
    5.5524   -2.3073    0.7203 C   0  0  0  0  0  0  0  0  0  0  0  0
    4.9293   -1.2194    0.1373 C   0  0  0  0  0  0  0  0  0  0  0  0
    3.6424   -0.8634    0.4853 C   0  0  0  0  0  0  0  0  0  0  0  0
    3.2602    0.2828   -0.2658 N   0  0  0  0  0  0  0  0  0  0  0  0
    4.0397    0.7407   -1.3717 C   0  0  0  0  0  0  0  0  0  0  0  0
    5.0974    1.7284   -1.0125 C   0  0  0  0  0  0  0  0  0  0  0  0
    5.8790    2.2053   -2.0334 O   0  0  0  0  0  0  0  0  0  0  0  0
    5.1805    2.0426    0.2192 O   0  0  0  0  0  0  0  0  0  0  0  0
    2.0580    0.9954    0.0996 C   0  0  0  0  0  0  0  0  0  0  0  0
    1.8059    1.9907   -0.6604 O   0  0  0  0  0  0  0  0  0  0  0  0
   -0.0886    0.0671    0.6711 N   0  0  0  0  0  0  0  0  0  0  0  0
   -0.7536    0.6397   -0.4434 C   0  0  1  0  0  0  0  0  0  0  0  0
   -1.8738   -0.2815   -0.8647 C   0  0  0  0  0  0  0  0  0  0  0  0
   -2.9076   -0.5393    0.1645 C   0  0  0  0  0  0  0  0  0  0  0  0
   -3.9960   -1.4435   -0.2867 C   0  0  0  0  0  0  0  0  0  0  0  0
   -3.9817   -2.8215   -0.1565 C   0  0  0  0  0  0  0  0  0  0  0  0
   -5.0254   -3.6107   -0.5961 C   0  0  0  0  0  0  0  0  0  0  0  0
   -6.1344   -3.0025   -1.1925 C   0  0  0  0  0  0  0  0  0  0  0  0
   -6.1749   -1.6119   -1.3366 C   0  0  0  0  0  0  0  0  0  0  0  0
   -5.1129   -0.8622   -0.8846 C   0  0  0  0  0  0  0  0  0  0  0  0
   -1.1958    2.0372   -0.2741 C   0  0  0  0  0  0  0  0  0  0  0  0
   -1.1516    2.9182    0.6234 O   0  0  0  0  0  0  0  0  0  0  0  0
   -1.8417    2.5553   -1.3904 O   0  0  0  0  0  0  0  0  0  0  0  0
   -2.3464    3.8602   -1.4566 C   0  0  0  0  0  0  0  0  0  0  0  0
   -3.3918    4.1740   -0.4227 C   0  0  0  0  0  0  0  0  0  0  0  0
    0.7332    1.8589    1.5150 H   0  0  0  0  0  0  0  0  0  0  0  0
    2.5856    0.4371    2.5560 H   0  0  0  0  0  0  0  0  0  0  0  0
    0.8890    0.1375    3.1841 H   0  0  0  0  0  0  0  0  0  0  0  0
    1.4212   -2.0969    2.7577 H   0  0  0  0  0  0  0  0  0  0  0  0
    0.9569   -1.5791    1.0581 H   0  0  0  0  0  0  0  0  0  0  0  0
    3.0997   -3.3245    2.7753 H   0  0  0  0  0  0  0  0  0  0  0  0
    5.4420   -3.9143    2.0943 H   0  0  0  0  0  0  0  0  0  0  0  0
    6.5623   -2.5710    0.4343 H   0  0  0  0  0  0  0  0  0  0  0  0
    5.4787   -0.6531   -0.6006 H   0  0  0  0  0  0  0  0  0  0  0  0
    4.3288    0.0025   -2.1227 H   0  0  0  0  0  0  0  0  0  0  0  0
    3.3140    1.3910   -1.9553 H   0  0  0  0  0  0  0  0  0  0  0  0
    6.6332    2.8408   -1.7720 H   0  0  0  0  0  0  0  0  0  0  0  0
   -0.7647   -0.0765    1.4763 H   0  0  0  0  0  0  0  0  0  0  0  0
   -0.0287    0.6304   -1.2962 H   0  0  0  0  0  0  0  0  0  0  0  0
   -2.2957    0.0249   -1.8486 H   0  0  0  0  0  0  0  0  0  0  0  0
   -1.3439   -1.2532   -1.0978 H   0  0  0  0  0  0  0  0  0  0  0  0
   -3.3781    0.3897    0.5273 H   0  0  0  0  0  0  0  0  0  0  0  0
   -2.4495   -1.0978    1.0325 H   0  0  0  0  0  0  0  0  0  0  0  0
   -3.1089   -3.2352    0.3071 H   0  0  0  0  0  0  0  0  0  0  0  0
   -4.9858   -4.6907   -0.4803 H   0  0  0  0  0  0  0  0  0  0  0  0
   -6.9669   -3.5684   -1.5488 H   0  0  0  0  0  0  0  0  0  0  0  0
   -7.0029   -1.0820   -1.7887 H   0  0  0  0  0  0  0  0  0  0  0  0
   -5.1478    0.2246   -0.9987 H   0  0  0  0  0  0  0  0  0  0  0  0
   -1.4831    4.5567   -1.2848 H   0  0  0  0  0  0  0  0  0  0  0  0
   -2.7277    4.0151   -2.4868 H   0  0  0  0  0  0  0  0  0  0  0  0
   -2.9407    4.4208    0.5505 H   0  0  0  0  0  0  0  0  0  0  0  0
   -3.9207    5.1029   -0.7808 H   0  0  0  0  0  0  0  0  0  0  0  0
   -4.1770    3.3991   -0.3585 H   0  0  0  0  0  0  0  0  0  0  0  0
  1  2  1  0
  2  3  1  0
  3  4  1  0
  4  5  2  0
  5  6  1  0
  6  7  2  0
  7  8  1  0
  8  9  2  0
  9 10  1  0
 10 11  1  0
 11 12  1  0
 12 13  1  0
 12 14  2  0
 10 15  1  0
 15 16  2  0
  1 17  1  0
 17 18  1  0
 18 19  1  0
 19 20  1  0
 20 21  1  0
 21 22  2  0
 22 23  1  0
 23 24  2  0
 24 25  1  0
 25 26  2  0
 18 27  1  0
 27 28  2  0
 27 29  1  0
 29 30  1  0
 30 31  1  0
 15  1  1  0
 26 21  1  0
  9  4  1  0
  1 32  1  1
  2 33  1  0
  2 34  1  0
  3 35  1  0
  3 36  1  0
  5 37  1  0
  6 38  1  0
  7 39  1  0
  8 40  1  0
 11 41  1  0
 11 42  1  0
 13 43  1  0
 17 44  1  0
 18 45  1  6
 19 46  1  0
 19 47  1  0
 20 48  1  0
 20 49  1  0
 22 50  1  0
 23 51  1  0
 24 52  1  0
 25 53  1  0
 26 54  1  0
 30 55  1  0
 30 56  1  0
 31 57  1  0
 31 58  1  0
 31 59  1  0
M  END
$$$$
