@<TRIPOS>MOLECULE
*****
 42 44 0 0 0
SMALL
GASTEIGER

@<TRIPOS>ATOM
      1 C           6.0308    3.0547   -0.1141 C.3     1  UNL1        0.0788
      2 O           5.7595    1.7471   -0.5727 O.3     1  UNL1       -0.4950
      3 C           4.6271    1.1059   -0.0798 C.ar    1  UNL1        0.1222
      4 C           3.8115    1.7493    0.8274 C.ar    1  UNL1       -0.0178
      5 C           2.7024    1.0757    1.2870 C.ar    1  UNL1       -0.0308
      6 C           2.3667   -0.2013    0.8897 C.ar    1  UNL1        0.0902
      7 N           1.3615   -1.0511    1.1867 N.ar    1  UNL1       -0.2220
      8 C           1.5457   -2.2044    0.4781 C.ar    1  UNL1        0.1676
      9 S           0.5210   -3.6674    0.4837 S.3     1  UNL1       -0.0832
     10 C          -0.7488   -3.5109   -0.8022 C.3     1  UNL1        0.0262
     11 C          -1.7016   -2.4219   -0.4976 C.ar    1  UNL1       -0.0371
     12 C          -2.8574   -2.6420    0.2371 C.ar    1  UNL1       -0.0575
     13 C          -3.6870   -1.5781    0.4759 C.ar    1  UNL1       -0.0580
     14 C          -3.3924   -0.3167    0.0039 C.ar    1  UNL1       -0.0448
     15 C          -4.3441    0.7852    0.3067 C.3     1  UNL1       -0.0215
     16 C          -4.8415    1.4634   -0.9402 C.3     1  UNL1       -0.0587
     17 C          -3.6403    1.8311    1.1764 C.3     1  UNL1       -0.0587
     18 C          -2.2367   -0.0835   -0.7340 C.ar    1  UNL1       -0.0580
     19 C          -1.4117   -1.1569   -0.9677 C.ar    1  UNL1       -0.0575
     20 N           2.6643   -2.0463   -0.2461 N.ar    1  UNL1       -0.3328
     21 C           3.2041   -0.8155   -0.0185 C.ar    1  UNL1        0.0703
     22 C           4.3252   -0.1903   -0.5109 C.ar    1  UNL1        0.0055
     23 H           6.9492    3.4423   -0.5556 H       1  UNL1        0.0660
     24 H           6.1114    2.9815    1.0004 H       1  UNL1        0.0660
     25 H           5.1467    3.6776   -0.3700 H       1  UNL1        0.0660
     26 H           4.0367    2.7653    1.1736 H       1  UNL1        0.0655
     27 H           2.0438    1.5559    1.9998 H       1  UNL1        0.0641
     28 H          -1.3186   -4.4539   -0.9229 H       1  UNL1        0.0429
     29 H          -0.3015   -3.2973   -1.7951 H       1  UNL1        0.0429
     30 H          -3.0428   -3.6519    0.5853 H       1  UNL1        0.0621
     31 H          -4.6027   -1.7607    1.0603 H       1  UNL1        0.0620
     32 H          -5.1823    0.3768    0.8796 H       1  UNL1        0.0343
     33 H          -4.7519    2.5689   -0.8442 H       1  UNL1        0.0235
     34 H          -5.9157    1.2363   -1.0629 H       1  UNL1        0.0235
     35 H          -4.3347    1.0630   -1.8397 H       1  UNL1        0.0235
     36 H          -4.4383    2.5177    1.5189 H       1  UNL1        0.0235
     37 H          -2.8501    2.3396    0.5895 H       1  UNL1        0.0235
     38 H          -3.1483    1.2856    2.0161 H       1  UNL1        0.0235
     39 H          -1.9949    0.8857   -1.1059 H       1  UNL1        0.0620
     40 H          -0.4910   -1.0044   -1.5480 H       1  UNL1        0.0621
     41 H           3.0754   -2.7518   -0.8940 H       1  UNL1        0.1679
     42 H           4.9513   -0.7018   -1.2157 H       1  UNL1        0.0675
@<TRIPOS>BOND
     1     1     2    1
     2     2     3    1
     3     3     4   ar
     4     4     5   ar
     5     5     6   ar
     6     6     7   ar
     7     7     8   ar
     8     8     9    1
     9     9    10    1
    10    10    11    1
    11    11    12   ar
    12    12    13   ar
    13    13    14   ar
    14    14    15    1
    15    15    16    1
    16    15    17    1
    17    14    18   ar
    18    18    19   ar
    19     8    20   ar
    20    20    21   ar
    21    21    22   ar
    22    22     3   ar
    23    21     6   ar
    24    19    11   ar
    25     1    23    1
    26     1    24    1
    27     1    25    1
    28     4    26    1
    29     5    27    1
    30    10    28    1
    31    10    29    1
    32    12    30    1
    33    13    31    1
    34    15    32    1
    35    16    33    1
    36    16    34    1
    37    16    35    1
    38    17    36    1
    39    17    37    1
    40    17    38    1
    41    18    39    1
    42    19    40    1
    43    20    41    1
    44    22    42    1
