@<TRIPOS>MOLECULE
*****
 52 57 0 0 0
SMALL
GASTEIGER

@<TRIPOS>ATOM
      1 C           0.6729    3.8326   -1.9093 C.ar    1  UNL1        0.0465
      2 C           1.7935    3.2275   -2.4308 C.ar    1  UNL1        0.0294
      3 N           2.1980    2.2452   -1.5813 N.ar    1  UNL1       -0.3018
      4 C           3.2235    1.3470   -1.6150 C.ar    1  UNL1        0.0373
      5 C           3.4012    0.4300   -0.6083 C.ar    1  UNL1        0.0897
      6 C           4.4908   -0.5477   -0.6470 C.ar    1  UNL1        0.0039
      7 C           5.3941   -0.5753   -1.6903 C.ar    1  UNL1       -0.0518
      8 C           6.4239   -1.5368   -1.7156 C.ar    1  UNL1       -0.0505
      9 C           6.5567   -2.4525   -0.7276 C.ar    1  UNL1        0.0195
     10 C           7.4447   -3.4876   -0.5044 C.ar    1  UNL1        0.0569
     11 N           7.0720   -4.0601    0.6514 N.ar    1  UNL1       -0.1812
     12 N           6.0167   -3.4436    1.1470 N.ar    1  UNL1       -0.2769
     13 C           5.6648   -2.4420    0.3259 C.ar    1  UNL1        0.0663
     14 C           4.6591   -1.4969    0.3423 C.ar    1  UNL1       -0.0271
     15 N           2.5103    0.4673    0.4101 N.ar    1  UNL1       -0.2267
     16 C           1.4969    1.3359    0.4691 C.ar    1  UNL1        0.1669
     17 N           0.5346    1.3990    1.5257 N.pl3   1  UNL1       -0.2965
     18 C          -0.8022    0.9591    1.3337 C.ar    1  UNL1        0.0326
     19 C          -1.7851    1.3267    2.2467 C.ar    1  UNL1       -0.0388
     20 C          -3.0946    0.9165    2.0413 C.ar    1  UNL1       -0.0389
     21 C          -3.4940    0.1495    0.9669 C.ar    1  UNL1        0.0299
     22 N          -4.8694   -0.1997    0.8007 N.pl3   1  UNL1       -0.3255
     23 C          -5.3105   -1.4169    0.1619 C.3     1  UNL1        0.0357
     24 C          -6.3787   -1.0965   -0.8542 C.3     1  UNL1        0.0634
     25 O          -7.3734   -0.2853   -0.3808 O.3     1  UNL1       -0.3767
     26 C          -7.2567    0.1213    0.9297 C.3     1  UNL1        0.0634
     27 C          -5.9255    0.7176    1.2646 C.3     1  UNL1        0.0357
     28 C          -2.5001   -0.2171    0.0574 C.ar    1  UNL1       -0.0389
     29 C          -1.1854    0.1938    0.2606 C.ar    1  UNL1       -0.0388
     30 C           1.3275    2.2672   -0.5694 C.ar    1  UNL1        0.1784
     31 N           0.3941    3.2214   -0.7463 N.ar    1  UNL1       -0.2330
     32 H           0.0940    4.6612   -2.3474 H       1  UNL1        0.0845
     33 H           2.3048    3.4559   -3.3549 H       1  UNL1        0.0829
     34 H           3.8767    1.3982   -2.4651 H       1  UNL1        0.0835
     35 H           5.3451    0.1211   -2.4996 H       1  UNL1        0.0624
     36 H           7.1302   -1.5504   -2.5408 H       1  UNL1        0.0625
     37 H           8.2771   -3.8141   -1.0972 H       1  UNL1        0.0854
     38 H           5.5541   -3.7182    2.0371 H       1  UNL1        0.1889
     39 H           3.9723   -1.4914    1.1576 H       1  UNL1        0.0645
     40 H           0.8745    1.7845    2.4364 H       1  UNL1        0.1537
     41 H          -1.5657    1.9233    3.1136 H       1  UNL1        0.0637
     42 H          -3.8358    1.2166    2.7656 H       1  UNL1        0.0637
     43 H          -4.4504   -1.8443   -0.3891 H       1  UNL1        0.0486
     44 H          -5.7210   -2.1468    0.8988 H       1  UNL1        0.0486
     45 H          -5.9400   -0.6300   -1.7558 H       1  UNL1        0.0575
     46 H          -6.8512   -2.0711   -1.1259 H       1  UNL1        0.0575
     47 H          -7.4409   -0.7375    1.5941 H       1  UNL1        0.0575
     48 H          -8.0121    0.9584    1.0773 H       1  UNL1        0.0575
     49 H          -5.8474    0.8473    2.3485 H       1  UNL1        0.0486
     50 H          -5.7973    1.6877    0.6897 H       1  UNL1        0.0486
     51 H          -2.7776   -0.8184   -0.7954 H       1  UNL1        0.0637
     52 H          -0.4893   -0.1315   -0.4832 H       1  UNL1        0.0637
@<TRIPOS>BOND
     1     1     2   ar
     2     2     3   ar
     3     3     4   ar
     4     4     5   ar
     5     5     6    1
     6     6     7   ar
     7     7     8   ar
     8     8     9   ar
     9     9    10   ar
    10    10    11   ar
    11    11    12   ar
    12    12    13   ar
    13    13    14   ar
    14     5    15   ar
    15    15    16   ar
    16    16    17    1
    17    17    18    1
    18    18    19   ar
    19    19    20   ar
    20    20    21   ar
    21    21    22    1
    22    22    23    1
    23    23    24    1
    24    24    25    1
    25    25    26    1
    26    26    27    1
    27    21    28   ar
    28    28    29   ar
    29    16    30   ar
    30    30    31   ar
    31    31     1   ar
    32    30     3   ar
    33    14     6   ar
    34    29    18   ar
    35    13     9   ar
    36    27    22    1
    37     1    32    1
    38     2    33    1
    39     4    34    1
    40     7    35    1
    41     8    36    1
    42    10    37    1
    43    12    38    1
    44    14    39    1
    45    17    40    1
    46    19    41    1
    47    20    42    1
    48    23    43    1
    49    23    44    1
    50    24    45    1
    51    24    46    1
    52    26    47    1
    53    26    48    1
    54    27    49    1
    55    27    50    1
    56    28    51    1
    57    29    52    1
