
     RDKit          3D

 52 57  0  0  0  0  0  0  0  0999 V2000
    0.6729    3.8326   -1.9093 C   0  0  0  0  0  0  0  0  0  0  0  0
    1.7935    3.2275   -2.4308 C   0  0  0  0  0  0  0  0  0  0  0  0
    2.1980    2.2452   -1.5813 N   0  0  0  0  0  0  0  0  0  0  0  0
    3.2235    1.3470   -1.6150 C   0  0  0  0  0  0  0  0  0  0  0  0
    3.4012    0.4300   -0.6083 C   0  0  0  0  0  0  0  0  0  0  0  0
    4.4908   -0.5477   -0.6470 C   0  0  0  0  0  0  0  0  0  0  0  0
    5.3941   -0.5753   -1.6903 C   0  0  0  0  0  0  0  0  0  0  0  0
    6.4239   -1.5368   -1.7156 C   0  0  0  0  0  0  0  0  0  0  0  0
    6.5567   -2.4525   -0.7276 C   0  0  0  0  0  0  0  0  0  0  0  0
    7.4447   -3.4876   -0.5044 C   0  0  0  0  0  0  0  0  0  0  0  0
    7.0720   -4.0601    0.6514 N   0  0  0  0  0  0  0  0  0  0  0  0
    6.0167   -3.4436    1.1470 N   0  0  0  0  0  0  0  0  0  0  0  0
    5.6648   -2.4420    0.3259 C   0  0  0  0  0  0  0  0  0  0  0  0
    4.6591   -1.4969    0.3423 C   0  0  0  0  0  0  0  0  0  0  0  0
    2.5103    0.4673    0.4101 N   0  0  0  0  0  0  0  0  0  0  0  0
    1.4969    1.3359    0.4691 C   0  0  0  0  0  0  0  0  0  0  0  0
    0.5346    1.3990    1.5257 N   0  0  0  0  0  0  0  0  0  0  0  0
   -0.8022    0.9591    1.3337 C   0  0  0  0  0  0  0  0  0  0  0  0
   -1.7851    1.3267    2.2467 C   0  0  0  0  0  0  0  0  0  0  0  0
   -3.0946    0.9165    2.0413 C   0  0  0  0  0  0  0  0  0  0  0  0
   -3.4940    0.1495    0.9669 C   0  0  0  0  0  0  0  0  0  0  0  0
   -4.8694   -0.1997    0.8007 N   0  0  0  0  0  0  0  0  0  0  0  0
   -5.3105   -1.4169    0.1619 C   0  0  0  0  0  0  0  0  0  0  0  0
   -6.3787   -1.0965   -0.8542 C   0  0  0  0  0  0  0  0  0  0  0  0
   -7.3734   -0.2853   -0.3808 O   0  0  0  0  0  0  0  0  0  0  0  0
   -7.2567    0.1213    0.9297 C   0  0  0  0  0  0  0  0  0  0  0  0
   -5.9255    0.7176    1.2646 C   0  0  0  0  0  0  0  0  0  0  0  0
   -2.5001   -0.2171    0.0574 C   0  0  0  0  0  0  0  0  0  0  0  0
   -1.1854    0.1938    0.2606 C   0  0  0  0  0  0  0  0  0  0  0  0
    1.3275    2.2672   -0.5694 C   0  0  0  0  0  0  0  0  0  0  0  0
    0.3941    3.2214   -0.7463 N   0  0  0  0  0  0  0  0  0  0  0  0
    0.0940    4.6612   -2.3474 H   0  0  0  0  0  0  0  0  0  0  0  0
    2.3048    3.4559   -3.3549 H   0  0  0  0  0  0  0  0  0  0  0  0
    3.8767    1.3982   -2.4651 H   0  0  0  0  0  0  0  0  0  0  0  0
    5.3451    0.1211   -2.4996 H   0  0  0  0  0  0  0  0  0  0  0  0
    7.1302   -1.5504   -2.5408 H   0  0  0  0  0  0  0  0  0  0  0  0
    8.2771   -3.8141   -1.0972 H   0  0  0  0  0  0  0  0  0  0  0  0
    5.5541   -3.7182    2.0371 H   0  0  0  0  0  0  0  0  0  0  0  0
    3.9723   -1.4914    1.1576 H   0  0  0  0  0  0  0  0  0  0  0  0
    0.8745    1.7845    2.4364 H   0  0  0  0  0  0  0  0  0  0  0  0
   -1.5657    1.9233    3.1136 H   0  0  0  0  0  0  0  0  0  0  0  0
   -3.8358    1.2166    2.7656 H   0  0  0  0  0  0  0  0  0  0  0  0
   -4.4504   -1.8443   -0.3891 H   0  0  0  0  0  0  0  0  0  0  0  0
   -5.7210   -2.1468    0.8988 H   0  0  0  0  0  0  0  0  0  0  0  0
   -5.9400   -0.6300   -1.7558 H   0  0  0  0  0  0  0  0  0  0  0  0
   -6.8512   -2.0711   -1.1259 H   0  0  0  0  0  0  0  0  0  0  0  0
   -7.4409   -0.7375    1.5941 H   0  0  0  0  0  0  0  0  0  0  0  0
   -8.0121    0.9584    1.0773 H   0  0  0  0  0  0  0  0  0  0  0  0
   -5.8474    0.8473    2.3485 H   0  0  0  0  0  0  0  0  0  0  0  0
   -5.7973    1.6877    0.6897 H   0  0  0  0  0  0  0  0  0  0  0  0
   -2.7776   -0.8184   -0.7954 H   0  0  0  0  0  0  0  0  0  0  0  0
   -0.4893   -0.1315   -0.4832 H   0  0  0  0  0  0  0  0  0  0  0  0
  1  2  2  0
  2  3  1  0
  3  4  1  0
  4  5  2  0
  5  6  1  0
  6  7  2  0
  7  8  1  0
  8  9  2  0
  9 10  1  0
 10 11  2  0
 11 12  1  0
 12 13  1  0
 13 14  2  0
  5 15  1  0
 15 16  2  0
 16 17  1  0
 17 18  1  0
 18 19  2  0
 19 20  1  0
 20 21  2  0
 21 22  1  0
 22 23  1  0
 23 24  1  0
 24 25  1  0
 25 26  1  0
 26 27  1  0
 21 28  1  0
 28 29  2  0
 16 30  1  0
 30 31  2  0
 31  1  1  0
 30  3  1  0
 14  6  1  0
 29 18  1  0
 13  9  1  0
 27 22  1  0
  1 32  1  0
  2 33  1  0
  4 34  1  0
  7 35  1  0
  8 36  1  0
 10 37  1  0
 12 38  1  0
 14 39  1  0
 17 40  1  0
 19 41  1  0
 20 42  1  0
 23 43  1  0
 23 44  1  0
 24 45  1  0
 24 46  1  0
 26 47  1  0
 26 48  1  0
 27 49  1  0
 27 50  1  0
 28 51  1  0
 29 52  1  0
M  END
$$$$
