@<TRIPOS>MOLECULE
*****
 44 45 0 0 0
SMALL
GASTEIGER

@<TRIPOS>ATOM
      1 C          -3.5817    0.1499    2.8197 C.3     1  UNL1        0.0788
      2 O          -3.1954    0.7389    1.6092 O.3     1  UNL1       -0.4948
      3 C          -3.5100    0.2073    0.3603 C.ar    1  UNL1        0.1234
      4 C          -4.2407   -0.9625    0.2585 C.ar    1  UNL1       -0.0170
      5 C          -4.5371   -1.4652   -0.9977 C.ar    1  UNL1       -0.0230
      6 C          -4.1114   -0.8121   -2.1457 C.ar    1  UNL1        0.1239
      7 F          -4.4115   -1.3191   -3.3576 F       1  UNL1       -0.2055
      8 C          -3.3865    0.3489   -2.0154 C.ar    1  UNL1       -0.0198
      9 C          -3.0902    0.8515   -0.7630 C.ar    1  UNL1       -0.0030
     10 C          -2.3076    2.1058   -0.6206 C.3     1  UNL1       -0.0241
     11 C          -0.8904    1.8225   -0.2130 C.3     1  UNL1       -0.0466
     12 C          -0.1634    0.9617   -1.2151 C.3     1  UNL1       -0.0263
     13 C           1.2337    0.7341   -0.7281 C.3     1  UNL1        0.0591
     14 C           2.0064   -0.1394   -1.7224 C.3     1  UNL1       -0.0242
     15 C           3.2354   -0.4214   -0.8450 C.3     1  UNL1       -0.0242
     16 C           2.5476   -0.6069    0.4906 C.3     1  UNL1        0.0603
     17 C           3.4306   -0.0736    1.5833 C.3     1  UNL1       -0.0142
     18 C           4.7603   -0.7770    1.6454 C.3     1  UNL1       -0.0046
     19 N           5.5313   -0.6690    0.4475 N.3     1  UNL1       -0.3299
     20 O           1.3311    0.0076    0.4240 O.3     1  UNL1       -0.3733
     21 H          -3.4863    0.9199    3.6174 H       1  UNL1        0.0660
     22 H          -4.6008   -0.2684    2.8015 H       1  UNL1        0.0660
     23 H          -2.8897   -0.7049    3.0103 H       1  UNL1        0.0660
     24 H          -4.5792   -1.4827    1.1501 H       1  UNL1        0.0655
     25 H          -5.1035   -2.3708   -1.0538 H       1  UNL1        0.0647
     26 H          -3.0596    0.8493   -2.9204 H       1  UNL1        0.0650
     27 H          -2.3926    2.7700   -1.4896 H       1  UNL1        0.0314
     28 H          -2.7758    2.6641    0.2383 H       1  UNL1        0.0314
     29 H          -0.9435    1.2383    0.7407 H       1  UNL1        0.0269
     30 H          -0.3521    2.7635   -0.0587 H       1  UNL1        0.0269
     31 H          -0.1130    1.5293   -2.1649 H       1  UNL1        0.0290
     32 H          -0.6912   -0.0028   -1.3627 H       1  UNL1        0.0290
     33 H           1.7816    1.7018   -0.6956 H       1  UNL1        0.0596
     34 H           1.5145   -1.1173   -1.8650 H       1  UNL1        0.0291
     35 H           2.2622    0.3909   -2.6370 H       1  UNL1        0.0291
     36 H           3.8490    0.5080   -0.7458 H       1  UNL1        0.0291
     37 H           3.7945   -1.2914   -1.1804 H       1  UNL1        0.0291
     38 H           2.3940   -1.7139    0.6639 H       1  UNL1        0.0596
     39 H           2.9367   -0.1097    2.5752 H       1  UNL1        0.0302
     40 H           3.6203    1.0104    1.3805 H       1  UNL1        0.0302
     41 H           5.3453   -0.2581    2.4577 H       1  UNL1        0.0423
     42 H           4.6543   -1.8471    1.8932 H       1  UNL1        0.0423
     43 H           6.1232   -1.5096    0.2569 H       1  UNL1        0.1182
     44 H           6.0615    0.2261    0.3734 H       1  UNL1        0.1182
@<TRIPOS>BOND
     1     1     2    1
     2     2     3    1
     3     3     4   ar
     4     4     5   ar
     5     5     6   ar
     6     6     7    1
     7     6     8   ar
     8     8     9   ar
     9     9    10    1
    10    10    11    1
    11    11    12    1
    12    12    13    1
    13    13    14    1
    14    14    15    1
    15    15    16    1
    16    16    17    1
    17    17    18    1
    18    18    19    1
    19    16    20    1
    20     9     3   ar
    21    20    13    1
    22     1    21    1
    23     1    22    1
    24     1    23    1
    25     4    24    1
    26     5    25    1
    27     8    26    1
    28    10    27    1
    29    10    28    1
    30    11    29    1
    31    11    30    1
    32    12    31    1
    33    12    32    1
    34    13    33    1
    35    14    34    1
    36    14    35    1
    37    15    36    1
    38    15    37    1
    39    16    38    1
    40    17    39    1
    41    17    40    1
    42    18    41    1
    43    18    42    1
    44    19    43    1
    45    19    44    1
