
     RDKit          3D

 61 65  0  0  0  0  0  0  0  0999 V2000
   -2.3925   -3.9683    1.5757 C   0  0  0  0  0  0  0  0  0  0  0  0
   -0.8841   -3.7087    1.4842 C   0  0  0  0  0  0  0  0  0  0  0  0
   -0.3149   -4.2496    0.2370 C   0  0  0  0  0  0  0  0  0  0  0  0
    0.3388   -5.4707    0.3206 C   0  0  0  0  0  0  0  0  0  0  0  0
    0.8583   -6.0135   -0.8257 C   0  0  0  0  0  0  0  0  0  0  0  0
    0.7654   -5.4115   -2.0528 C   0  0  0  0  0  0  0  0  0  0  0  0
    0.1143   -4.2036   -2.1091 C   0  0  0  0  0  0  0  0  0  0  0  0
   -0.4226   -3.6214   -0.9832 C   0  0  0  0  0  0  0  0  0  0  0  0
   -1.0789   -2.3598   -1.0299 N   0  0  0  0  0  0  0  0  0  0  0  0
   -2.3158   -2.1574   -1.3929 N   0  0  0  0  0  0  0  0  0  0  0  0
   -2.5861   -0.8739   -1.3078 C   0  0  0  0  0  0  0  0  0  0  0  0
   -3.8666   -0.1592   -1.6154 C   0  0  0  0  0  0  0  0  0  0  0  0
   -1.4344   -0.2107   -0.8568 C   0  0  0  0  0  0  0  0  0  0  0  0
   -1.3480    1.2187   -0.5950 C   0  0  0  0  0  0  0  0  0  0  0  0
   -1.0801    2.1505   -1.5582 C   0  0  0  0  0  0  0  0  0  0  0  0
   -1.0029    3.5053   -1.2792 C   0  0  0  0  0  0  0  0  0  0  0  0
   -1.1955    3.9876    0.0015 C   0  0  0  0  0  0  0  0  0  0  0  0
   -1.1168    5.2889    0.2493 N   0  0  0  0  0  0  0  0  0  0  0  0
   -1.3029    5.7910    1.5057 C   0  0  0  0  0  0  0  0  0  0  0  0
   -1.5750    4.8498    2.4831 C   0  0  0  0  0  0  0  0  0  0  0  0
   -1.6514    3.5451    2.2252 N   0  0  0  0  0  0  0  0  0  0  0  0
   -1.4659    3.0531    0.9765 C   0  0  0  0  0  0  0  0  0  0  0  0
   -1.5421    1.7055    0.6967 C   0  0  0  0  0  0  0  0  0  0  0  0
   -0.4884   -1.1798   -0.6883 C   0  0  0  0  0  0  0  0  0  0  0  0
    0.8399   -1.0813   -0.2140 N   0  0  0  0  0  0  0  0  0  0  0  0
    1.5853    0.0825    0.0207 C   0  0  0  0  0  0  0  0  0  0  0  0
    1.9335    0.3751    1.3427 C   0  0  0  0  0  0  0  0  0  0  0  0
    2.6951    1.4821    1.6653 C   0  0  0  0  0  0  0  0  0  0  0  0
    3.1393    2.3394    0.6929 C   0  0  0  0  0  0  0  0  0  0  0  0
    3.9069    3.4594    1.0027 O   0  0  0  0  0  0  0  0  0  0  0  0
    4.2740    3.7826    2.3279 C   0  0  0  0  0  0  0  0  0  0  0  0
    2.8072    2.0646   -0.6037 C   0  0  0  0  0  0  0  0  0  0  0  0
    2.0410    0.9496   -0.9298 C   0  0  0  0  0  0  0  0  0  0  0  0
    1.7565    0.6586   -2.3496 C   0  0  0  0  0  0  0  0  0  0  0  0
    1.1335   -0.3448   -2.7442 O   0  0  0  0  0  0  0  0  0  0  0  0
    2.1901    1.5309   -3.3570 O   0  0  0  0  0  0  0  0  0  0  0  0
   -2.8322   -3.1732    2.1845 H   0  0  0  0  0  0  0  0  0  0  0  0
   -2.7692   -4.0582    0.5497 H   0  0  0  0  0  0  0  0  0  0  0  0
   -2.4848   -4.9359    2.1353 H   0  0  0  0  0  0  0  0  0  0  0  0
   -0.7389   -2.5919    1.5015 H   0  0  0  0  0  0  0  0  0  0  0  0
   -0.3556   -4.1235    2.3434 H   0  0  0  0  0  0  0  0  0  0  0  0
    0.4264   -5.9605    1.2631 H   0  0  0  0  0  0  0  0  0  0  0  0
    1.3682   -6.9775   -0.7244 H   0  0  0  0  0  0  0  0  0  0  0  0
    1.2009   -5.9028   -2.9061 H   0  0  0  0  0  0  0  0  0  0  0  0
    0.0215   -3.7023   -3.0562 H   0  0  0  0  0  0  0  0  0  0  0  0
   -4.6596   -0.9367   -1.7955 H   0  0  0  0  0  0  0  0  0  0  0  0
   -3.6821    0.4428   -2.5321 H   0  0  0  0  0  0  0  0  0  0  0  0
   -4.1171    0.4364   -0.7310 H   0  0  0  0  0  0  0  0  0  0  0  0
   -0.9237    1.8135   -2.5934 H   0  0  0  0  0  0  0  0  0  0  0  0
   -0.7907    4.2506   -2.0451 H   0  0  0  0  0  0  0  0  0  0  0  0
   -1.2400    6.8389    1.7178 H   0  0  0  0  0  0  0  0  0  0  0  0
   -1.7308    5.2146    3.5110 H   0  0  0  0  0  0  0  0  0  0  0  0
   -1.7565    0.9985    1.4904 H   0  0  0  0  0  0  0  0  0  0  0  0
    1.3927   -1.9827    0.0131 H   0  0  0  0  0  0  0  0  0  0  0  0
    1.5708   -0.3170    2.0939 H   0  0  0  0  0  0  0  0  0  0  0  0
    2.9482    1.6780    2.7167 H   0  0  0  0  0  0  0  0  0  0  0  0
    4.7568    2.9550    2.8710 H   0  0  0  0  0  0  0  0  0  0  0  0
    4.9917    4.6256    2.2720 H   0  0  0  0  0  0  0  0  0  0  0  0
    3.4046    4.0951    2.9217 H   0  0  0  0  0  0  0  0  0  0  0  0
    3.1298    2.7026   -1.4037 H   0  0  0  0  0  0  0  0  0  0  0  0
    1.5551    1.8046   -4.1129 H   0  0  0  0  0  0  0  0  0  0  0  0
  1  2  1  0
  2  3  1  0
  3  4  2  0
  4  5  1  0
  5  6  2  0
  6  7  1  0
  7  8  2  0
  8  9  1  0
  9 10  1  0
 10 11  2  0
 11 12  1  0
 11 13  1  0
 13 14  1  0
 14 15  2  0
 15 16  1  0
 16 17  2  0
 17 18  1  0
 18 19  2  0
 19 20  1  0
 20 21  2  0
 21 22  1  0
 22 23  2  0
 13 24  2  0
 24 25  1  0
 25 26  1  0
 26 27  2  0
 27 28  1  0
 28 29  2  0
 29 30  1  0
 30 31  1  0
 29 32  1  0
 32 33  2  0
 33 34  1  0
 34 35  2  0
 34 36  1  0
  8  3  1  0
 24  9  1  0
 33 26  1  0
 23 14  1  0
 22 17  1  0
  1 37  1  0
  1 38  1  0
  1 39  1  0
  2 40  1  0
  2 41  1  0
  4 42  1  0
  5 43  1  0
  6 44  1  0
  7 45  1  0
 12 46  1  0
 12 47  1  0
 12 48  1  0
 15 49  1  0
 16 50  1  0
 19 51  1  0
 20 52  1  0
 23 53  1  0
 25 54  1  0
 27 55  1  0
 28 56  1  0
 31 57  1  0
 31 58  1  0
 31 59  1  0
 32 60  1  0
 36 61  1  0
M  END
$$$$
