@<TRIPOS>MOLECULE
*****
 61 65 0 0 0
SMALL
GASTEIGER

@<TRIPOS>ATOM
      1 C          -2.3925   -3.9683    1.5757 C.3     1  UNL1       -0.0612
      2 C          -0.8841   -3.7087    1.4842 C.3     1  UNL1       -0.0285
      3 C          -0.3149   -4.2496    0.2370 C.ar    1  UNL1       -0.0222
      4 C           0.3388   -5.4707    0.3206 C.ar    1  UNL1       -0.0566
      5 C           0.8583   -6.0135   -0.8257 C.ar    1  UNL1       -0.0614
      6 C           0.7654   -5.4115   -2.0528 C.ar    1  UNL1       -0.0597
      7 C           0.1143   -4.2036   -2.1091 C.ar    1  UNL1       -0.0359
      8 C          -0.4226   -3.6214   -0.9832 C.ar    1  UNL1        0.0706
      9 N          -1.0789   -2.3598   -1.0299 N.ar    1  UNL1       -0.2173
     10 N          -2.3158   -2.1574   -1.3929 N.ar    1  UNL1       -0.1693
     11 C          -2.5861   -0.8739   -1.3078 C.ar    1  UNL1        0.0699
     12 C          -3.8666   -0.1592   -1.6154 C.3     1  UNL1       -0.0199
     13 C          -1.4344   -0.2107   -0.8568 C.ar    1  UNL1        0.0449
     14 C          -1.3480    1.2187   -0.5950 C.ar    1  UNL1       -0.0107
     15 C          -1.0801    2.1505   -1.5582 C.ar    1  UNL1       -0.0517
     16 C          -1.0029    3.5053   -1.2792 C.ar    1  UNL1       -0.0337
     17 C          -1.1955    3.9876    0.0015 C.ar    1  UNL1        0.0892
     18 N          -1.1168    5.2889    0.2493 N.ar    1  UNL1       -0.2519
     19 C          -1.3029    5.7910    1.5057 C.ar    1  UNL1        0.0464
     20 C          -1.5750    4.8498    2.4831 C.ar    1  UNL1        0.0464
     21 N          -1.6514    3.5451    2.2252 N.ar    1  UNL1       -0.2519
     22 C          -1.4659    3.0531    0.9765 C.ar    1  UNL1        0.0897
     23 C          -1.5421    1.7055    0.6967 C.ar    1  UNL1       -0.0264
     24 C          -0.4884   -1.1798   -0.6883 C.ar    1  UNL1        0.1346
     25 N           0.8399   -1.0813   -0.2140 N.pl3   1  UNL1       -0.2982
     26 C           1.5853    0.0825    0.0207 C.ar    1  UNL1        0.0467
     27 C           1.9335    0.3751    1.3427 C.ar    1  UNL1       -0.0363
     28 C           2.6951    1.4821    1.6653 C.ar    1  UNL1       -0.0182
     29 C           3.1393    2.3394    0.6929 C.ar    1  UNL1        0.1210
     30 O           3.9069    3.4594    1.0027 O.3     1  UNL1       -0.4951
     31 C           4.2740    3.7826    2.3279 C.3     1  UNL1        0.0788
     32 C           2.8072    2.0646   -0.6037 C.ar    1  UNL1       -0.0042
     33 C           2.0410    0.9496   -0.9298 C.ar    1  UNL1        0.0834
     34 C           1.7565    0.6586   -2.3496 C.2     1  UNL1        0.3387
     35 O           1.1335   -0.3448   -2.7442 O.2     1  UNL1       -0.2451
     36 O           2.1901    1.5309   -3.3570 O.3     1  UNL1       -0.4771
     37 H          -2.8322   -3.1732    2.1845 H       1  UNL1        0.0233
     38 H          -2.7692   -4.0582    0.5497 H       1  UNL1        0.0233
     39 H          -2.4848   -4.9359    2.1353 H       1  UNL1        0.0233
     40 H          -0.7389   -2.5919    1.5015 H       1  UNL1        0.0311
     41 H          -0.3556   -4.1235    2.3434 H       1  UNL1        0.0311
     42 H           0.4264   -5.9605    1.2631 H       1  UNL1        0.0621
     43 H           1.3682   -6.9775   -0.7244 H       1  UNL1        0.0618
     44 H           1.2009   -5.9028   -2.9061 H       1  UNL1        0.0618
     45 H           0.0215   -3.7023   -3.0562 H       1  UNL1        0.0639
     46 H          -4.6596   -0.9367   -1.7955 H       1  UNL1        0.0293
     47 H          -3.6821    0.4428   -2.5321 H       1  UNL1        0.0293
     48 H          -4.1171    0.4364   -0.7310 H       1  UNL1        0.0293
     49 H          -0.9237    1.8135   -2.5934 H       1  UNL1        0.0624
     50 H          -0.7907    4.2506   -2.0451 H       1  UNL1        0.0640
     51 H          -1.2400    6.8389    1.7178 H       1  UNL1        0.0845
     52 H          -1.7308    5.2146    3.5110 H       1  UNL1        0.0845
     53 H          -1.7565    0.9985    1.4904 H       1  UNL1        0.0645
     54 H           1.3927   -1.9827    0.0131 H       1  UNL1        0.1536
     55 H           1.5708   -0.3170    2.0939 H       1  UNL1        0.0637
     56 H           2.9482    1.6780    2.7167 H       1  UNL1        0.0655
     57 H           4.7568    2.9550    2.8710 H       1  UNL1        0.0660
     58 H           4.9917    4.6256    2.2720 H       1  UNL1        0.0660
     59 H           3.4046    4.0951    2.9217 H       1  UNL1        0.0660
     60 H           3.1298    2.7026   -1.4037 H       1  UNL1        0.0663
     61 H           1.5551    1.8046   -4.1129 H       1  UNL1        0.2954
@<TRIPOS>BOND
     1     1     2    1
     2     2     3    1
     3     3     4   ar
     4     4     5   ar
     5     5     6   ar
     6     6     7   ar
     7     7     8   ar
     8     8     9    1
     9     9    10   ar
    10    10    11   ar
    11    11    12    1
    12    11    13   ar
    13    13    14    1
    14    14    15   ar
    15    15    16   ar
    16    16    17   ar
    17    17    18   ar
    18    18    19   ar
    19    19    20   ar
    20    20    21   ar
    21    21    22   ar
    22    22    23   ar
    23    13    24   ar
    24    24    25    1
    25    25    26    1
    26    26    27   ar
    27    27    28   ar
    28    28    29   ar
    29    29    30    1
    30    30    31    1
    31    29    32   ar
    32    32    33   ar
    33    33    34    1
    34    34    35    2
    35    34    36    1
    36     8     3   ar
    37    24     9   ar
    38    33    26   ar
    39    23    14   ar
    40    22    17   ar
    41     1    37    1
    42     1    38    1
    43     1    39    1
    44     2    40    1
    45     2    41    1
    46     4    42    1
    47     5    43    1
    48     6    44    1
    49     7    45    1
    50    12    46    1
    51    12    47    1
    52    12    48    1
    53    15    49    1
    54    16    50    1
    55    19    51    1
    56    20    52    1
    57    23    53    1
    58    25    54    1
    59    27    55    1
    60    28    56    1
    61    31    57    1
    62    31    58    1
    63    31    59    1
    64    32    60    1
    65    36    61    1
