@<TRIPOS>MOLECULE
*****
 67 69 0 0 0
SMALL
GASTEIGER

@<TRIPOS>ATOM
      1 C          -4.4788   -5.1047   -2.4719 C.2     1  UNL1       -0.0952
      2 C          -3.3669   -4.9021   -3.1303 C.2     1  UNL1       -0.0504
      3 C          -3.0579   -5.6838   -4.3354 C.3     1  UNL1       -0.0397
      4 C          -2.4148   -3.8941   -2.6835 C.ar    1  UNL1       -0.0219
      5 C          -1.2242   -3.6784   -3.3825 C.ar    1  UNL1       -0.0537
      6 C          -0.2966   -2.7372   -3.0030 C.ar    1  UNL1       -0.0527
      7 C          -0.5295   -1.9563   -1.8821 C.ar    1  UNL1       -0.0050
      8 C           0.3974   -0.9470   -1.3917 C.ar    1  UNL1       -0.0032
      9 C           0.2886    0.3977   -1.7255 C.ar    1  UNL1       -0.0525
     10 C           1.1823    1.2983   -1.2088 C.ar    1  UNL1       -0.0490
     11 C           2.2140    0.9201   -0.3488 C.ar    1  UNL1        0.0375
     12 C           3.1303    1.8992    0.1945 C.2     1  UNL1        0.2441
     13 O           2.8733    3.1188   -0.0149 O.2     1  UNL1       -0.2702
     14 N           4.2664    1.5080    0.9280 N.am    1  UNL1       -0.3111
     15 C           5.1861    2.4901    1.4749 C.3     1  UNL1        0.0142
     16 C           5.8241    3.3634    0.4150 C.3     1  UNL1       -0.0311
     17 C           6.6116    2.5433   -0.5719 C.3     1  UNL1       -0.0612
     18 C           6.7370    4.3858    1.0717 C.3     1  UNL1       -0.0612
     19 C           2.2972   -0.4162   -0.0369 C.ar    1  UNL1       -0.0351
     20 C           1.4043   -1.3511   -0.5463 C.ar    1  UNL1        0.0672
     21 C           1.5801   -2.7381   -0.1566 C.2     1  UNL1        0.3374
     22 O           2.5282   -3.0743    0.6310 O.2     1  UNL1       -0.2451
     23 O           0.7645   -3.7771   -0.5896 O.3     1  UNL1       -0.4771
     24 C          -1.6959   -2.1439   -1.1694 C.ar    1  UNL1        0.0453
     25 C          -1.9297   -1.2975   -0.0095 C.2     1  UNL1        0.2489
     26 O          -1.2741   -1.3846    1.0544 O.2     1  UNL1       -0.2698
     27 N          -2.9723   -0.2994   -0.0865 N.am    1  UNL1       -0.2815
     28 C          -3.2721    0.5794    0.9772 C.ar    1  UNL1        0.0337
     29 C          -2.6134    1.7942    1.0576 C.ar    1  UNL1       -0.0397
     30 C          -2.8668    2.6903    2.0677 C.ar    1  UNL1       -0.0451
     31 C          -3.7994    2.3828    3.0323 C.ar    1  UNL1        0.0648
     32 C          -4.0436    3.3672    4.0929 C.2     1  UNL1        0.3081
     33 N          -3.8728    4.6244    3.8479 N.2     1  UNL1       -0.0994
     34 N          -4.4650    2.9639    5.3824 N.pl3   1  UNL1       -0.2466
     35 C          -4.4723    1.1769    2.9769 C.ar    1  UNL1       -0.0451
     36 C          -4.2000    0.2785    1.9410 C.ar    1  UNL1       -0.0397
     37 C          -2.6114   -3.0932   -1.5680 C.ar    1  UNL1       -0.0416
     38 H          -4.8167   -4.6080   -1.5906 H       1  UNL1        0.0538
     39 H          -5.1648   -5.8775   -2.8587 H       1  UNL1        0.0538
     40 H          -3.1641   -5.0414   -5.2550 H       1  UNL1        0.0278
     41 H          -2.0245   -6.0924   -4.3683 H       1  UNL1        0.0278
     42 H          -3.7330   -6.5634   -4.4530 H       1  UNL1        0.0278
     43 H          -1.0562   -4.2944   -4.2538 H       1  UNL1        0.0624
     44 H           0.6277   -2.5867   -3.5652 H       1  UNL1        0.0624
     45 H          -0.5131    0.6982   -2.3956 H       1  UNL1        0.0624
     46 H           1.1290    2.3513   -1.4447 H       1  UNL1        0.0625
     47 H           4.5201    0.5057    1.1212 H       1  UNL1        0.1490
     48 H           4.6473    3.1031    2.2281 H       1  UNL1        0.0465
     49 H           6.0172    1.9956    2.0039 H       1  UNL1        0.0465
     50 H           5.0278    3.9297   -0.0883 H       1  UNL1        0.0311
     51 H           7.6389    2.9795   -0.7425 H       1  UNL1        0.0233
     52 H           6.7252    1.4973   -0.2407 H       1  UNL1        0.0233
     53 H           6.1234    2.5737   -1.5767 H       1  UNL1        0.0233
     54 H           7.7828    4.1071    0.8511 H       1  UNL1        0.0233
     55 H           6.5836    5.4104    0.6430 H       1  UNL1        0.0233
     56 H           6.5243    4.4389    2.1691 H       1  UNL1        0.0233
     57 H           3.0890   -0.7638    0.6352 H       1  UNL1        0.0633
     58 H           0.6927   -4.6042   -0.0147 H       1  UNL1        0.2954
     59 H          -3.5143   -0.2613   -1.0042 H       1  UNL1        0.1551
     60 H          -1.8669    2.0840    0.3181 H       1  UNL1        0.0636
     61 H          -2.3305    3.6182    2.0859 H       1  UNL1        0.0627
     62 H          -4.0217    5.3715    4.5325 H       1  UNL1        0.3633
     63 H          -3.8010    2.9202    6.2018 H       1  UNL1        0.2884
     64 H          -5.4691    2.7044    5.5131 H       1  UNL1        0.2884
     65 H          -5.1956    0.9782    3.7551 H       1  UNL1        0.0627
     66 H          -4.7580   -0.6593    1.9429 H       1  UNL1        0.0636
     67 H          -3.5271   -3.2177   -0.9813 H       1  UNL1        0.0631
@<TRIPOS>BOND
     1     1     2    2
     2     2     3    1
     3     2     4    1
     4     4     5   ar
     5     5     6   ar
     6     6     7   ar
     7     7     8    1
     8     8     9   ar
     9     9    10   ar
    10    10    11   ar
    11    11    12    1
    12    12    13    2
    13    12    14   am
    14    14    15    1
    15    15    16    1
    16    16    17    1
    17    16    18    1
    18    11    19   ar
    19    19    20   ar
    20    20    21    1
    21    21    22    2
    22    21    23    1
    23     7    24   ar
    24    24    25    1
    25    25    26    2
    26    25    27   am
    27    27    28    1
    28    28    29   ar
    29    29    30   ar
    30    30    31   ar
    31    31    32    1
    32    32    33    2
    33    32    34    1
    34    31    35   ar
    35    35    36   ar
    36    24    37   ar
    37    37     4   ar
    38    20     8   ar
    39    36    28   ar
    40     1    38    1
    41     1    39    1
    42     3    40    1
    43     3    41    1
    44     3    42    1
    45     5    43    1
    46     6    44    1
    47     9    45    1
    48    10    46    1
    49    14    47    1
    50    15    48    1
    51    15    49    1
    52    16    50    1
    53    17    51    1
    54    17    52    1
    55    17    53    1
    56    18    54    1
    57    18    55    1
    58    18    56    1
    59    19    57    1
    60    23    58    1
    61    27    59    1
    62    29    60    1
    63    30    61    1
    64    33    62    1
    65    34    63    1
    66    34    64    1
    67    35    65    1
    68    36    66    1
    69    37    67    1
