@<TRIPOS>MOLECULE
*****
 56 59 0 0 0
SMALL
GASTEIGER

@<TRIPOS>ATOM
      1 C           0.5995    1.6431   -1.1113 C.3     1  UNL1       -0.0124
      2 N          -0.3356    0.5612   -0.6034 N.3     1  UNL1       -0.3006
      3 C           0.2388    0.2002    0.7239 C.3     1  UNL1        0.0265
      4 C           1.7023   -0.0619    0.5803 C.ar    1  UNL1        0.0018
      5 C           2.5342    0.9376    1.0386 C.ar    1  UNL1       -0.0541
      6 C           3.8907    0.8273    0.9707 C.ar    1  UNL1       -0.0541
      7 C           4.4673   -0.3237    0.4253 C.ar    1  UNL1       -0.0221
      8 C           5.9132   -0.4346    0.3608 C.2     1  UNL1       -0.0495
      9 C           6.5895   -1.4522   -0.1248 C.2     1  UNL1        0.0027
     10 C           8.0435   -1.5307   -0.1734 C.2     1  UNL1        0.2593
     11 O           8.5706   -2.5641   -0.6660 O.2     1  UNL1       -0.2687
     12 N           8.8761   -0.4986    0.3088 N.am    1  UNL1       -0.1940
     13 O          10.2241   -0.6126    0.2450 O.3     1  UNL1       -0.2949
     14 C           3.6076   -1.3207   -0.0310 C.ar    1  UNL1       -0.0190
     15 C           2.2364   -1.1961    0.0433 C.ar    1  UNL1        0.1283
     16 F           1.3964   -2.1658   -0.4040 F       1  UNL1       -0.2051
     17 C          -1.5601    1.2472   -0.3408 C.3     1  UNL1        0.0046
     18 C          -2.8006    0.4949   -0.0914 C.3     1  UNL1       -0.0157
     19 C          -2.8459   -0.4539    1.0475 C.3     1  UNL1       -0.0433
     20 C          -4.2682   -0.9476    1.2745 C.3     1  UNL1       -0.0400
     21 C          -5.2691    0.1278    1.4889 C.3     1  UNL1       -0.0473
     22 C          -5.2399    1.0459    0.2579 C.3     1  UNL1       -0.0400
     23 C          -5.6003    0.2744   -0.9822 C.3     1  UNL1       -0.0473
     24 C          -4.6027   -0.8602   -1.1442 C.3     1  UNL1       -0.0400
     25 C          -4.6549   -1.7623    0.0559 C.3     1  UNL1       -0.0473
     26 C          -3.2458   -0.2606   -1.3368 C.3     1  UNL1       -0.0433
     27 C          -3.8562    1.5986    0.1991 C.3     1  UNL1       -0.0433
     28 H           1.5963    1.2366   -1.2517 H       1  UNL1        0.0391
     29 H           0.5940    2.4725   -0.3793 H       1  UNL1        0.0391
     30 H           0.1848    1.9961   -2.0633 H       1  UNL1        0.0391
     31 H           0.0354    1.0103    1.4310 H       1  UNL1        0.0476
     32 H          -0.2554   -0.7247    1.0304 H       1  UNL1        0.0476
     33 H           2.1222    1.8623    1.4773 H       1  UNL1        0.0622
     34 H           4.5718    1.5954    1.3216 H       1  UNL1        0.0624
     35 H           6.4964    0.3869    0.7435 H       1  UNL1        0.0625
     36 H           5.9862   -2.2742   -0.5076 H       1  UNL1        0.0670
     37 H           8.4864    0.3672    0.7223 H       1  UNL1        0.1825
     38 H          10.5949    0.2914    0.1122 H       1  UNL1        0.2414
     39 H           3.9946   -2.2342   -0.4614 H       1  UNL1        0.0652
     40 H          -1.4430    1.9856    0.5138 H       1  UNL1        0.0432
     41 H          -1.7695    1.9396   -1.2170 H       1  UNL1        0.0432
     42 H          -2.3688   -0.1466    1.9750 H       1  UNL1        0.0274
     43 H          -2.3314   -1.4121    0.6864 H       1  UNL1        0.0274
     44 H          -4.2671   -1.6100    2.1668 H       1  UNL1        0.0301
     45 H          -6.2492   -0.3326    1.6403 H       1  UNL1        0.0271
     46 H          -4.9284    0.7610    2.3411 H       1  UNL1        0.0271
     47 H          -5.9292    1.9005    0.3979 H       1  UNL1        0.0301
     48 H          -5.4620    0.9438   -1.8465 H       1  UNL1        0.0271
     49 H          -6.6339   -0.0861   -0.8673 H       1  UNL1        0.0271
     50 H          -4.8786   -1.4044   -2.0714 H       1  UNL1        0.0301
     51 H          -5.7020   -2.0859    0.2153 H       1  UNL1        0.0271
     52 H          -3.9989   -2.6299   -0.1096 H       1  UNL1        0.0271
     53 H          -3.1996    0.3468   -2.2452 H       1  UNL1        0.0274
     54 H          -2.5310   -1.1020   -1.4652 H       1  UNL1        0.0274
     55 H          -3.7275    2.4354   -0.5096 H       1  UNL1        0.0274
     56 H          -3.5984    1.9988    1.2115 H       1  UNL1        0.0274
@<TRIPOS>BOND
     1     1     2    1
     2     2     3    1
     3     3     4    1
     4     4     5   ar
     5     5     6   ar
     6     6     7   ar
     7     7     8    1
     8     8     9    2
     9     9    10    1
    10    10    11    2
    11    10    12   am
    12    12    13    1
    13     7    14   ar
    14    14    15   ar
    15    15    16    1
    16     2    17    1
    17    17    18    1
    18    18    19    1
    19    19    20    1
    20    20    21    1
    21    21    22    1
    22    22    23    1
    23    23    24    1
    24    24    25    1
    25    24    26    1
    26    22    27    1
    27    15     4   ar
    28    26    18    1
    29    27    18    1
    30    25    20    1
    31     1    28    1
    32     1    29    1
    33     1    30    1
    34     3    31    1
    35     3    32    1
    36     5    33    1
    37     6    34    1
    38     8    35    1
    39     9    36    1
    40    12    37    1
    41    13    38    1
    42    14    39    1
    43    17    40    1
    44    17    41    1
    45    19    42    1
    46    19    43    1
    47    20    44    1
    48    21    45    1
    49    21    46    1
    50    22    47    1
    51    23    48    1
    52    23    49    1
    53    24    50    1
    54    25    51    1
    55    25    52    1
    56    26    53    1
    57    26    54    1
    58    27    55    1
    59    27    56    1
