
     RDKit          3D

 56 59  0  0  0  0  0  0  0  0999 V2000
    0.5995    1.6431   -1.1113 C   0  0  0  0  0  0  0  0  0  0  0  0
   -0.3356    0.5612   -0.6034 N   0  0  0  0  0  0  0  0  0  0  0  0
    0.2388    0.2002    0.7239 C   0  0  0  0  0  0  0  0  0  0  0  0
    1.7023   -0.0619    0.5803 C   0  0  0  0  0  0  0  0  0  0  0  0
    2.5342    0.9376    1.0386 C   0  0  0  0  0  0  0  0  0  0  0  0
    3.8907    0.8273    0.9707 C   0  0  0  0  0  0  0  0  0  0  0  0
    4.4673   -0.3237    0.4253 C   0  0  0  0  0  0  0  0  0  0  0  0
    5.9132   -0.4346    0.3608 C   0  0  0  0  0  0  0  0  0  0  0  0
    6.5895   -1.4522   -0.1248 C   0  0  0  0  0  0  0  0  0  0  0  0
    8.0435   -1.5307   -0.1734 C   0  0  0  0  0  0  0  0  0  0  0  0
    8.5706   -2.5641   -0.6660 O   0  0  0  0  0  0  0  0  0  0  0  0
    8.8761   -0.4986    0.3088 N   0  0  0  0  0  0  0  0  0  0  0  0
   10.2241   -0.6126    0.2450 O   0  0  0  0  0  0  0  0  0  0  0  0
    3.6076   -1.3207   -0.0310 C   0  0  0  0  0  0  0  0  0  0  0  0
    2.2364   -1.1961    0.0433 C   0  0  0  0  0  0  0  0  0  0  0  0
    1.3964   -2.1658   -0.4040 F   0  0  0  0  0  0  0  0  0  0  0  0
   -1.5601    1.2472   -0.3408 C   0  0  0  0  0  0  0  0  0  0  0  0
   -2.8006    0.4949   -0.0914 C   0  0  0  0  0  0  0  0  0  0  0  0
   -2.8459   -0.4539    1.0475 C   0  0  0  0  0  0  0  0  0  0  0  0
   -4.2682   -0.9476    1.2745 C   0  0  0  0  0  0  0  0  0  0  0  0
   -5.2691    0.1278    1.4889 C   0  0  0  0  0  0  0  0  0  0  0  0
   -5.2399    1.0459    0.2579 C   0  0  0  0  0  0  0  0  0  0  0  0
   -5.6003    0.2744   -0.9822 C   0  0  0  0  0  0  0  0  0  0  0  0
   -4.6027   -0.8602   -1.1442 C   0  0  0  0  0  0  0  0  0  0  0  0
   -4.6549   -1.7623    0.0559 C   0  0  0  0  0  0  0  0  0  0  0  0
   -3.2458   -0.2606   -1.3368 C   0  0  0  0  0  0  0  0  0  0  0  0
   -3.8562    1.5986    0.1991 C   0  0  0  0  0  0  0  0  0  0  0  0
    1.5963    1.2366   -1.2517 H   0  0  0  0  0  0  0  0  0  0  0  0
    0.5940    2.4725   -0.3793 H   0  0  0  0  0  0  0  0  0  0  0  0
    0.1848    1.9961   -2.0633 H   0  0  0  0  0  0  0  0  0  0  0  0
    0.0354    1.0103    1.4310 H   0  0  0  0  0  0  0  0  0  0  0  0
   -0.2554   -0.7247    1.0304 H   0  0  0  0  0  0  0  0  0  0  0  0
    2.1222    1.8623    1.4773 H   0  0  0  0  0  0  0  0  0  0  0  0
    4.5718    1.5954    1.3216 H   0  0  0  0  0  0  0  0  0  0  0  0
    6.4964    0.3869    0.7435 H   0  0  0  0  0  0  0  0  0  0  0  0
    5.9862   -2.2742   -0.5076 H   0  0  0  0  0  0  0  0  0  0  0  0
    8.4864    0.3672    0.7223 H   0  0  0  0  0  0  0  0  0  0  0  0
   10.5949    0.2914    0.1122 H   0  0  0  0  0  0  0  0  0  0  0  0
    3.9946   -2.2342   -0.4614 H   0  0  0  0  0  0  0  0  0  0  0  0
   -1.4430    1.9856    0.5138 H   0  0  0  0  0  0  0  0  0  0  0  0
   -1.7695    1.9396   -1.2170 H   0  0  0  0  0  0  0  0  0  0  0  0
   -2.3688   -0.1466    1.9750 H   0  0  0  0  0  0  0  0  0  0  0  0
   -2.3314   -1.4121    0.6864 H   0  0  0  0  0  0  0  0  0  0  0  0
   -4.2671   -1.6100    2.1668 H   0  0  0  0  0  0  0  0  0  0  0  0
   -6.2492   -0.3326    1.6403 H   0  0  0  0  0  0  0  0  0  0  0  0
   -4.9284    0.7610    2.3411 H   0  0  0  0  0  0  0  0  0  0  0  0
   -5.9292    1.9005    0.3979 H   0  0  0  0  0  0  0  0  0  0  0  0
   -5.4620    0.9438   -1.8465 H   0  0  0  0  0  0  0  0  0  0  0  0
   -6.6339   -0.0861   -0.8673 H   0  0  0  0  0  0  0  0  0  0  0  0
   -4.8786   -1.4044   -2.0714 H   0  0  0  0  0  0  0  0  0  0  0  0
   -5.7020   -2.0859    0.2153 H   0  0  0  0  0  0  0  0  0  0  0  0
   -3.9989   -2.6299   -0.1096 H   0  0  0  0  0  0  0  0  0  0  0  0
   -3.1996    0.3468   -2.2452 H   0  0  0  0  0  0  0  0  0  0  0  0
   -2.5310   -1.1020   -1.4652 H   0  0  0  0  0  0  0  0  0  0  0  0
   -3.7275    2.4354   -0.5096 H   0  0  0  0  0  0  0  0  0  0  0  0
   -3.5984    1.9988    1.2115 H   0  0  0  0  0  0  0  0  0  0  0  0
  1  2  1  0
  2  3  1  0
  3  4  1  0
  4  5  2  0
  5  6  1  0
  6  7  2  0
  7  8  1  0
  8  9  2  0
  9 10  1  0
 10 11  2  0
 10 12  1  0
 12 13  1  0
  7 14  1  0
 14 15  2  0
 15 16  1  0
  2 17  1  0
 17 18  1  0
 18 19  1  0
 19 20  1  0
 20 21  1  0
 21 22  1  0
 22 23  1  0
 23 24  1  0
 24 25  1  0
 24 26  1  0
 22 27  1  0
 15  4  1  0
 26 18  1  0
 27 18  1  0
 25 20  1  0
  1 28  1  0
  1 29  1  0
  1 30  1  0
  3 31  1  0
  3 32  1  0
  5 33  1  0
  6 34  1  0
  8 35  1  0
  9 36  1  0
 12 37  1  0
 13 38  1  0
 14 39  1  0
 17 40  1  0
 17 41  1  0
 19 42  1  0
 19 43  1  0
 20 44  1  0
 21 45  1  0
 21 46  1  0
 22 47  1  0
 23 48  1  0
 23 49  1  0
 24 50  1  0
 25 51  1  0
 25 52  1  0
 26 53  1  0
 26 54  1  0
 27 55  1  0
 27 56  1  0
M  END
$$$$
