
     RDKit          3D

 24 24  0  0  0  0  0  0  0  0999 V2000
   -1.7672   -1.5060    0.5159 N   0  0  0  0  0  0  0  0  0  0  0  0
   -1.6765   -0.0974    0.8342 C   0  0  1  0  0  0  0  0  0  0  0  0
   -0.8817    0.6817   -0.1463 C   0  0  0  0  0  0  0  0  0  0  0  0
    0.5094    0.2697   -0.3057 C   0  0  0  0  0  0  0  0  0  0  0  0
    0.8694   -0.6667   -1.2232 C   0  0  0  0  0  0  0  0  0  0  0  0
    2.1795   -1.0891   -1.4098 C   0  0  0  0  0  0  0  0  0  0  0  0
    3.1934   -0.5544   -0.6442 C   0  0  0  0  0  0  0  0  0  0  0  0
    2.8720    0.3979    0.2978 C   0  0  0  0  0  0  0  0  0  0  0  0
    3.8870    0.9477    1.0795 O   0  0  0  0  0  0  0  0  0  0  0  0
    1.5474    0.8042    0.4644 C   0  0  0  0  0  0  0  0  0  0  0  0
   -3.0752    0.4162    0.7656 C   0  0  0  0  0  0  0  0  0  0  0  0
   -4.4027    0.0811    0.5215 O   0  0  0  0  0  0  0  0  0  0  0  0
   -3.0569    1.6449    1.0354 O   0  0  0  0  0  0  0  0  0  0  0  0
   -2.5243   -1.9830    1.0109 H   0  0  0  0  0  0  0  0  0  0  0  0
   -1.7265   -1.6957   -0.5060 H   0  0  0  0  0  0  0  0  0  0  0  0
   -1.2724    0.0269    1.8456 H   0  0  0  0  0  0  0  0  0  0  0  0
   -1.4212    0.7350   -1.1331 H   0  0  0  0  0  0  0  0  0  0  0  0
   -0.8785    1.7403    0.2041 H   0  0  0  0  0  0  0  0  0  0  0  0
    0.1699   -1.1493   -1.8715 H   0  0  0  0  0  0  0  0  0  0  0  0
    2.4489   -1.8472   -2.1570 H   0  0  0  0  0  0  0  0  0  0  0  0
    4.2198   -0.8450   -0.7476 H   0  0  0  0  0  0  0  0  0  0  0  0
    4.3934    1.7159    0.6710 H   0  0  0  0  0  0  0  0  0  0  0  0
    1.3070    1.5455    1.1995 H   0  0  0  0  0  0  0  0  0  0  0  0
   -4.9142    0.4269   -0.3011 H   0  0  0  0  0  0  0  0  0  0  0  0
  1  2  1  0
  2  3  1  0
  3  4  1  0
  4  5  2  0
  5  6  1  0
  6  7  2  0
  7  8  1  0
  8  9  1  0
  8 10  2  0
  2 11  1  0
 11 12  1  0
 11 13  2  0
 10  4  1  0
  1 14  1  0
  1 15  1  0
  2 16  1  1
  3 17  1  0
  3 18  1  0
  5 19  1  0
  6 20  1  0
  7 21  1  0
  9 22  1  0
 10 23  1  0
 12 24  1  0
M  END
$$$$
