@<TRIPOS>MOLECULE
*****
 24 24 0 0 0
SMALL
GASTEIGER

@<TRIPOS>ATOM
      1 N          -1.7672   -1.5060    0.5159 N.3     1  UNL1       -0.3181
      2 CA         -1.6765   -0.0974    0.8342 C.3     1  UNL1        0.1072
      3 C          -0.8817    0.6817   -0.1463 C.3     1  UNL1       -0.0019
      4 C           0.5094    0.2697   -0.3057 C.ar    1  UNL1       -0.0419
      5 C           0.8694   -0.6667   -1.2232 C.ar    1  UNL1       -0.0583
      6 C           2.1795   -1.0891   -1.4098 C.ar    1  UNL1       -0.0581
      7 C           3.1934   -0.5544   -0.6442 C.ar    1  UNL1       -0.0202
      8 C           2.8720    0.3979    0.2978 C.ar    1  UNL1        0.1171
      9 O           3.8870    0.9477    1.0795 O.3     1  UNL1       -0.5068
     10 C           1.5474    0.8042    0.4644 C.ar    1  UNL1       -0.0169
     11 C          -3.0752    0.4162    0.7656 C.2     1  UNL1        0.3220
     12 O          -4.4027    0.0811    0.5215 O.3     1  UNL1       -0.4795
     13 OXT        -3.0569    1.6449    1.0354 O.2     1  UNL1       -0.2492
     14 H1         -2.5243   -1.9830    1.0109 H       1  UNL1        0.1190
     15 H2         -1.7265   -1.6957   -0.5060 H       1  UNL1        0.1190
     16 HA         -1.2724    0.0269    1.8456 H       1  UNL1        0.0577
     17 H          -1.4212    0.7350   -1.1331 H       1  UNL1        0.0334
     18 H          -0.8785    1.7403    0.2041 H       1  UNL1        0.0334
     19 H           0.1699   -1.1493   -1.8715 H       1  UNL1        0.0620
     20 H           2.4489   -1.8472   -2.1570 H       1  UNL1        0.0619
     21 H           4.2198   -0.8450   -0.7476 H       1  UNL1        0.0654
     22 H           4.3934    1.7159    0.6710 H       1  UNL1        0.2921
     23 H           1.3070    1.5455    1.1995 H       1  UNL1        0.0657
     24 H          -4.9142    0.4269   -0.3011 H       1  UNL1        0.2951
@<TRIPOS>BOND
     1     1     2    1
     2     2     3    1
     3     3     4    1
     4     4     5   ar
     5     5     6   ar
     6     6     7   ar
     7     7     8   ar
     8     8     9    1
     9     8    10   ar
    10     2    11    1
    11    11    12    1
    12    11    13    2
    13    10     4   ar
    14     1    14    1
    15     1    15    1
    16     2    16    1
    17     3    17    1
    18     3    18    1
    19     5    19    1
    20     6    20    1
    21     7    21    1
    22     9    22    1
    23    10    23    1
    24    12    24    1
