@<TRIPOS>MOLECULE
*****
 49 52 0 0 0
SMALL
GASTEIGER

@<TRIPOS>ATOM
      1 C          -3.3993    2.6513    2.2692 C.3     1  UNL1        0.0739
      2 S          -1.6638    2.5145    2.2881 S.O2    1  UNL1        0.0467
      3 O          -1.0671    3.8895    2.1139 O.2     1  UNL1       -0.1551
      4 O          -1.1734    1.9813    3.5981 O.2     1  UNL1       -0.1551
      5 N          -1.0242    1.4760    1.0326 N.am    1  UNL1       -0.1475
      6 C           0.3849    1.4007    0.8380 C.2     1  UNL1        0.3331
      7 O           1.1006    1.7617    1.8240 O.2     1  UNL1       -0.2500
      8 N           0.9465    0.9548   -0.3689 N.am    1  UNL1       -0.2263
      9 C           2.3299    0.8899   -0.5993 C.ar    1  UNL1        0.0431
     10 C           2.9890    1.9824   -1.1174 C.ar    1  UNL1       -0.0399
     11 C           4.3471    1.8794   -1.3300 C.ar    1  UNL1       -0.0595
     12 C           5.0657    0.7237   -1.0428 C.ar    1  UNL1       -0.0500
     13 C           4.3547   -0.3394   -0.5258 C.ar    1  UNL1        0.0566
     14 C           5.0583   -1.6245   -0.1922 C.3     1  UNL1        0.4175
     15 F           4.2681   -2.4077    0.6010 F       1  UNL1       -0.1659
     16 F           6.2194   -1.3543    0.4972 F       1  UNL1       -0.1659
     17 F           5.4204   -2.2787   -1.3716 F       1  UNL1       -0.1659
     18 C           2.9962   -0.2795   -0.2973 C.ar    1  UNL1       -0.0283
     19 C           0.0687    0.5326   -1.4397 C.2     1  UNL1        0.0290
     20 C          -1.2153    0.5425   -1.2268 C.2     1  UNL1        0.0392
     21 C          -1.9443    0.1182   -2.4362 C.2     1  UNL1        0.1632
     22 O          -3.1796    0.0777   -2.6156 O.2     1  UNL1       -0.2923
     23 C          -0.9269   -0.2628   -3.4292 C.3     1  UNL1        0.0154
     24 C           0.3572    0.0733   -2.8164 C.3     1  UNL1       -0.0064
     25 C          -1.8518    0.7276    0.1408 C.3     1  UNL1        0.1046
     26 C          -2.1465   -0.6347    0.7113 C.ar    1  UNL1       -0.0206
     27 C          -2.5960   -0.8328    1.9930 C.ar    1  UNL1       -0.0552
     28 C          -2.8534   -2.0829    2.5197 C.ar    1  UNL1       -0.0440
     29 C          -2.6549   -3.1866    1.7370 C.ar    1  UNL1        0.0518
     30 C          -2.9284   -4.4850    2.2943 C.1     1  UNL1        0.0992
     31 N          -3.1325   -5.5253    2.7531 N.1     1  UNL1       -0.1909
     32 C          -2.2118   -3.0203    0.4705 C.ar    1  UNL1       -0.0440
     33 C          -1.9467   -1.7504   -0.0744 C.ar    1  UNL1       -0.0552
     34 H          -3.9291    2.0400    3.0366 H       1  UNL1        0.0482
     35 H          -3.6823    3.7047    2.5087 H       1  UNL1        0.0482
     36 H          -3.8361    2.4620    1.2444 H       1  UNL1        0.0482
     37 H           2.4767    2.9158   -1.3618 H       1  UNL1        0.0636
     38 H           4.9275    2.7099   -1.7376 H       1  UNL1        0.0618
     39 H           6.1416    0.6698   -1.2205 H       1  UNL1        0.0623
     40 H           2.4772   -1.1574    0.1168 H       1  UNL1        0.0642
     41 H          -1.0895    0.3151   -4.3911 H       1  UNL1        0.0349
     42 H          -0.9966   -1.3569   -3.6687 H       1  UNL1        0.0349
     43 H           1.1376   -0.7071   -2.8555 H       1  UNL1        0.0330
     44 H           0.8120    0.9376   -3.3931 H       1  UNL1        0.0330
     45 H          -2.8218    1.2209   -0.0124 H       1  UNL1        0.0621
     46 H          -2.7617   -0.0092    2.6485 H       1  UNL1        0.0621
     47 H          -3.2055   -2.2186    3.5291 H       1  UNL1        0.0630
     48 H          -2.0530   -3.8978   -0.1505 H       1  UNL1        0.0630
     49 H          -1.5877   -1.7410   -1.0913 H       1  UNL1        0.0621
@<TRIPOS>BOND
     1     1     2    1
     2     2     3    2
     3     2     4    2
     4     2     5    1
     5     5     6   am
     6     6     7    2
     7     6     8   am
     8     8     9    1
     9     9    10   ar
    10    10    11   ar
    11    11    12   ar
    12    12    13   ar
    13    13    14    1
    14    14    15    1
    15    14    16    1
    16    14    17    1
    17    13    18   ar
    18     8    19    1
    19    19    20    2
    20    20    21    1
    21    21    22    2
    22    21    23    1
    23    23    24    1
    24    20    25    1
    25    25    26    1
    26    26    27   ar
    27    27    28   ar
    28    28    29   ar
    29    29    30    1
    30    30    31    3
    31    29    32   ar
    32    32    33   ar
    33    25     5    1
    34    33    26   ar
    35    18     9   ar
    36    24    19    1
    37     1    34    1
    38     1    35    1
    39     1    36    1
    40    10    37    1
    41    11    38    1
    42    12    39    1
    43    18    40    1
    44    23    41    1
    45    23    42    1
    46    24    43    1
    47    24    44    1
    48    25    45    1
    49    27    46    1
    50    28    47    1
    51    32    48    1
    52    33    49    1
