@<TRIPOS>MOLECULE
*****
 60 59 0 0 0
SMALL
GASTEIGER

@<TRIPOS>ATOM
      1 C           6.0502    1.6275   -0.7848 C.3     1  UNL1       -0.0636
      2 C           5.7903    0.1709   -0.9895 C.3     1  UNL1       -0.0380
      3 C           4.5155   -0.2822   -0.2138 C.3     1  UNL1        0.0134
      4 C           4.8787    0.0406    1.2350 C.3     1  UNL1       -0.0470
      5 C           4.3929   -1.7473   -0.4308 C.3     1  UNL1       -0.0470
      6 N           3.4800    0.5171   -0.7018 N.3     1  UNL1       -0.3083
      7 C           2.1299    0.2380   -0.5274 C.3     1  UNL1        0.0266
      8 C           1.5652    0.3273    0.8598 C.3     1  UNL1        0.0928
      9 O           2.0947   -0.5294    1.7829 O.3     1  UNL1       -0.3859
     10 C           0.0701    0.1922    0.8447 C.ar    1  UNL1       -0.0110
     11 C          -0.5353   -1.0440    0.8290 C.ar    1  UNL1       -0.0133
     12 C          -1.8966   -1.2150    0.8179 C.ar    1  UNL1        0.1371
     13 O          -2.5233   -2.4454    0.8017 O.3     1  UNL1       -0.4113
     14 C          -2.8513   -3.0811   -0.3784 C.2     1  UNL1        0.4077
     15 O          -2.5549   -2.4896   -1.4497 O.2     1  UNL1       -0.2258
     16 N          -3.4861   -4.3310   -0.3393 N.am    1  UNL1       -0.2732
     17 C          -3.8343   -5.0074   -1.5643 C.3     1  UNL1        0.0060
     18 C          -3.7955   -4.9523    0.9219 C.3     1  UNL1        0.0060
     19 C          -2.6731   -0.0775    0.8230 C.ar    1  UNL1        0.0233
     20 C          -2.1034    1.1878    0.8388 C.ar    1  UNL1        0.1371
     21 O          -2.8624    2.3384    0.8446 O.3     1  UNL1       -0.4113
     22 C          -3.3256    2.9520   -0.3071 C.2     1  UNL1        0.4077
     23 O          -3.0209    2.4070   -1.3968 O.2     1  UNL1       -0.2258
     24 N          -4.1015    4.1296   -0.2705 N.am    1  UNL1       -0.2732
     25 C          -4.4158    4.7074    1.0201 C.3     1  UNL1        0.0060
     26 C          -4.5597    4.7221   -1.5157 C.3     1  UNL1        0.0060
     27 C          -0.7285    1.3133    0.8495 C.ar    1  UNL1       -0.0133
     28 CL          0.6917    0.0000    0.0000 Cl      2  UNL2       -0.1454
     29 H           7.1555    1.7816   -0.9662 H       1  UNL1        0.0230
     30 H           5.5533    2.2201   -1.5886 H       1  UNL1        0.0230
     31 H           5.8197    2.0255    0.2029 H       1  UNL1        0.0230
     32 H           5.6485   -0.0291   -2.0539 H       1  UNL1        0.0280
     33 H           6.5919   -0.4569   -0.5700 H       1  UNL1        0.0280
     34 H           4.3287    0.9378    1.5768 H       1  UNL1        0.0247
     35 H           5.9611    0.3387    1.3336 H       1  UNL1        0.0247
     36 H           4.7399   -0.8321    1.8704 H       1  UNL1        0.0247
     37 H           3.8366   -2.2789    0.3662 H       1  UNL1        0.0247
     38 H           3.9901   -1.9520   -1.4408 H       1  UNL1        0.0247
     39 H           5.4202   -2.1849   -0.4206 H       1  UNL1        0.0247
     40 H           3.6998    1.5348   -0.6412 H       1  UNL1        0.1225
     41 H           1.5541    1.0371   -1.1121 H       1  UNL1        0.0453
     42 H           1.7793   -0.7020   -1.0461 H       1  UNL1        0.0453
     43 H           1.8042    1.3726    1.2184 H       1  UNL1        0.0656
     44 H           1.3886   -0.9392    2.3753 H       1  UNL1        0.2103
     45 H           0.1007   -1.9106    0.8248 H       1  UNL1        0.0658
     46 H          -3.2474   -4.6597   -2.4380 H       1  UNL1        0.0429
     47 H          -4.9292   -4.8806   -1.7201 H       1  UNL1        0.0429
     48 H          -3.6925   -6.1018   -1.3831 H       1  UNL1        0.0429
     49 H          -4.3529   -4.1876    1.5212 H       1  UNL1        0.0429
     50 H          -4.4406   -5.8396    0.8032 H       1  UNL1        0.0429
     51 H          -2.8547   -5.2522    1.4385 H       1  UNL1        0.0429
     52 H          -3.7596   -0.1360    0.8145 H       1  UNL1        0.0691
     53 H          -5.0889    5.5658    0.8373 H       1  UNL1        0.0429
     54 H          -3.4811    5.0443    1.5270 H       1  UNL1        0.0429
     55 H          -4.9119    3.9966    1.7031 H       1  UNL1        0.0429
     56 H          -3.7136    5.1663   -2.0767 H       1  UNL1        0.0429
     57 H          -5.3576    5.4559   -1.2905 H       1  UNL1        0.0429
     58 H          -4.9763    3.8958   -2.1260 H       1  UNL1        0.0429
     59 H          -0.2651    2.3017    0.8623 H       1  UNL1        0.0658
     60 H          -0.6917    0.0000    0.0000 H       1  UNL1        0.1454
@<TRIPOS>BOND
     1     1     2    1
     2     2     3    1
     3     3     4    1
     4     3     5    1
     5     3     6    1
     6     6     7    1
     7     7     8    1
     8     8     9    1
     9     8    10    1
    10    10    11   ar
    11    11    12   ar
    12    12    13    1
    13    13    14    1
    14    14    15    2
    15    14    16   am
    16    16    17    1
    17    16    18    1
    18    12    19   ar
    19    19    20   ar
    20    20    21    1
    21    21    22    1
    22    22    23    2
    23    22    24   am
    24    24    25    1
    25    24    26    1
    26    20    27   ar
    27    27    10   ar
    28     1    29    1
    29     1    30    1
    30     1    31    1
    31     2    32    1
    32     2    33    1
    33     4    34    1
    34     4    35    1
    35     4    36    1
    36     5    37    1
    37     5    38    1
    38     5    39    1
    39     6    40    1
    40     7    41    1
    41     7    42    1
    42     8    43    1
    43     9    44    1
    44    11    45    1
    45    17    46    1
    46    17    47    1
    47    17    48    1
    48    18    49    1
    49    18    50    1
    50    18    51    1
    51    19    52    1
    52    25    53    1
    53    25    54    1
    54    25    55    1
    55    26    56    1
    56    26    57    1
    57    26    58    1
    58    27    59    1
    59    28    60    1
