
     RDKit          3D

 39 42  0  0  0  0  0  0  0  0999 V2000
   -2.4993    3.9180   -0.6532 N   0  0  0  0  0  0  0  0  0  0  0  0
   -1.6087    2.9232   -0.2308 C   0  0  0  0  0  0  0  0  0  0  0  0
   -1.6561    1.6940   -0.4938 N   0  0  0  0  0  0  0  0  0  0  0  0
   -0.8376    0.5779   -0.1428 C   0  0  1  0  0  0  0  0  0  0  0  0
   -1.8179   -0.4448    0.3626 C   0  0  0  0  0  0  0  0  0  0  0  0
   -1.7523   -0.9101    1.6423 C   0  0  0  0  0  0  0  0  0  0  0  0
   -2.7091   -1.8563    2.0460 C   0  0  0  0  0  0  0  0  0  0  0  0
   -3.6664   -2.2862    1.1772 C   0  0  0  0  0  0  0  0  0  0  0  0
   -4.5780   -3.2028    1.5991 F   0  0  0  0  0  0  0  0  0  0  0  0
   -3.7548   -1.8316   -0.1209 C   0  0  0  0  0  0  0  0  0  0  0  0
   -2.8171   -0.9081   -0.5079 C   0  0  0  0  0  0  0  0  0  0  0  0
   -2.8592   -0.4313   -1.7678 F   0  0  0  0  0  0  0  0  0  0  0  0
   -0.2000    0.0259   -1.4413 C   0  0  0  0  0  0  0  0  0  0  0  0
    1.1643    0.0077   -1.4086 O   0  0  0  0  0  0  0  0  0  0  0  0
    1.6432   -0.8724   -0.4167 C   0  0  1  0  0  0  0  0  0  0  0  0
    3.0973   -1.0499   -0.6304 C   0  0  0  0  0  0  0  0  0  0  0  0
    4.0309   -0.1100   -0.8970 N   0  0  0  0  0  0  0  0  0  0  0  0
    5.2262   -0.7192   -1.0156 C   0  0  0  0  0  0  0  0  0  0  0  0
    4.9916   -2.0630   -0.8124 C   0  0  0  0  0  0  0  0  0  0  0  0
    3.7105   -2.2051   -0.5876 O   0  0  0  0  0  0  0  0  0  0  0  0
    1.3315   -0.1728    0.8917 C   0  0  0  0  0  0  0  0  0  0  0  0
    0.2759    0.8667    0.7805 C   0  0  1  0  0  0  0  0  0  0  0  0
    1.0073    2.1679    0.3911 C   0  0  0  0  0  0  0  0  0  0  0  0
   -0.2391    3.4611    0.7974 S   0  0  0  0  0  0  0  0  0  0  0  0
   -3.2067    4.2829    0.0066 H   0  0  0  0  0  0  0  0  0  0  0  0
   -2.4700    4.3009   -1.6124 H   0  0  0  0  0  0  0  0  0  0  0  0
   -1.0097   -0.5853    2.3598 H   0  0  0  0  0  0  0  0  0  0  0  0
   -2.6299   -2.2084    3.0732 H   0  0  0  0  0  0  0  0  0  0  0  0
   -4.5341   -2.1991   -0.7848 H   0  0  0  0  0  0  0  0  0  0  0  0
   -0.6237   -0.9989   -1.6541 H   0  0  0  0  0  0  0  0  0  0  0  0
   -0.5188    0.6508   -2.2996 H   0  0  0  0  0  0  0  0  0  0  0  0
    1.1561   -1.8410   -0.5203 H   0  0  0  0  0  0  0  0  0  0  0  0
    6.1568   -0.2133   -1.2284 H   0  0  0  0  0  0  0  0  0  0  0  0
    5.7765   -2.8095   -0.8476 H   0  0  0  0  0  0  0  0  0  0  0  0
    1.2141   -0.8941    1.7253 H   0  0  0  0  0  0  0  0  0  0  0  0
    2.3032    0.3465    1.1610 H   0  0  0  0  0  0  0  0  0  0  0  0
   -0.1271    1.0920    1.7904 H   0  0  0  0  0  0  0  0  0  0  0  0
    1.9187    2.2865    0.9684 H   0  0  0  0  0  0  0  0  0  0  0  0
    1.1113    2.2111   -0.6985 H   0  0  0  0  0  0  0  0  0  0  0  0
  1  2  1  0
  2  3  2  0
  3  4  1  0
  4  5  1  1
  5  6  2  0
  6  7  1  0
  7  8  2  0
  8  9  1  0
  8 10  1  0
 10 11  2  0
 11 12  1  0
  4 13  1  0
 13 14  1  0
 14 15  1  0
 15 16  1  0
 16 17  2  0
 17 18  1  0
 18 19  2  0
 19 20  1  0
 15 21  1  0
 21 22  1  0
 22 23  1  0
 23 24  1  0
 24  2  1  0
 22  4  1  0
 11  5  1  0
 20 16  1  0
  1 25  1  0
  1 26  1  0
  6 27  1  0
  7 28  1  0
 10 29  1  0
 13 30  1  0
 13 31  1  0
 15 32  1  1
 18 33  1  0
 19 34  1  0
 21 35  1  0
 21 36  1  0
 22 37  1  1
 23 38  1  0
 23 39  1  0
M  END
$$$$
