@<TRIPOS>MOLECULE
*****
 39 42 0 0 0
SMALL
GASTEIGER

@<TRIPOS>ATOM
      1 N          -2.4993    3.9180   -0.6532 N.pl3   1  UNL1       -0.3380
      2 C          -1.6087    2.9232   -0.2308 C.2     1  UNL1        0.1476
      3 N          -1.6561    1.6940   -0.4938 N.2     1  UNL1       -0.2495
      4 C          -0.8376    0.5779   -0.1428 C.3     1  UNL1        0.1185
      5 C          -1.8179   -0.4448    0.3626 C.ar    1  UNL1        0.0178
      6 C          -1.7523   -0.9101    1.6423 C.ar    1  UNL1       -0.0507
      7 C          -2.7091   -1.8563    2.0460 C.ar    1  UNL1       -0.0259
      8 C          -3.6664   -2.2862    1.1772 C.ar    1  UNL1        0.1261
      9 F          -4.5780   -3.2028    1.5991 F       1  UNL1       -0.2054
     10 C          -3.7548   -1.8316   -0.1209 C.ar    1  UNL1        0.0091
     11 C          -2.8171   -0.9081   -0.5079 C.ar    1  UNL1        0.1317
     12 F          -2.8592   -0.4313   -1.7678 F       1  UNL1       -0.2050
     13 C          -0.2000    0.0259   -1.4413 C.3     1  UNL1        0.0783
     14 O           1.1643    0.0077   -1.4086 O.3     1  UNL1       -0.3645
     15 C           1.6432   -0.8724   -0.4167 C.3     1  UNL1        0.1347
     16 C           3.0973   -1.0499   -0.6304 C.ar    1  UNL1        0.2243
     17 N           4.0309   -0.1100   -0.8970 N.ar    1  UNL1       -0.2196
     18 C           5.2262   -0.7192   -1.0156 C.ar    1  UNL1        0.0660
     19 C           4.9916   -2.0630   -0.8124 C.ar    1  UNL1        0.1122
     20 O           3.7105   -2.2051   -0.5876 O.2     1  UNL1       -0.4452
     21 C           1.3315   -0.1728    0.8917 C.3     1  UNL1       -0.0117
     22 C           0.2759    0.8667    0.7805 C.3     1  UNL1        0.0029
     23 C           1.0073    2.1679    0.3911 C.3     1  UNL1        0.0064
     24 S          -0.2391    3.4611    0.7974 S.3     1  UNL1       -0.0907
     25 H          -3.2067    4.2829    0.0066 H       1  UNL1        0.1442
     26 H          -2.4700    4.3009   -1.6124 H       1  UNL1        0.1442
     27 H          -1.0097   -0.5853    2.3598 H       1  UNL1        0.0623
     28 H          -2.6299   -2.2084    3.0732 H       1  UNL1        0.0646
     29 H          -4.5341   -2.1991   -0.7848 H       1  UNL1        0.0675
     30 H          -0.6237   -0.9989   -1.6541 H       1  UNL1        0.0588
     31 H          -0.5188    0.6508   -2.2996 H       1  UNL1        0.0588
     32 H           1.1561   -1.8410   -0.5203 H       1  UNL1        0.0694
     33 H           6.1568   -0.2133   -1.2284 H       1  UNL1        0.0862
     34 H           5.7765   -2.8095   -0.8476 H       1  UNL1        0.1046
     35 H           1.2141   -0.8941    1.7253 H       1  UNL1        0.0299
     36 H           2.3032    0.3465    1.1610 H       1  UNL1        0.0299
     37 H          -0.1271    1.0920    1.7904 H       1  UNL1        0.0337
     38 H           1.9187    2.2865    0.9684 H       1  UNL1        0.0384
     39 H           1.1113    2.2111   -0.6985 H       1  UNL1        0.0384
@<TRIPOS>BOND
     1     1     2    1
     2     2     3    2
     3     3     4    1
     4     4     5    1
     5     5     6   ar
     6     6     7   ar
     7     7     8   ar
     8     8     9    1
     9     8    10   ar
    10    10    11   ar
    11    11    12    1
    12     4    13    1
    13    13    14    1
    14    14    15    1
    15    15    16    1
    16    16    17   ar
    17    17    18   ar
    18    18    19   ar
    19    19    20   ar
    20    15    21    1
    21    21    22    1
    22    22    23    1
    23    23    24    1
    24    24     2    1
    25    22     4    1
    26    11     5   ar
    27    20    16   ar
    28     1    25    1
    29     1    26    1
    30     6    27    1
    31     7    28    1
    32    10    29    1
    33    13    30    1
    34    13    31    1
    35    15    32    1
    36    18    33    1
    37    19    34    1
    38    21    35    1
    39    21    36    1
    40    22    37    1
    41    23    38    1
    42    23    39    1
