
     RDKit          3D

 28 30  0  0  0  0  0  0  0  0999 V2000
    5.8416   -0.4494   -0.3611 O   0  0  0  0  0  0  0  0  0  0  0  0
    4.4576   -0.3432   -0.2796 C   0  0  0  0  0  0  0  0  0  0  0  0
    3.8846    0.8798    0.0292 C   0  0  0  0  0  0  0  0  0  0  0  0
    2.5068    1.0078    0.1156 C   0  0  0  0  0  0  0  0  0  0  0  0
    1.7682   -0.1429   -0.1225 C   0  0  0  0  0  0  0  0  0  0  0  0
    2.3114   -1.3737   -0.4318 C   0  0  0  0  0  0  0  0  0  0  0  0
    3.6935   -1.4742   -0.5120 C   0  0  0  0  0  0  0  0  0  0  0  0
    0.3045   -0.0095   -0.0313 C   0  0  0  0  0  0  0  0  0  0  0  0
   -0.6220   -1.0361   -0.2327 C   0  0  0  0  0  0  0  0  0  0  0  0
   -1.8817   -0.5024   -0.0565 C   0  0  0  0  0  0  0  0  0  0  0  0
   -1.6708    0.8272    0.2449 C   0  0  0  0  0  0  0  0  0  0  0  0
   -0.3753    1.0603    0.2461 O   0  0  0  0  0  0  0  0  0  0  0  0
   -2.8036    1.5824    0.4675 C   0  0  0  0  0  0  0  0  0  0  0  0
   -4.0836    1.0298    0.3912 C   0  0  0  0  0  0  0  0  0  0  0  0
   -4.2082   -0.3065    0.0846 C   0  0  0  0  0  0  0  0  0  0  0  0
   -5.4919   -0.8549    0.0094 O   0  0  0  0  0  0  0  0  0  0  0  0
   -3.1133   -1.1117   -0.1481 C   0  0  0  0  0  0  0  0  0  0  0  0
   -2.6665    2.9765    0.7870 C   0  0  0  0  0  0  0  0  0  0  0  0
   -2.5491    4.0989    1.0320 N   0  0  0  0  0  0  0  0  0  0  0  0
    6.4354   -0.6329    0.4288 H   0  0  0  0  0  0  0  0  0  0  0  0
    4.5248    1.7479    0.2053 H   0  0  0  0  0  0  0  0  0  0  0  0
    2.0178    1.9502    0.3554 H   0  0  0  0  0  0  0  0  0  0  0  0
    1.7128   -2.2474   -0.6110 H   0  0  0  0  0  0  0  0  0  0  0  0
    4.2105   -2.3946   -0.7478 H   0  0  0  0  0  0  0  0  0  0  0  0
   -0.3918   -2.0701   -0.4833 H   0  0  0  0  0  0  0  0  0  0  0  0
   -4.9618    1.6342    0.5682 H   0  0  0  0  0  0  0  0  0  0  0  0
   -5.6414   -1.6798   -0.5574 H   0  0  0  0  0  0  0  0  0  0  0  0
   -3.2085   -2.1660   -0.3901 H   0  0  0  0  0  0  0  0  0  0  0  0
  1  2  1  0
  2  3  2  0
  3  4  1  0
  4  5  2  0
  5  6  1  0
  6  7  2  0
  5  8  1  0
  8  9  2  0
  9 10  1  0
 10 11  2  0
 11 12  1  0
 11 13  1  0
 13 14  2  0
 14 15  1  0
 15 16  1  0
 15 17  2  0
 13 18  1  0
 18 19  3  0
  7  2  1  0
 12  8  1  0
 17 10  1  0
  1 20  1  0
  3 21  1  0
  4 22  1  0
  6 23  1  0
  7 24  1  0
  9 25  1  0
 14 26  1  0
 16 27  1  0
 17 28  1  0
M  END
$$$$
