@<TRIPOS>MOLECULE
*****
 28 30 0 0 0
SMALL
GASTEIGER

@<TRIPOS>ATOM
      1 O           5.8416   -0.4494   -0.3611 O.3     1  UNL1       -0.5068
      2 C           4.4576   -0.3432   -0.2796 C.ar    1  UNL1        0.1169
      3 C           3.8846    0.8798    0.0292 C.ar    1  UNL1       -0.0195
      4 C           2.5068    1.0078    0.1156 C.ar    1  UNL1       -0.0476
      5 C           1.7682   -0.1429   -0.1225 C.ar    1  UNL1        0.0175
      6 C           2.3114   -1.3737   -0.4318 C.ar    1  UNL1       -0.0476
      7 C           3.6935   -1.4742   -0.5120 C.ar    1  UNL1       -0.0195
      8 C           0.3045   -0.0095   -0.0313 C.ar    1  UNL1        0.1363
      9 C          -0.6220   -1.0361   -0.2327 C.ar    1  UNL1       -0.0079
     10 C          -1.8817   -0.5024   -0.0565 C.ar    1  UNL1        0.0255
     11 C          -1.6708    0.8272    0.2449 C.ar    1  UNL1        0.1532
     12 O          -0.3753    1.0603    0.2461 O.2     1  UNL1       -0.4535
     13 C          -2.8036    1.5824    0.4675 C.ar    1  UNL1        0.0979
     14 C          -4.0836    1.0298    0.3912 C.ar    1  UNL1        0.0008
     15 C          -4.2082   -0.3065    0.0846 C.ar    1  UNL1        0.1189
     16 O          -5.4919   -0.8549    0.0094 O.3     1  UNL1       -0.5067
     17 C          -3.1133   -1.1117   -0.1481 C.ar    1  UNL1       -0.0093
     18 C          -2.6665    2.9765    0.7870 C.1     1  UNL1        0.1030
     19 N          -2.5491    4.0989    1.0320 N.1     1  UNL1       -0.1907
     20 H           6.4354   -0.6329    0.4288 H       1  UNL1        0.2921
     21 H           4.5248    1.7479    0.2053 H       1  UNL1        0.0654
     22 H           2.0178    1.9502    0.3554 H       1  UNL1        0.0626
     23 H           1.7128   -2.2474   -0.6110 H       1  UNL1        0.0626
     24 H           4.2105   -2.3946   -0.7478 H       1  UNL1        0.0654
     25 H          -0.3918   -2.0701   -0.4833 H       1  UNL1        0.0661
     26 H          -4.9618    1.6342    0.5682 H       1  UNL1        0.0668
     27 H          -5.6414   -1.6798   -0.5574 H       1  UNL1        0.2921
     28 H          -3.2085   -2.1660   -0.3901 H       1  UNL1        0.0661
@<TRIPOS>BOND
     1     1     2    1
     2     2     3   ar
     3     3     4   ar
     4     4     5   ar
     5     5     6   ar
     6     6     7   ar
     7     5     8    1
     8     8     9   ar
     9     9    10   ar
    10    10    11   ar
    11    11    12   ar
    12    11    13   ar
    13    13    14   ar
    14    14    15   ar
    15    15    16    1
    16    15    17   ar
    17    13    18    1
    18    18    19    3
    19     7     2   ar
    20    12     8   ar
    21    17    10   ar
    22     1    20    1
    23     3    21    1
    24     4    22    1
    25     6    23    1
    26     7    24    1
    27     9    25    1
    28    14    26    1
    29    16    27    1
    30    17    28    1
