@<TRIPOS>MOLECULE
*****
 53 55 0 0 0
SMALL
GASTEIGER

@<TRIPOS>ATOM
      1 C          -1.8985   -2.3531   -2.1524 C.3     1  UNL1       -0.0493
      2 C          -2.6627   -1.7042   -1.0248 C.3     1  UNL1        0.0118
      3 N          -1.7935   -1.0973   -0.0360 N.am    1  UNL1       -0.3017
      4 C          -1.4273   -1.9149    1.0834 C.3     1  UNL1        0.0118
      5 C          -2.5005   -1.7983    2.1742 C.3     1  UNL1       -0.0493
      6 C          -1.3724    0.2381   -0.1305 C.2     1  UNL1        0.2207
      7 O          -1.8481    0.9219   -1.1111 O.2     1  UNL1       -0.2752
      8 C          -0.4533    0.9657    0.7545 C.3     1  UNL1        0.0581
      9 C           0.9779    0.9211    0.3421 C.3     1  UNL1       -0.0019
     10 C           1.5521   -0.4052    0.0987 C.ar    1  UNL1       -0.0434
     11 C           1.1655   -1.1365   -0.9969 C.ar    1  UNL1       -0.0580
     12 C           1.6812   -2.3986   -1.2664 C.ar    1  UNL1       -0.0586
     13 C           2.6142   -2.9516   -0.4156 C.ar    1  UNL1       -0.0504
     14 C           3.1988   -4.3034   -0.6602 C.3     1  UNL1       -0.0397
     15 C           3.0219   -2.2322    0.6996 C.ar    1  UNL1       -0.0586
     16 C           2.4801   -0.9681    0.9350 C.ar    1  UNL1       -0.0580
     17 C           1.2753    1.8447   -0.8245 C.3     1  UNL1       -0.0297
     18 C           0.5985    3.1598   -0.6618 C.3     1  UNL1        0.0110
     19 C           1.0340    3.8014    0.6381 C.3     1  UNL1       -0.0359
     20 C           0.0361    3.2725    1.6206 C.3     1  UNL1       -0.0352
     21 C          -0.8994    2.4124    0.8054 C.3     1  UNL1        0.0221
     22 N          -0.8300    2.9258   -0.5484 N.3     1  UNL1       -0.2987
     23 C          -1.5913    4.1500   -0.6907 C.3     1  UNL1       -0.0122
     24 H          -2.5978   -2.9720   -2.7555 H       1  UNL1        0.0245
     25 H          -1.4393   -1.6252   -2.8202 H       1  UNL1        0.0245
     26 H          -1.1106   -2.9954   -1.7197 H       1  UNL1        0.0245
     27 H          -3.2646   -0.8778   -1.4975 H       1  UNL1        0.0462
     28 H          -3.4042   -2.3846   -0.5765 H       1  UNL1        0.0462
     29 H          -1.3279   -2.9685    0.7492 H       1  UNL1        0.0462
     30 H          -0.4673   -1.6364    1.5406 H       1  UNL1        0.0462
     31 H          -2.1903   -1.0082    2.8559 H       1  UNL1        0.0245
     32 H          -2.5949   -2.7810    2.6793 H       1  UNL1        0.0245
     33 H          -3.4263   -1.5130    1.6594 H       1  UNL1        0.0245
     34 H          -0.5345    0.5839    1.8177 H       1  UNL1        0.0416
     35 H           1.5698    1.3648    1.2000 H       1  UNL1        0.0357
     36 H           0.4376   -0.6970   -1.6599 H       1  UNL1        0.0620
     37 H           1.3691   -2.9646   -2.1320 H       1  UNL1        0.0620
     38 H           3.6066   -4.7194    0.2841 H       1  UNL1        0.0278
     39 H           2.3964   -5.0083   -0.9873 H       1  UNL1        0.0278
     40 H           4.0337   -4.2628   -1.3867 H       1  UNL1        0.0278
     41 H           3.7547   -2.6842    1.3543 H       1  UNL1        0.0620
     42 H           2.8387   -0.4570    1.8218 H       1  UNL1        0.0620
     43 H           2.3858    2.0308   -0.7933 H       1  UNL1        0.0286
     44 H           1.0800    1.3667   -1.7904 H       1  UNL1        0.0286
     45 H           0.8428    3.8152   -1.5105 H       1  UNL1        0.0463
     46 H           1.0170    4.9060    0.5447 H       1  UNL1        0.0281
     47 H           2.0703    3.4863    0.8309 H       1  UNL1        0.0281
     48 H          -0.5126    4.1324    2.0623 H       1  UNL1        0.0281
     49 H           0.4948    2.7157    2.4631 H       1  UNL1        0.0281
     50 H          -1.9134    2.5197    1.2418 H       1  UNL1        0.0470
     51 H          -2.6224    3.8510   -0.9801 H       1  UNL1        0.0391
     52 H          -1.6528    4.6090    0.3236 H       1  UNL1        0.0391
     53 H          -1.1970    4.8240   -1.4516 H       1  UNL1        0.0391
@<TRIPOS>BOND
     1     1     2    1
     2     2     3    1
     3     3     4    1
     4     4     5    1
     5     3     6   am
     6     6     7    2
     7     6     8    1
     8     8     9    1
     9     9    10    1
    10    10    11   ar
    11    11    12   ar
    12    12    13   ar
    13    13    14    1
    14    13    15   ar
    15    15    16   ar
    16     9    17    1
    17    17    18    1
    18    18    19    1
    19    19    20    1
    20    20    21    1
    21    21    22    1
    22    22    23    1
    23    21     8    1
    24    16    10   ar
    25    22    18    1
    26     1    24    1
    27     1    25    1
    28     1    26    1
    29     2    27    1
    30     2    28    1
    31     4    29    1
    32     4    30    1
    33     5    31    1
    34     5    32    1
    35     5    33    1
    36     8    34    1
    37     9    35    1
    38    11    36    1
    39    12    37    1
    40    14    38    1
    41    14    39    1
    42    14    40    1
    43    15    41    1
    44    16    42    1
    45    17    43    1
    46    17    44    1
    47    18    45    1
    48    19    46    1
    49    19    47    1
    50    20    48    1
    51    20    49    1
    52    21    50    1
    53    23    51    1
    54    23    52    1
    55    23    53    1
