
     RDKit          3D

 53 55  0  0  0  0  0  0  0  0999 V2000
   -1.8985   -2.3531   -2.1524 C   0  0  0  0  0  0  0  0  0  0  0  0
   -2.6627   -1.7042   -1.0248 C   0  0  0  0  0  0  0  0  0  0  0  0
   -1.7935   -1.0973   -0.0360 N   0  0  0  0  0  0  0  0  0  0  0  0
   -1.4273   -1.9149    1.0834 C   0  0  0  0  0  0  0  0  0  0  0  0
   -2.5005   -1.7983    2.1742 C   0  0  0  0  0  0  0  0  0  0  0  0
   -1.3724    0.2381   -0.1305 C   0  0  0  0  0  0  0  0  0  0  0  0
   -1.8481    0.9219   -1.1111 O   0  0  0  0  0  0  0  0  0  0  0  0
   -0.4533    0.9657    0.7545 C   0  0  0  0  0  0  0  0  0  0  0  0
    0.9779    0.9211    0.3421 C   0  0  0  0  0  0  0  0  0  0  0  0
    1.5521   -0.4052    0.0987 C   0  0  0  0  0  0  0  0  0  0  0  0
    1.1655   -1.1365   -0.9969 C   0  0  0  0  0  0  0  0  0  0  0  0
    1.6812   -2.3986   -1.2664 C   0  0  0  0  0  0  0  0  0  0  0  0
    2.6142   -2.9516   -0.4156 C   0  0  0  0  0  0  0  0  0  0  0  0
    3.1988   -4.3034   -0.6602 C   0  0  0  0  0  0  0  0  0  0  0  0
    3.0219   -2.2322    0.6996 C   0  0  0  0  0  0  0  0  0  0  0  0
    2.4801   -0.9681    0.9350 C   0  0  0  0  0  0  0  0  0  0  0  0
    1.2753    1.8447   -0.8245 C   0  0  0  0  0  0  0  0  0  0  0  0
    0.5985    3.1598   -0.6618 C   0  0  0  0  0  0  0  0  0  0  0  0
    1.0340    3.8014    0.6381 C   0  0  0  0  0  0  0  0  0  0  0  0
    0.0361    3.2725    1.6206 C   0  0  0  0  0  0  0  0  0  0  0  0
   -0.8994    2.4124    0.8054 C   0  0  0  0  0  0  0  0  0  0  0  0
   -0.8300    2.9258   -0.5484 N   0  0  0  0  0  0  0  0  0  0  0  0
   -1.5913    4.1500   -0.6907 C   0  0  0  0  0  0  0  0  0  0  0  0
   -2.5978   -2.9720   -2.7555 H   0  0  0  0  0  0  0  0  0  0  0  0
   -1.4393   -1.6252   -2.8202 H   0  0  0  0  0  0  0  0  0  0  0  0
   -1.1106   -2.9954   -1.7197 H   0  0  0  0  0  0  0  0  0  0  0  0
   -3.2646   -0.8778   -1.4975 H   0  0  0  0  0  0  0  0  0  0  0  0
   -3.4042   -2.3846   -0.5765 H   0  0  0  0  0  0  0  0  0  0  0  0
   -1.3279   -2.9685    0.7492 H   0  0  0  0  0  0  0  0  0  0  0  0
   -0.4673   -1.6364    1.5406 H   0  0  0  0  0  0  0  0  0  0  0  0
   -2.1903   -1.0082    2.8559 H   0  0  0  0  0  0  0  0  0  0  0  0
   -2.5949   -2.7810    2.6793 H   0  0  0  0  0  0  0  0  0  0  0  0
   -3.4263   -1.5130    1.6594 H   0  0  0  0  0  0  0  0  0  0  0  0
   -0.5345    0.5839    1.8177 H   0  0  0  0  0  0  0  0  0  0  0  0
    1.5698    1.3648    1.2000 H   0  0  0  0  0  0  0  0  0  0  0  0
    0.4376   -0.6970   -1.6599 H   0  0  0  0  0  0  0  0  0  0  0  0
    1.3691   -2.9646   -2.1320 H   0  0  0  0  0  0  0  0  0  0  0  0
    3.6066   -4.7194    0.2841 H   0  0  0  0  0  0  0  0  0  0  0  0
    2.3964   -5.0083   -0.9873 H   0  0  0  0  0  0  0  0  0  0  0  0
    4.0337   -4.2628   -1.3867 H   0  0  0  0  0  0  0  0  0  0  0  0
    3.7547   -2.6842    1.3543 H   0  0  0  0  0  0  0  0  0  0  0  0
    2.8387   -0.4570    1.8218 H   0  0  0  0  0  0  0  0  0  0  0  0
    2.3858    2.0308   -0.7933 H   0  0  0  0  0  0  0  0  0  0  0  0
    1.0800    1.3667   -1.7904 H   0  0  0  0  0  0  0  0  0  0  0  0
    0.8428    3.8152   -1.5105 H   0  0  0  0  0  0  0  0  0  0  0  0
    1.0170    4.9060    0.5447 H   0  0  0  0  0  0  0  0  0  0  0  0
    2.0703    3.4863    0.8309 H   0  0  0  0  0  0  0  0  0  0  0  0
   -0.5126    4.1324    2.0623 H   0  0  0  0  0  0  0  0  0  0  0  0
    0.4948    2.7157    2.4631 H   0  0  0  0  0  0  0  0  0  0  0  0
   -1.9134    2.5197    1.2418 H   0  0  0  0  0  0  0  0  0  0  0  0
   -2.6224    3.8510   -0.9801 H   0  0  0  0  0  0  0  0  0  0  0  0
   -1.6528    4.6090    0.3236 H   0  0  0  0  0  0  0  0  0  0  0  0
   -1.1970    4.8240   -1.4516 H   0  0  0  0  0  0  0  0  0  0  0  0
  1  2  1  0
  2  3  1  0
  3  4  1  0
  4  5  1  0
  3  6  1  0
  6  7  2  0
  6  8  1  0
  8  9  1  0
  9 10  1  0
 10 11  2  0
 11 12  1  0
 12 13  2  0
 13 14  1  0
 13 15  1  0
 15 16  2  0
  9 17  1  0
 17 18  1  0
 18 19  1  0
 19 20  1  0
 20 21  1  0
 21 22  1  0
 22 23  1  0
 21  8  1  0
 16 10  1  0
 22 18  1  0
  1 24  1  0
  1 25  1  0
  1 26  1  0
  2 27  1  0
  2 28  1  0
  4 29  1  0
  4 30  1  0
  5 31  1  0
  5 32  1  0
  5 33  1  0
  8 34  1  0
  9 35  1  0
 11 36  1  0
 12 37  1  0
 14 38  1  0
 14 39  1  0
 14 40  1  0
 15 41  1  0
 16 42  1  0
 17 43  1  0
 17 44  1  0
 18 45  1  0
 19 46  1  0
 19 47  1  0
 20 48  1  0
 20 49  1  0
 21 50  1  0
 23 51  1  0
 23 52  1  0
 23 53  1  0
M  END
$$$$
