@<TRIPOS>MOLECULE
*****
 57 58 0 0 0
SMALL
GASTEIGER

@<TRIPOS>ATOM
      1 C          -8.7048    2.7599   -0.0535 C.3     1  UNL1       -0.0025
      2 C          -8.1799    1.7350   -0.1568 C.1     1  UNL1       -0.1040
      3 C          -7.7709    0.9190   -0.2473 C.1     1  UNL1       -0.0836
      4 C          -6.9776   -0.6435   -0.4391 C.3     1  UNL1        0.0710
      5 N          -6.0852   -0.8430    0.5450 N.pl3   1  UNL1       -0.3330
      6 C          -4.6330   -0.6925    0.3630 C.ar    1  UNL1        0.0279
      7 C          -3.7408   -0.8417    1.3377 C.ar    1  UNL1       -0.0390
      8 C          -2.3423   -0.7938    1.2742 C.ar    1  UNL1       -0.0351
      9 C          -1.9786   -0.5091   -0.1238 C.ar    1  UNL1        0.0883
     10 S          -0.2552   -0.3118   -0.3724 S.O2    1  UNL1       -0.0020
     11 O          -0.1429    0.6517   -1.5408 O.2     1  UNL1       -0.1693
     12 O           0.2311    0.5177    0.8922 O.2     1  UNL1       -0.1693
     13 C           0.6737   -1.7317   -0.4527 C.3     1  UNL1        0.0863
     14 C           2.1836   -1.4839   -0.7178 C.3     1  UNL1        0.0843
     15 C           2.7929   -2.7713   -0.4857 C.2     1  UNL1        0.2447
     16 O           3.1568   -3.4928   -1.5042 O.2     1  UNL1       -0.2730
     17 N           3.0550   -3.3882    0.7787 N.am    1  UNL1       -0.1969
     18 O           3.4737   -4.6285    0.9809 O.3     1  UNL1       -0.2952
     19 C           2.3428   -1.2615   -2.2453 C.3     1  UNL1       -0.0346
     20 C           3.0187    0.0811   -2.5504 C.3     1  UNL1       -0.0360
     21 C           4.3336    0.0928   -1.7890 C.3     1  UNL1        0.0179
     22 N           3.9050    0.2635   -0.3793 N.am    1  UNL1       -0.2664
     23 C           4.8581    1.0152    0.3779 C.2     1  UNL1        0.4029
     24 O           6.0350    1.0964   -0.1420 O.2     1  UNL1       -0.2263
     25 O           4.6322    1.6864    1.5964 O.3     1  UNL1       -0.4505
     26 C           5.6695    2.5678    2.1013 C.3     1  UNL1        0.0913
     27 C           5.6533    3.6924    0.9715 C.3     1  UNL1       -0.0305
     28 C           2.6391   -0.2544   -0.0123 C.3     1  UNL1        0.0333
     29 C          -2.8170   -0.3742   -1.0531 C.ar    1  UNL1       -0.0351
     30 C          -4.2390   -0.4394   -0.9525 C.ar    1  UNL1       -0.0390
     31 H          -9.3819    3.0411    0.9703 H       1  UNL1        0.0362
     32 H          -9.3159    3.3909   -0.8506 H       1  UNL1        0.0362
     33 H          -7.8770    3.7402    0.1483 H       1  UNL1        0.0362
     34 H          -7.9853   -1.2023   -0.4391 H       1  UNL1        0.0598
     35 H          -6.6780   -0.5165   -1.4641 H       1  UNL1        0.0598
     36 H          -6.3380   -1.1971    1.5130 H       1  UNL1        0.1470
     37 H          -4.1904   -1.1061    2.3638 H       1  UNL1        0.0637
     38 H          -1.6227   -0.8858    1.9698 H       1  UNL1        0.0637
     39 H           0.6722   -2.2244    0.5890 H       1  UNL1        0.0515
     40 H           0.2741   -2.5197   -1.0729 H       1  UNL1        0.0515
     41 H           3.0290   -2.7724    1.6821 H       1  UNL1        0.1822
     42 H           2.6370   -5.0892    1.3222 H       1  UNL1        0.2414
     43 H           3.0623   -2.0303   -2.7231 H       1  UNL1        0.0277
     44 H           1.4426   -1.3869   -2.8205 H       1  UNL1        0.0277
     45 H           3.2857    0.0033   -3.6344 H       1  UNL1        0.0281
     46 H           2.4293    0.9351   -2.4024 H       1  UNL1        0.0281
     47 H           4.9697   -0.7406   -2.0003 H       1  UNL1        0.0465
     48 H           4.8416    1.1127   -2.0632 H       1  UNL1        0.0465
     49 H           6.6458    2.1141    2.0982 H       1  UNL1        0.0695
     50 H           5.3025    3.0953    2.9888 H       1  UNL1        0.0695
     51 H           4.6500    3.7131    0.5261 H       1  UNL1        0.0262
     52 H           5.9682    4.6621    1.3533 H       1  UNL1        0.0262
     53 H           6.4574    3.3241    0.2611 H       1  UNL1        0.0262
     54 H           2.4333   -0.2048    1.0403 H       1  UNL1        0.0476
     55 H           1.9140    0.6063   -0.4296 H       1  UNL1        0.0476
     56 H          -2.5962   -0.1040   -2.1128 H       1  UNL1        0.0637
     57 H          -4.8165   -0.3759   -1.8193 H       1  UNL1        0.0637
@<TRIPOS>BOND
     1     1     2    1
     2     2     3    3
     3     3     4    1
     4     4     5    1
     5     5     6    1
     6     6     7   ar
     7     7     8   ar
     8     8     9   ar
     9     9    10    1
    10    10    11    2
    11    10    12    2
    12    10    13    1
    13    13    14    1
    14    14    15    1
    15    15    16    2
    16    15    17   am
    17    17    18    1
    18    14    19    1
    19    19    20    1
    20    20    21    1
    21    21    22    1
    22    22    23   am
    23    23    24    2
    24    23    25    1
    25    25    26    1
    26    26    27    1
    27    22    28    1
    28     9    29   ar
    29    29    30   ar
    30    30     6   ar
    31    28    14    1
    32     1    31    1
    33     1    32    1
    34     1    33    1
    35     4    34    1
    36     4    35    1
    37     5    36    1
    38     7    37    1
    39     8    38    1
    40    13    39    1
    41    13    40    1
    42    17    41    1
    43    18    42    1
    44    19    43    1
    45    19    44    1
    46    20    45    1
    47    20    46    1
    48    21    47    1
    49    21    48    1
    50    26    49    1
    51    26    50    1
    52    27    51    1
    53    27    52    1
    54    27    53    1
    55    28    54    1
    56    28    55    1
    57    29    56    1
    58    30    57    1
