
     RDKit          3D

 57 58  0  0  0  0  0  0  0  0999 V2000
   -8.7048    2.7599   -0.0535 C   0  0  0  0  0  0  0  0  0  0  0  0
   -8.1799    1.7350   -0.1568 C   0  0  0  0  0  0  0  0  0  0  0  0
   -7.7709    0.9190   -0.2473 C   0  0  0  0  0  0  0  0  0  0  0  0
   -6.9776   -0.6435   -0.4391 C   0  0  0  0  0  0  0  0  0  0  0  0
   -6.0852   -0.8430    0.5450 N   0  0  0  0  0  0  0  0  0  0  0  0
   -4.6330   -0.6925    0.3630 C   0  0  0  0  0  0  0  0  0  0  0  0
   -3.7408   -0.8417    1.3377 C   0  0  0  0  0  0  0  0  0  0  0  0
   -2.3423   -0.7938    1.2742 C   0  0  0  0  0  0  0  0  0  0  0  0
   -1.9786   -0.5091   -0.1238 C   0  0  0  0  0  0  0  0  0  0  0  0
   -0.2552   -0.3118   -0.3724 S   0  0  0  0  0  6  0  0  0  0  0  0
   -0.1429    0.6517   -1.5408 O   0  0  0  0  0  0  0  0  0  0  0  0
    0.2311    0.5177    0.8922 O   0  0  0  0  0  0  0  0  0  0  0  0
    0.6737   -1.7317   -0.4527 C   0  0  0  0  0  0  0  0  0  0  0  0
    2.1836   -1.4839   -0.7178 C   0  0  0  0  0  0  0  0  0  0  0  0
    2.7929   -2.7713   -0.4857 C   0  0  0  0  0  0  0  0  0  0  0  0
    3.1568   -3.4928   -1.5042 O   0  0  0  0  0  0  0  0  0  0  0  0
    3.0550   -3.3882    0.7787 N   0  0  0  0  0  0  0  0  0  0  0  0
    3.4737   -4.6285    0.9809 O   0  0  0  0  0  0  0  0  0  0  0  0
    2.3428   -1.2615   -2.2453 C   0  0  0  0  0  0  0  0  0  0  0  0
    3.0187    0.0811   -2.5504 C   0  0  0  0  0  0  0  0  0  0  0  0
    4.3336    0.0928   -1.7890 C   0  0  0  0  0  0  0  0  0  0  0  0
    3.9050    0.2635   -0.3793 N   0  0  0  0  0  0  0  0  0  0  0  0
    4.8581    1.0152    0.3779 C   0  0  0  0  0  0  0  0  0  0  0  0
    6.0350    1.0964   -0.1420 O   0  0  0  0  0  0  0  0  0  0  0  0
    4.6322    1.6864    1.5964 O   0  0  0  0  0  0  0  0  0  0  0  0
    5.6695    2.5678    2.1013 C   0  0  0  0  0  0  0  0  0  0  0  0
    5.6533    3.6924    0.9715 C   0  0  0  0  0  0  0  0  0  0  0  0
    2.6391   -0.2544   -0.0123 C   0  0  0  0  0  0  0  0  0  0  0  0
   -2.8170   -0.3742   -1.0531 C   0  0  0  0  0  0  0  0  0  0  0  0
   -4.2390   -0.4394   -0.9525 C   0  0  0  0  0  0  0  0  0  0  0  0
   -9.3819    3.0411    0.9703 H   0  0  0  0  0  0  0  0  0  0  0  0
   -9.3159    3.3909   -0.8506 H   0  0  0  0  0  0  0  0  0  0  0  0
   -7.8770    3.7402    0.1483 H   0  0  0  0  0  0  0  0  0  0  0  0
   -7.9853   -1.2023   -0.4391 H   0  0  0  0  0  0  0  0  0  0  0  0
   -6.6780   -0.5165   -1.4641 H   0  0  0  0  0  0  0  0  0  0  0  0
   -6.3380   -1.1971    1.5130 H   0  0  0  0  0  0  0  0  0  0  0  0
   -4.1904   -1.1061    2.3638 H   0  0  0  0  0  0  0  0  0  0  0  0
   -1.6227   -0.8858    1.9698 H   0  0  0  0  0  0  0  0  0  0  0  0
    0.6722   -2.2244    0.5890 H   0  0  0  0  0  0  0  0  0  0  0  0
    0.2741   -2.5197   -1.0729 H   0  0  0  0  0  0  0  0  0  0  0  0
    3.0290   -2.7724    1.6821 H   0  0  0  0  0  0  0  0  0  0  0  0
    2.6370   -5.0892    1.3222 H   0  0  0  0  0  0  0  0  0  0  0  0
    3.0623   -2.0303   -2.7231 H   0  0  0  0  0  0  0  0  0  0  0  0
    1.4426   -1.3869   -2.8205 H   0  0  0  0  0  0  0  0  0  0  0  0
    3.2857    0.0033   -3.6344 H   0  0  0  0  0  0  0  0  0  0  0  0
    2.4293    0.9351   -2.4024 H   0  0  0  0  0  0  0  0  0  0  0  0
    4.9697   -0.7406   -2.0003 H   0  0  0  0  0  0  0  0  0  0  0  0
    4.8416    1.1127   -2.0632 H   0  0  0  0  0  0  0  0  0  0  0  0
    6.6458    2.1141    2.0982 H   0  0  0  0  0  0  0  0  0  0  0  0
    5.3025    3.0953    2.9888 H   0  0  0  0  0  0  0  0  0  0  0  0
    4.6500    3.7131    0.5261 H   0  0  0  0  0  0  0  0  0  0  0  0
    5.9682    4.6621    1.3533 H   0  0  0  0  0  0  0  0  0  0  0  0
    6.4574    3.3241    0.2611 H   0  0  0  0  0  0  0  0  0  0  0  0
    2.4333   -0.2048    1.0403 H   0  0  0  0  0  0  0  0  0  0  0  0
    1.9140    0.6063   -0.4296 H   0  0  0  0  0  0  0  0  0  0  0  0
   -2.5962   -0.1040   -2.1128 H   0  0  0  0  0  0  0  0  0  0  0  0
   -4.8165   -0.3759   -1.8193 H   0  0  0  0  0  0  0  0  0  0  0  0
  1  2  1  0
  2  3  3  0
  3  4  1  0
  4  5  1  0
  5  6  1  0
  6  7  2  0
  7  8  1  0
  8  9  2  0
  9 10  1  0
 10 11  2  0
 10 12  2  0
 10 13  1  0
 13 14  1  0
 14 15  1  0
 15 16  2  0
 15 17  1  0
 17 18  1  0
 14 19  1  0
 19 20  1  0
 20 21  1  0
 21 22  1  0
 22 23  1  0
 23 24  2  0
 23 25  1  0
 25 26  1  0
 26 27  1  0
 22 28  1  0
  9 29  1  0
 29 30  2  0
 30  6  1  0
 28 14  1  0
  1 31  1  0
  1 32  1  0
  1 33  1  0
  4 34  1  0
  4 35  1  0
  5 36  1  0
  7 37  1  0
  8 38  1  0
 13 39  1  0
 13 40  1  0
 17 41  1  0
 18 42  1  0
 19 43  1  0
 19 44  1  0
 20 45  1  0
 20 46  1  0
 21 47  1  0
 21 48  1  0
 26 49  1  0
 26 50  1  0
 27 51  1  0
 27 52  1  0
 27 53  1  0
 28 54  1  0
 28 55  1  0
 29 56  1  0
 30 57  1  0
M  END
$$$$
