@<TRIPOS>MOLECULE
*****
 54 58 0 0 0
SMALL
GASTEIGER

@<TRIPOS>ATOM
      1 O           0.8115   -0.2388   -1.9776 O.2     1  UNL1       -0.2748
      2 C           0.0744    0.5749   -1.3198 C.2     1  UNL1        0.2271
      3 C           0.7533    1.6789   -0.6253 C.3     1  UNL1        0.0826
      4 C           2.2444    1.5223   -0.8181 C.ar    1  UNL1        0.1206
      5 N           2.9798    0.8099    0.0435 N.ar    1  UNL1       -0.2186
      6 C           4.3145    0.6391   -0.0833 C.ar    1  UNL1        0.1285
      7 N           5.0588   -0.1157    0.8451 N.pl3   1  UNL1       -0.3106
      8 C           4.3333   -0.6296    2.0117 C.3     1  UNL1        0.0370
      9 C           4.9050   -1.9539    2.4016 C.3     1  UNL1        0.0634
     10 O           5.5514   -2.5985    1.3677 O.3     1  UNL1       -0.3767
     11 C           6.6599   -1.9278    0.9065 C.3     1  UNL1        0.0634
     12 C           6.4458   -0.4339    0.7671 C.3     1  UNL1        0.0370
     13 C           4.9124    1.2398   -1.1603 C.ar    1  UNL1        0.0427
     14 C           4.1447    1.9772   -2.0505 C.ar    1  UNL1        0.2533
     15 O           4.7360    2.5107   -3.0244 O.2     1  UNL1       -0.2677
     16 N           2.8019    2.1200   -1.8792 N.ar    1  UNL1       -0.3104
     17 N          -1.3062    0.3052   -1.3443 N.am    1  UNL1       -0.2705
     18 C          -1.9571   -0.8026   -2.0735 C.3     1  UNL1        0.0239
     19 C          -2.9765   -1.2333   -1.0436 C.3     1  UNL1       -0.0091
     20 C          -3.4478    0.0783   -0.5126 C.ar    1  UNL1       -0.0168
     21 C          -4.6198    0.5027    0.0840 C.ar    1  UNL1       -0.0128
     22 C          -5.6773   -0.4589    0.2770 C.ar    1  UNL1       -0.0147
     23 C          -6.9670   -0.1344   -0.0401 C.ar    1  UNL1       -0.0359
     24 C          -8.0180   -1.0431    0.1357 C.ar    1  UNL1        0.0281
     25 N          -7.6898   -2.2598    0.6361 N.ar    1  UNL1       -0.2632
     26 C          -6.4332   -2.5996    0.9537 C.ar    1  UNL1        0.0281
     27 C          -5.3968   -1.6989    0.7787 C.ar    1  UNL1       -0.0359
     28 C          -4.7549    1.8251    0.4803 C.ar    1  UNL1       -0.0537
     29 C          -3.7207    2.6915    0.2731 C.ar    1  UNL1       -0.0594
     30 C          -2.5365    2.2844   -0.3241 C.ar    1  UNL1       -0.0400
     31 C          -2.3992    0.9717   -0.7189 C.ar    1  UNL1        0.0401
     32 H           0.5399    1.6506    0.4453 H       1  UNL1        0.0438
     33 H           0.4704    2.6748   -1.0520 H       1  UNL1        0.0438
     34 H           3.2541   -0.6284    1.8467 H       1  UNL1        0.0487
     35 H           4.5512    0.0894    2.8424 H       1  UNL1        0.0487
     36 H           4.0529   -2.6056    2.7159 H       1  UNL1        0.0575
     37 H           5.5531   -1.8864    3.3225 H       1  UNL1        0.0575
     38 H           7.5598   -2.0764    1.5396 H       1  UNL1        0.0575
     39 H           6.9046   -2.3405   -0.0913 H       1  UNL1        0.0575
     40 H           7.0449    0.1193    1.5478 H       1  UNL1        0.0487
     41 H           6.8541   -0.1088   -0.2045 H       1  UNL1        0.0487
     42 H           5.9565    1.1867   -1.3769 H       1  UNL1        0.0706
     43 H           2.2653    2.6837   -2.5740 H       1  UNL1        0.1700
     44 H          -2.4428   -0.4423   -2.9907 H       1  UNL1        0.0472
     45 H          -1.2498   -1.6241   -2.2517 H       1  UNL1        0.0472
     46 H          -2.3953   -1.8054   -0.2683 H       1  UNL1        0.0329
     47 H          -3.7857   -1.8472   -1.4559 H       1  UNL1        0.0329
     48 H          -7.1644    0.8535   -0.4361 H       1  UNL1        0.0639
     49 H          -9.0388   -0.7820   -0.1169 H       1  UNL1        0.0830
     50 H          -6.2009   -3.5748    1.3502 H       1  UNL1        0.0830
     51 H          -4.3899   -2.0022    1.0452 H       1  UNL1        0.0639
     52 H          -5.6634    2.1312    0.9369 H       1  UNL1        0.0624
     53 H          -3.7655    3.7484    0.5637 H       1  UNL1        0.0618
     54 H          -1.7366    2.9836   -0.4768 H       1  UNL1        0.0636
@<TRIPOS>BOND
     1     1     2    2
     2     2     3    1
     3     3     4    1
     4     4     5   ar
     5     5     6   ar
     6     6     7    1
     7     7     8    1
     8     8     9    1
     9     9    10    1
    10    10    11    1
    11    11    12    1
    12     6    13   ar
    13    13    14   ar
    14    14    15    2
    15    14    16   ar
    16     2    17   am
    17    17    18    1
    18    18    19    1
    19    19    20    1
    20    20    21   ar
    21    21    22    1
    22    22    23   ar
    23    23    24   ar
    24    24    25   ar
    25    25    26   ar
    26    26    27   ar
    27    21    28   ar
    28    28    29   ar
    29    29    30   ar
    30    30    31   ar
    31    16     4   ar
    32    31    17    1
    33    12     7    1
    34    31    20   ar
    35    27    22   ar
    36     3    32    1
    37     3    33    1
    38     8    34    1
    39     8    35    1
    40     9    36    1
    41     9    37    1
    42    11    38    1
    43    11    39    1
    44    12    40    1
    45    12    41    1
    46    13    42    1
    47    16    43    1
    48    18    44    1
    49    18    45    1
    50    19    46    1
    51    19    47    1
    52    23    48    1
    53    24    49    1
    54    26    50    1
    55    27    51    1
    56    28    52    1
    57    29    53    1
    58    30    54    1
