
     RDKit          3D

 51 54  0  0  0  0  0  0  0  0999 V2000
    2.3163   -1.4133    1.6500 O   0  0  0  0  0  0  0  0  0  0  0  0
    2.2342   -0.6379    0.6678 C   0  0  0  0  0  0  0  0  0  0  0  0
    0.9308   -0.4271    0.2093 O   0  0  0  0  0  0  0  0  0  0  0  0
   -0.1876   -1.0176    0.7808 C   0  0  2  0  0  0  0  0  0  0  0  0
   -0.9625   -1.9146   -0.1355 C   0  0  0  0  0  0  0  0  0  0  0  0
   -2.1612   -2.3982    0.6089 C   0  0  0  0  0  0  0  0  0  0  0  0
   -2.7655   -3.6160    0.3268 C   0  0  0  0  0  0  0  0  0  0  0  0
   -2.2074   -4.3846   -0.6907 O   0  0  0  0  0  0  0  0  0  0  0  0
   -3.8645   -4.0732    1.0000 C   0  0  0  0  0  0  0  0  0  0  0  0
   -4.4242   -3.3265    2.0040 C   0  0  0  0  0  0  0  0  0  0  0  0
   -5.5498   -3.8118    2.6821 O   0  0  0  0  0  0  0  0  0  0  0  0
   -3.8504   -2.1120    2.3113 C   0  0  0  0  0  0  0  0  0  0  0  0
   -2.7345   -1.6494    1.6267 C   0  0  0  0  0  0  0  0  0  0  0  0
   -2.2095   -0.4145    1.9913 O   0  0  0  0  0  0  0  0  0  0  0  0
   -1.0311    0.0739    1.3978 C   0  0  2  0  0  0  0  0  0  0  0  0
   -1.3501    1.1569    0.4316 C   0  0  0  0  0  0  0  0  0  0  0  0
   -2.3835    1.0505   -0.4773 C   0  0  0  0  0  0  0  0  0  0  0  0
   -2.6822    2.0558   -1.3766 C   0  0  0  0  0  0  0  0  0  0  0  0
   -3.7325    1.9197   -2.2831 O   0  0  0  0  0  0  0  0  0  0  0  0
   -1.9535    3.2220   -1.4062 C   0  0  0  0  0  0  0  0  0  0  0  0
   -2.2418    4.2522   -2.3110 O   0  0  0  0  0  0  0  0  0  0  0  0
   -0.9167    3.3472   -0.5057 C   0  0  0  0  0  0  0  0  0  0  0  0
   -0.1867    4.5329   -0.5461 O   0  0  0  0  0  0  0  0  0  0  0  0
   -0.6209    2.3371    0.3939 C   0  0  0  0  0  0  0  0  0  0  0  0
    3.3883   -0.0088    0.0532 C   0  0  0  0  0  0  0  0  0  0  0  0
    3.2798    0.8396   -1.0242 C   0  0  0  0  0  0  0  0  0  0  0  0
    4.3758    1.4381   -1.6092 C   0  0  0  0  0  0  0  0  0  0  0  0
    4.2036    2.2751   -2.6820 O   0  0  0  0  0  0  0  0  0  0  0  0
    5.6277    1.1806   -1.1001 C   0  0  0  0  0  0  0  0  0  0  0  0
    6.7176    1.7850   -1.6932 O   0  0  0  0  0  0  0  0  0  0  0  0
    5.7798    0.3357   -0.0204 C   0  0  0  0  0  0  0  0  0  0  0  0
    7.0543    0.1041    0.4598 O   0  0  0  0  0  0  0  0  0  0  0  0
    4.6473   -0.2557    0.5502 C   0  0  0  0  0  0  0  0  0  0  0  0
    0.1590   -1.6546    1.6294 H   0  0  0  0  0  0  0  0  0  0  0  0
   -0.3381   -2.8260   -0.3158 H   0  0  0  0  0  0  0  0  0  0  0  0
   -1.2020   -1.4842   -1.1076 H   0  0  0  0  0  0  0  0  0  0  0  0
   -1.2978   -4.8238   -0.6226 H   0  0  0  0  0  0  0  0  0  0  0  0
   -4.3045   -5.0299    0.7472 H   0  0  0  0  0  0  0  0  0  0  0  0
   -6.0702   -3.1275    3.2158 H   0  0  0  0  0  0  0  0  0  0  0  0
   -4.3008   -1.5207    3.1128 H   0  0  0  0  0  0  0  0  0  0  0  0
   -0.4162    0.5004    2.2297 H   0  0  0  0  0  0  0  0  0  0  0  0
   -2.9979    0.1475   -0.5017 H   0  0  0  0  0  0  0  0  0  0  0  0
   -4.5473    1.4029   -1.9594 H   0  0  0  0  0  0  0  0  0  0  0  0
   -3.1580    4.2744   -2.7510 H   0  0  0  0  0  0  0  0  0  0  0  0
    0.0963    4.9932   -1.3793 H   0  0  0  0  0  0  0  0  0  0  0  0
    0.1884    2.4385    1.0945 H   0  0  0  0  0  0  0  0  0  0  0  0
    2.2998    1.0630   -1.4502 H   0  0  0  0  0  0  0  0  0  0  0  0
    4.0829    3.2739   -2.6052 H   0  0  0  0  0  0  0  0  0  0  0  0
    6.6879    2.0104   -2.6596 H   0  0  0  0  0  0  0  0  0  0  0  0
    7.7393    0.8294    0.6391 H   0  0  0  0  0  0  0  0  0  0  0  0
    4.8397   -0.9118    1.3997 H   0  0  0  0  0  0  0  0  0  0  0  0
  1  2  2  0
  2  3  1  0
  3  4  1  0
  4  5  1  0
  5  6  1  0
  6  7  2  0
  7  8  1  0
  7  9  1  0
  9 10  2  0
 10 11  1  0
 10 12  1  0
 12 13  2  0
 13 14  1  0
 14 15  1  0
 15 16  1  0
 16 17  2  0
 17 18  1  0
 18 19  1  0
 18 20  2  0
 20 21  1  0
 20 22  1  0
 22 23  1  0
 22 24  2  0
  2 25  1  0
 25 26  2  0
 26 27  1  0
 27 28  1  0
 27 29  2  0
 29 30  1  0
 29 31  1  0
 31 32  1  0
 31 33  2  0
 15  4  1  0
 24 16  1  0
 33 25  1  0
 13  6  1  0
  4 34  1  1
  5 35  1  0
  5 36  1  0
  8 37  1  0
  9 38  1  0
 11 39  1  0
 12 40  1  0
 15 41  1  1
 17 42  1  0
 19 43  1  0
 21 44  1  0
 23 45  1  0
 24 46  1  0
 26 47  1  0
 28 48  1  0
 30 49  1  0
 32 50  1  0
 33 51  1  0
M  END
$$$$
