@<TRIPOS>MOLECULE
*****
 51 54 0 0 0
SMALL
GASTEIGER

@<TRIPOS>ATOM
      1 O           2.3163   -1.4133    1.6500 O.2     1  UNL1       -0.2449
      2 C           2.2342   -0.6379    0.6678 C.2     1  UNL1        0.3398
      3 O           0.9308   -0.4271    0.2093 O.3     1  UNL1       -0.4534
      4 C          -0.1876   -1.0176    0.7808 C.3     1  UNL1        0.1483
      5 C          -0.9625   -1.9146   -0.1355 C.3     1  UNL1        0.0204
      6 C          -2.1612   -2.3982    0.6089 C.ar    1  UNL1        0.0395
      7 C          -2.7655   -3.6160    0.3268 C.ar    1  UNL1        0.1271
      8 O          -2.2074   -4.3846   -0.6907 O.3     1  UNL1       -0.5063
      9 C          -3.8645   -4.0732    1.0000 C.ar    1  UNL1        0.0218
     10 C          -4.4242   -3.3265    2.0040 C.ar    1  UNL1        0.1238
     11 O          -5.5498   -3.8118    2.6821 O.3     1  UNL1       -0.5065
     12 C          -3.8504   -2.1120    2.3113 C.ar    1  UNL1        0.0221
     13 C          -2.7345   -1.6494    1.6267 C.ar    1  UNL1        0.1318
     14 O          -2.2095   -0.4145    1.9913 O.3     1  UNL1       -0.4800
     15 C          -1.0311    0.0739    1.3978 C.3     1  UNL1        0.1624
     16 C          -1.3501    1.1569    0.4316 C.ar    1  UNL1        0.0034
     17 C          -2.3835    1.0505   -0.4773 C.ar    1  UNL1       -0.0095
     18 C          -2.6822    2.0558   -1.3766 C.ar    1  UNL1        0.1623
     19 O          -3.7325    1.9197   -2.2831 O.3     1  UNL1       -0.5032
     20 C          -1.9535    3.2220   -1.4062 C.ar    1  UNL1        0.2006
     21 O          -2.2418    4.2522   -2.3110 O.3     1  UNL1       -0.5009
     22 C          -0.9167    3.3472   -0.5057 C.ar    1  UNL1        0.1623
     23 O          -0.1867    4.5329   -0.5461 O.3     1  UNL1       -0.5032
     24 C          -0.6209    2.3371    0.3939 C.ar    1  UNL1       -0.0095
     25 C           3.3883   -0.0088    0.0532 C.ar    1  UNL1        0.0661
     26 C           3.2798    0.8396   -1.0242 C.ar    1  UNL1       -0.0023
     27 C           4.3758    1.4381   -1.6092 C.ar    1  UNL1        0.1628
     28 O           4.2036    2.2751   -2.6820 O.3     1  UNL1       -0.5032
     29 C           5.6277    1.1806   -1.1001 C.ar    1  UNL1        0.2006
     30 O           6.7176    1.7850   -1.6932 O.3     1  UNL1       -0.5009
     31 C           5.7798    0.3357   -0.0204 C.ar    1  UNL1        0.1628
     32 O           7.0543    0.1041    0.4598 O.3     1  UNL1       -0.5032
     33 C           4.6473   -0.2557    0.5502 C.ar    1  UNL1       -0.0023
     34 H           0.1590   -1.6546    1.6294 H       1  UNL1        0.0778
     35 H          -0.3381   -2.8260   -0.3158 H       1  UNL1        0.0353
     36 H          -1.2020   -1.4842   -1.1076 H       1  UNL1        0.0353
     37 H          -1.2978   -4.8238   -0.6226 H       1  UNL1        0.2921
     38 H          -4.3045   -5.0299    0.7472 H       1  UNL1        0.0691
     39 H          -6.0702   -3.1275    3.2158 H       1  UNL1        0.2921
     40 H          -4.3008   -1.5207    3.1128 H       1  UNL1        0.0691
     41 H          -0.4162    0.5004    2.2297 H       1  UNL1        0.0822
     42 H          -2.9979    0.1475   -0.5017 H       1  UNL1        0.0659
     43 H          -4.5473    1.4029   -1.9594 H       1  UNL1        0.2923
     44 H          -3.1580    4.2744   -2.7510 H       1  UNL1        0.2924
     45 H           0.0963    4.9932   -1.3793 H       1  UNL1        0.2923
     46 H           0.1884    2.4385    1.0945 H       1  UNL1        0.0659
     47 H           2.2998    1.0630   -1.4502 H       1  UNL1        0.0663
     48 H           4.0829    3.2739   -2.6052 H       1  UNL1        0.2923
     49 H           6.6879    2.0104   -2.6596 H       1  UNL1        0.2924
     50 H           7.7393    0.8294    0.6391 H       1  UNL1        0.2923
     51 H           4.8397   -0.9118    1.3997 H       1  UNL1        0.0663
@<TRIPOS>BOND
     1     1     2    2
     2     2     3    1
     3     3     4    1
     4     4     5    1
     5     5     6    1
     6     6     7   ar
     7     7     8    1
     8     7     9   ar
     9     9    10   ar
    10    10    11    1
    11    10    12   ar
    12    12    13   ar
    13    13    14    1
    14    14    15    1
    15    15    16    1
    16    16    17   ar
    17    17    18   ar
    18    18    19    1
    19    18    20   ar
    20    20    21    1
    21    20    22   ar
    22    22    23    1
    23    22    24   ar
    24     2    25    1
    25    25    26   ar
    26    26    27   ar
    27    27    28    1
    28    27    29   ar
    29    29    30    1
    30    29    31   ar
    31    31    32    1
    32    31    33   ar
    33    15     4    1
    34    24    16   ar
    35    33    25   ar
    36    13     6   ar
    37     4    34    1
    38     5    35    1
    39     5    36    1
    40     8    37    1
    41     9    38    1
    42    11    39    1
    43    12    40    1
    44    15    41    1
    45    17    42    1
    46    19    43    1
    47    21    44    1
    48    23    45    1
    49    24    46    1
    50    26    47    1
    51    28    48    1
    52    30    49    1
    53    32    50    1
    54    33    51    1
