
     RDKit          3D

 91 97  0  0  0  0  0  0  0  0999 V2000
   10.8498    0.8158    2.1028 C   0  0  0  0  0  0  0  0  0  0  0  0
   11.6383    1.0145    0.8449 C   0  0  0  0  0  0  0  0  0  0  0  0
   13.0927    0.7620    1.1562 C   0  0  0  0  0  0  0  0  0  0  0  0
   11.2083    0.2223   -0.2507 N   0  0  0  0  0  0  0  0  0  0  0  0
   11.2477   -1.1874   -0.0854 C   0  0  0  0  0  0  0  0  0  0  0  0
    9.9483   -1.8438    0.2444 C   0  0  0  0  0  0  0  0  0  0  0  0
    8.7966   -1.0361   -0.0011 N   0  0  0  0  0  0  0  0  0  0  0  0
    7.6039   -1.2990    0.7527 C   0  0  0  0  0  0  0  0  0  0  0  0
    7.5858   -2.2194    1.6006 O   0  0  0  0  0  0  0  0  0  0  0  0
    6.3956   -0.4911    0.5375 C   0  0  0  0  0  0  0  0  0  0  0  0
    5.8427   -0.3581   -0.7159 C   0  0  0  0  0  0  0  0  0  0  0  0
    4.7184    0.3971   -0.9480 C   0  0  0  0  0  0  0  0  0  0  0  0
    4.0773    1.0727    0.0941 C   0  0  0  0  0  0  0  0  0  0  0  0
    2.9342    1.8612   -0.1290 N   0  0  0  0  0  0  0  0  0  0  0  0
    1.6350    1.2336   -0.0466 C   0  0  0  0  0  0  0  0  0  0  0  0
    1.6352    0.0159    0.2282 O   0  0  0  0  0  0  0  0  0  0  0  0
    0.4578    1.9558   -0.2645 N   0  0  0  0  0  0  0  0  0  0  0  0
   -0.8374    1.4373   -0.2045 C   0  0  0  0  0  0  0  0  0  0  0  0
   -1.8785    2.3063   -0.5074 C   0  0  0  0  0  0  0  0  0  0  0  0
   -3.2142    1.8914   -0.4740 C   0  0  0  0  0  0  0  0  0  0  0  0
   -3.5090    0.5932   -0.1340 C   0  0  0  0  0  0  0  0  0  0  0  0
   -4.8899    0.1562   -0.0948 C   0  0  0  0  0  0  0  0  0  0  0  0
   -5.2044   -1.1202    0.2580 N   0  0  0  0  0  0  0  0  0  0  0  0
   -6.4674   -1.5748    0.3037 C   0  0  0  0  0  0  0  0  0  0  0  0
   -6.7024   -2.9867    0.7037 C   0  0  0  0  0  0  0  0  0  0  0  0
   -7.9678   -3.2144    1.4563 C   0  0  0  0  0  0  0  0  0  0  0  0
   -8.1228   -4.7340    1.5894 C   0  0  0  0  0  0  0  0  0  0  0  0
   -6.9236   -5.3934    1.2856 O   0  0  0  0  0  0  0  0  0  0  0  0
   -6.6512   -5.2813   -0.0930 C   0  0  0  0  0  0  0  0  0  0  0  0
   -6.7703   -3.8597   -0.5545 C   0  0  0  0  0  0  0  0  0  0  0  0
   -7.4449   -0.7284   -0.0119 N   0  0  0  0  0  0  0  0  0  0  0  0
   -7.2198    0.5646   -0.3754 C   0  0  0  0  0  0  0  0  0  0  0  0
   -8.2838    1.4173   -0.6834 N   0  0  0  0  0  0  0  0  0  0  0  0
   -9.6796    1.1880   -0.4295 C   0  0  0  0  0  0  0  0  0  0  0  0
  -10.0252    2.5140    0.2759 C   0  0  0  0  0  0  0  0  0  0  0  0
   -9.1315    3.5219   -0.4254 C   0  0  0  0  0  0  0  0  0  0  0  0
   -8.1980    2.7009   -1.3285 C   0  0  0  0  0  0  0  0  0  0  0  0
   -8.8239    2.5782   -2.7137 C   0  0  0  0  0  0  0  0  0  0  0  0
   -9.5252    1.3558   -2.8227 O   0  0  0  0  0  0  0  0  0  0  0  0
  -10.4321    1.2324   -1.7436 C   0  0  0  0  0  0  0  0  0  0  0  0
   -5.9240    0.9448   -0.3977 N   0  0  0  0  0  0  0  0  0  0  0  0
   -2.5097   -0.2851    0.1689 C   0  0  0  0  0  0  0  0  0  0  0  0
   -1.1766    0.1649    0.1260 C   0  0  0  0  0  0  0  0  0  0  0  0
    4.6272    0.9413    1.3495 C   0  0  0  0  0  0  0  0  0  0  0  0
    5.7550    0.1805    1.5649 C   0  0  0  0  0  0  0  0  0  0  0  0
    8.8750   -0.0014   -0.9903 C   0  0  0  0  0  0  0  0  0  0  0  0
   10.1539    0.7582   -1.0270 C   0  0  0  0  0  0  0  0  0  0  0  0
    9.8662    1.3037    2.1156 H   0  0  0  0  0  0  0  0  0  0  0  0
   11.4271    1.2840    2.9482 H   0  0  0  0  0  0  0  0  0  0  0  0
   10.7867   -0.2660    2.3625 H   0  0  0  0  0  0  0  0  0  0  0  0
   11.5448    2.0811    0.5585 H   0  0  0  0  0  0  0  0  0  0  0  0
   13.4162    1.5959    1.8477 H   0  0  0  0  0  0  0  0  0  0  0  0
   13.7568    0.8315    0.2771 H   0  0  0  0  0  0  0  0  0  0  0  0
   13.2411   -0.1715    1.7427 H   0  0  0  0  0  0  0  0  0  0  0  0
   12.0118   -1.4184    0.6869 H   0  0  0  0  0  0  0  0  0  0  0  0
   11.6799   -1.6245   -1.0349 H   0  0  0  0  0  0  0  0  0  0  0  0
    9.8566   -2.7714   -0.3939 H   0  0  0  0  0  0  0  0  0  0  0  0
    9.9683   -2.2339    1.2862 H   0  0  0  0  0  0  0  0  0  0  0  0
    6.3454   -0.8918   -1.5395 H   0  0  0  0  0  0  0  0  0  0  0  0
    4.3219    0.4740   -1.9466 H   0  0  0  0  0  0  0  0  0  0  0  0
    2.9776    2.8745   -0.3496 H   0  0  0  0  0  0  0  0  0  0  0  0
    0.6211    2.9992   -0.4937 H   0  0  0  0  0  0  0  0  0  0  0  0
   -1.6442    3.3215   -0.7734 H   0  0  0  0  0  0  0  0  0  0  0  0
   -3.9526    2.6373   -0.7246 H   0  0  0  0  0  0  0  0  0  0  0  0
   -5.7890   -3.3312    1.2728 H   0  0  0  0  0  0  0  0  0  0  0  0
   -8.0229   -2.7438    2.4401 H   0  0  0  0  0  0  0  0  0  0  0  0
   -8.8092   -2.8854    0.8004 H   0  0  0  0  0  0  0  0  0  0  0  0
   -8.3936   -5.0450    2.5983 H   0  0  0  0  0  0  0  0  0  0  0  0
   -8.8790   -5.1256    0.8967 H   0  0  0  0  0  0  0  0  0  0  0  0
   -7.3167   -5.9866   -0.6246 H   0  0  0  0  0  0  0  0  0  0  0  0
   -5.5986   -5.6729   -0.2027 H   0  0  0  0  0  0  0  0  0  0  0  0
   -5.9553   -3.5734   -1.2567 H   0  0  0  0  0  0  0  0  0  0  0  0
   -7.7744   -3.7093   -0.9911 H   0  0  0  0  0  0  0  0  0  0  0  0
   -9.9035    0.3226    0.1877 H   0  0  0  0  0  0  0  0  0  0  0  0
   -9.7328    2.3774    1.3458 H   0  0  0  0  0  0  0  0  0  0  0  0
  -11.0913    2.6767    0.1137 H   0  0  0  0  0  0  0  0  0  0  0  0
   -8.4657    3.9546    0.3433 H   0  0  0  0  0  0  0  0  0  0  0  0
   -9.6907    4.2733   -0.9996 H   0  0  0  0  0  0  0  0  0  0  0  0
   -7.1931    3.1184   -1.3773 H   0  0  0  0  0  0  0  0  0  0  0  0
   -7.9940    2.5368   -3.4491 H   0  0  0  0  0  0  0  0  0  0  0  0
   -9.4575    3.4378   -2.9591 H   0  0  0  0  0  0  0  0  0  0  0  0
  -11.0506    0.3490   -1.9105 H   0  0  0  0  0  0  0  0  0  0  0  0
  -11.0904    2.1177   -1.8386 H   0  0  0  0  0  0  0  0  0  0  0  0
   -2.6813   -1.3130    0.4412 H   0  0  0  0  0  0  0  0  0  0  0  0
   -0.4245   -0.5574    0.3726 H   0  0  0  0  0  0  0  0  0  0  0  0
    4.1215    1.4699    2.1562 H   0  0  0  0  0  0  0  0  0  0  0  0
    6.1845    0.0815    2.5680 H   0  0  0  0  0  0  0  0  0  0  0  0
    8.6468   -0.4784   -1.9897 H   0  0  0  0  0  0  0  0  0  0  0  0
    8.0445    0.7378   -0.8343 H   0  0  0  0  0  0  0  0  0  0  0  0
   10.0205    1.8424   -0.7650 H   0  0  0  0  0  0  0  0  0  0  0  0
   10.5060    0.7869   -2.0984 H   0  0  0  0  0  0  0  0  0  0  0  0
  1  2  1  0
  2  3  1  0
  2  4  1  0
  4  5  1  0
  5  6  1  0
  6  7  1  0
  7  8  1  0
  8  9  2  0
  8 10  1  0
 10 11  2  0
 11 12  1  0
 12 13  2  0
 13 14  1  0
 14 15  1  0
 15 16  2  0
 15 17  1  0
 17 18  1  0
 18 19  2  0
 19 20  1  0
 20 21  2  0
 21 22  1  0
 22 23  2  0
 23 24  1  0
 24 25  1  0
 25 26  1  0
 26 27  1  0
 27 28  1  0
 28 29  1  0
 29 30  1  0
 24 31  2  0
 31 32  1  0
 32 33  1  0
 33 34  1  0
 34 35  1  0
 35 36  1  0
 36 37  1  0
 37 38  1  0
 38 39  1  0
 39 40  1  0
 32 41  2  0
 21 42  1  0
 42 43  2  0
 13 44  1  0
 44 45  2  0
  7 46  1  0
 46 47  1  0
 47  4  1  0
 45 10  1  0
 43 18  1  0
 41 22  1  0
 30 25  1  0
 37 33  1  0
 40 34  1  0
  1 48  1  0
  1 49  1  0
  1 50  1  0
  2 51  1  0
  3 52  1  0
  3 53  1  0
  3 54  1  0
  5 55  1  0
  5 56  1  0
  6 57  1  0
  6 58  1  0
 11 59  1  0
 12 60  1  0
 14 61  1  0
 17 62  1  0
 19 63  1  0
 20 64  1  0
 25 65  1  0
 26 66  1  0
 26 67  1  0
 27 68  1  0
 27 69  1  0
 29 70  1  0
 29 71  1  0
 30 72  1  0
 30 73  1  0
 34 74  1  0
 35 75  1  0
 35 76  1  0
 36 77  1  0
 36 78  1  0
 37 79  1  0
 38 80  1  0
 38 81  1  0
 40 82  1  0
 40 83  1  0
 42 84  1  0
 43 85  1  0
 44 86  1  0
 45 87  1  0
 46 88  1  0
 46 89  1  0
 47 90  1  0
 47 91  1  0
M  END
$$$$
