@<TRIPOS>MOLECULE
*****
 91 97 0 0 0
SMALL
GASTEIGER

@<TRIPOS>ATOM
      1 C          10.8498    0.8158    2.1028 C.3     1  UNL1       -0.0497
      2 C          11.6383    1.0145    0.8449 C.3     1  UNL1        0.0049
      3 C          13.0927    0.7620    1.1562 C.3     1  UNL1       -0.0497
      4 N          11.2083    0.2223   -0.2507 N.3     1  UNL1       -0.2969
      5 C          11.2477   -1.1874   -0.0854 C.3     1  UNL1        0.0150
      6 C           9.9483   -1.8438    0.2444 C.3     1  UNL1        0.0278
      7 N           8.7966   -1.0361   -0.0011 N.am    1  UNL1       -0.2951
      8 C           7.6039   -1.2990    0.7527 C.2     1  UNL1        0.2467
      9 O           7.5858   -2.2194    1.6006 O.2     1  UNL1       -0.2700
     10 C           6.3956   -0.4911    0.5375 C.ar    1  UNL1        0.0370
     11 C           5.8427   -0.3581   -0.7159 C.ar    1  UNL1       -0.0479
     12 C           4.7184    0.3971   -0.9480 C.ar    1  UNL1       -0.0397
     13 C           4.0773    1.0727    0.0941 C.ar    1  UNL1        0.0348
     14 N           2.9342    1.8612   -0.1290 N.am    1  UNL1       -0.2692
     15 C           1.6350    1.2336   -0.0466 C.2     1  UNL1        0.3081
     16 O           1.6352    0.0159    0.2282 O.2     1  UNL1       -0.2522
     17 N           0.4578    1.9558   -0.2645 N.am    1  UNL1       -0.2692
     18 C          -0.8374    1.4373   -0.2045 C.ar    1  UNL1        0.0348
     19 C          -1.8785    2.3063   -0.5074 C.ar    1  UNL1       -0.0398
     20 C          -3.2142    1.8914   -0.4740 C.ar    1  UNL1       -0.0493
     21 C          -3.5090    0.5932   -0.1340 C.ar    1  UNL1        0.0194
     22 C          -4.8899    0.1562   -0.0948 C.ar    1  UNL1        0.1652
     23 N          -5.2044   -1.1202    0.2580 N.ar    1  UNL1       -0.2122
     24 C          -6.4674   -1.5748    0.3037 C.ar    1  UNL1        0.1382
     25 C          -6.7024   -2.9867    0.7037 C.3     1  UNL1        0.0233
     26 C          -7.9678   -3.2144    1.4563 C.3     1  UNL1       -0.0197
     27 C          -8.1228   -4.7340    1.5894 C.3     1  UNL1        0.0483
     28 O          -6.9236   -5.3934    1.2856 O.3     1  UNL1       -0.3797
     29 C          -6.6512   -5.2813   -0.0930 C.3     1  UNL1        0.0483
     30 C          -6.7703   -3.8597   -0.5545 C.3     1  UNL1       -0.0197
     31 N          -7.4449   -0.7284   -0.0119 N.ar    1  UNL1       -0.1991
     32 C          -7.2198    0.5646   -0.3754 C.ar    1  UNL1        0.2220
     33 N          -8.2838    1.4173   -0.6834 N.pl3   1  UNL1       -0.2891
     34 C          -9.6796    1.1880   -0.4295 C.3     1  UNL1        0.0500
     35 C         -10.0252    2.5140    0.2759 C.3     1  UNL1       -0.0304
     36 C          -9.1315    3.5219   -0.4254 C.3     1  UNL1       -0.0304
     37 C          -8.1980    2.7009   -1.3285 C.3     1  UNL1        0.0500
     38 C          -8.8239    2.5782   -2.7137 C.3     1  UNL1        0.0663
     39 O          -9.5252    1.3558   -2.8227 O.3     1  UNL1       -0.3761
     40 C         -10.4321    1.2324   -1.7436 C.3     1  UNL1        0.0663
     41 N          -5.9240    0.9448   -0.3977 N.ar    1  UNL1       -0.1945
     42 C          -2.5097   -0.2851    0.1689 C.ar    1  UNL1       -0.0493
     43 C          -1.1766    0.1649    0.1260 C.ar    1  UNL1       -0.0398
     44 C           4.6272    0.9413    1.3495 C.ar    1  UNL1       -0.0397
     45 C           5.7550    0.1805    1.5649 C.ar    1  UNL1       -0.0479
     46 C           8.8750   -0.0014   -0.9903 C.3     1  UNL1        0.0278
     47 C          10.1539    0.7582   -1.0270 C.3     1  UNL1        0.0150
     48 H           9.8662    1.3037    2.1156 H       1  UNL1        0.0245
     49 H          11.4271    1.2840    2.9482 H       1  UNL1        0.0245
     50 H          10.7867   -0.2660    2.3625 H       1  UNL1        0.0245
     51 H          11.5448    2.0811    0.5585 H       1  UNL1        0.0457
     52 H          13.4162    1.5959    1.8477 H       1  UNL1        0.0245
     53 H          13.7568    0.8315    0.2771 H       1  UNL1        0.0245
     54 H          13.2411   -0.1715    1.7427 H       1  UNL1        0.0245
     55 H          12.0118   -1.4184    0.6869 H       1  UNL1        0.0442
     56 H          11.6799   -1.6245   -1.0349 H       1  UNL1        0.0442
     57 H           9.8566   -2.7714   -0.3939 H       1  UNL1        0.0477
     58 H           9.9683   -2.2339    1.2862 H       1  UNL1        0.0477
     59 H           6.3454   -0.8918   -1.5395 H       1  UNL1        0.0626
     60 H           4.3219    0.4740   -1.9466 H       1  UNL1        0.0636
     61 H           2.9776    2.8745   -0.3496 H       1  UNL1        0.1564
     62 H           0.6211    2.9992   -0.4937 H       1  UNL1        0.1564
     63 H          -1.6442    3.3215   -0.7734 H       1  UNL1        0.0636
     64 H          -3.9526    2.6373   -0.7246 H       1  UNL1        0.0625
     65 H          -5.7890   -3.3312    1.2728 H       1  UNL1        0.0381
     66 H          -8.0229   -2.7438    2.4401 H       1  UNL1        0.0294
     67 H          -8.8092   -2.8854    0.8004 H       1  UNL1        0.0294
     68 H          -8.3936   -5.0450    2.5983 H       1  UNL1        0.0560
     69 H          -8.8790   -5.1256    0.8967 H       1  UNL1        0.0560
     70 H          -7.3167   -5.9866   -0.6246 H       1  UNL1        0.0560
     71 H          -5.5986   -5.6729   -0.2027 H       1  UNL1        0.0560
     72 H          -5.9553   -3.5734   -1.2567 H       1  UNL1        0.0294
     73 H          -7.7744   -3.7093   -0.9911 H       1  UNL1        0.0294
     74 H          -9.9035    0.3226    0.1877 H       1  UNL1        0.0523
     75 H          -9.7328    2.3774    1.3458 H       1  UNL1        0.0284
     76 H         -11.0913    2.6767    0.1137 H       1  UNL1        0.0284
     77 H          -8.4657    3.9546    0.3433 H       1  UNL1        0.0284
     78 H          -9.6907    4.2733   -0.9996 H       1  UNL1        0.0284
     79 H          -7.1931    3.1184   -1.3773 H       1  UNL1        0.0523
     80 H          -7.9940    2.5368   -3.4491 H       1  UNL1        0.0578
     81 H          -9.4575    3.4378   -2.9591 H       1  UNL1        0.0578
     82 H         -11.0506    0.3490   -1.9105 H       1  UNL1        0.0578
     83 H         -11.0904    2.1177   -1.8386 H       1  UNL1        0.0578
     84 H          -2.6813   -1.3130    0.4412 H       1  UNL1        0.0625
     85 H          -0.4245   -0.5574    0.3726 H       1  UNL1        0.0636
     86 H           4.1215    1.4699    2.1562 H       1  UNL1        0.0636
     87 H           6.1845    0.0815    2.5680 H       1  UNL1        0.0626
     88 H           8.6468   -0.4784   -1.9897 H       1  UNL1        0.0477
     89 H           8.0445    0.7378   -0.8343 H       1  UNL1        0.0477
     90 H          10.0205    1.8424   -0.7650 H       1  UNL1        0.0442
     91 H          10.5060    0.7869   -2.0984 H       1  UNL1        0.0442
@<TRIPOS>BOND
     1     1     2    1
     2     2     3    1
     3     2     4    1
     4     4     5    1
     5     5     6    1
     6     6     7    1
     7     7     8   am
     8     8     9    2
     9     8    10    1
    10    10    11   ar
    11    11    12   ar
    12    12    13   ar
    13    13    14    1
    14    14    15   am
    15    15    16    2
    16    15    17   am
    17    17    18    1
    18    18    19   ar
    19    19    20   ar
    20    20    21   ar
    21    21    22    1
    22    22    23   ar
    23    23    24   ar
    24    24    25    1
    25    25    26    1
    26    26    27    1
    27    27    28    1
    28    28    29    1
    29    29    30    1
    30    24    31   ar
    31    31    32   ar
    32    32    33    1
    33    33    34    1
    34    34    35    1
    35    35    36    1
    36    36    37    1
    37    37    38    1
    38    38    39    1
    39    39    40    1
    40    32    41   ar
    41    21    42   ar
    42    42    43   ar
    43    13    44   ar
    44    44    45   ar
    45     7    46    1
    46    46    47    1
    47    47     4    1
    48    45    10   ar
    49    43    18   ar
    50    41    22   ar
    51    30    25    1
    52    37    33    1
    53    40    34    1
    54     1    48    1
    55     1    49    1
    56     1    50    1
    57     2    51    1
    58     3    52    1
    59     3    53    1
    60     3    54    1
    61     5    55    1
    62     5    56    1
    63     6    57    1
    64     6    58    1
    65    11    59    1
    66    12    60    1
    67    14    61    1
    68    17    62    1
    69    19    63    1
    70    20    64    1
    71    25    65    1
    72    26    66    1
    73    26    67    1
    74    27    68    1
    75    27    69    1
    76    29    70    1
    77    29    71    1
    78    30    72    1
    79    30    73    1
    80    34    74    1
    81    35    75    1
    82    35    76    1
    83    36    77    1
    84    36    78    1
    85    37    79    1
    86    38    80    1
    87    38    81    1
    88    40    82    1
    89    40    83    1
    90    42    84    1
    91    43    85    1
    92    44    86    1
    93    45    87    1
    94    46    88    1
    95    46    89    1
    96    47    90    1
    97    47    91    1
