
     RDKit          3D

 83 88  0  0  0  0  0  0  0  0999 V2000
   -1.4651    1.0222    1.9808 C   0  0  2  0  0  0  0  0  0  0  0  0
    0.0132    1.3033    2.3498 C   0  0  0  0  0  0  0  0  0  0  0  0
    0.7623    0.5198    1.3204 C   0  0  1  0  0  0  0  0  0  0  0  0
    2.1635    0.1529    1.5771 C   0  0  2  0  0  0  0  0  0  0  0  0
    3.0450    1.2781    1.9983 C   0  0  0  0  0  0  0  0  0  0  0  0
    4.4685    0.7385    2.0255 C   0  0  0  0  0  0  0  0  0  0  0  0
    4.8469    0.5860    0.6221 C   0  0  0  0  0  0  0  0  0  0  0  0
    5.7240    1.3976    0.0739 C   0  0  0  0  0  0  0  0  0  0  0  0
    6.0340    1.1743   -1.3286 C   0  0  0  0  0  0  0  0  0  0  0  0
    6.8363    1.8566   -1.9719 O   0  0  0  0  0  0  0  0  0  0  0  0
    5.3493    0.0797   -1.9987 C   0  0  0  0  0  0  0  0  0  0  0  0
    4.4838   -0.6823   -1.3560 C   0  0  0  0  0  0  0  0  0  0  0  0
    4.0876   -0.5569    0.0843 C   0  0  1  0  0  0  0  0  0  0  0  0
    4.7436   -1.8062    0.7118 C   0  0  0  0  0  0  0  0  0  0  0  0
    2.6430   -0.4887    0.2592 C   0  0  1  0  0  0  0  0  0  0  0  0
    1.8908   -1.8053    0.1578 C   0  0  1  0  0  0  0  0  0  0  0  0
    2.1989   -2.6506    1.2207 O   0  0  0  0  0  0  0  0  0  0  0  0
    0.4063   -1.6201    0.2074 C   0  0  0  0  0  0  0  0  0  0  0  0
   -0.0905   -0.7341    1.2987 C   0  0  1  0  0  0  0  0  0  0  0  0
   -0.2390   -1.3932    2.6303 C   0  0  0  0  0  0  0  0  0  0  0  0
   -1.4071   -0.0609    0.9449 C   0  0  2  0  0  0  0  0  0  0  0  0
   -1.2260    0.6803   -0.2446 O   0  0  0  0  0  0  0  0  0  0  0  0
   -2.1109    1.7175   -0.0598 C   0  0  1  0  0  0  0  0  0  0  0  0
   -2.0489    2.0648    1.3137 O   0  0  0  0  0  0  0  0  0  0  0  0
   -1.7936    2.9415   -0.8974 C   0  0  0  0  0  0  0  0  0  0  0  0
   -1.7500    2.6962   -2.3632 C   0  0  0  0  0  0  0  0  0  0  0  0
   -1.2021    3.9616   -3.0269 C   0  0  0  0  0  0  0  0  0  0  0  0
   -2.0049    5.1870   -2.6897 C   0  0  0  0  0  0  0  0  0  0  0  0
   -2.3114    5.3013   -1.2088 C   0  0  0  0  0  0  0  0  0  0  0  0
   -2.8690    4.0122   -0.6633 C   0  0  0  0  0  0  0  0  0  0  0  0
   -2.5606   -0.9419    0.8566 C   0  0  0  0  0  0  0  0  0  0  0  0
   -2.5556   -0.8079   -0.3768 O   0  0  0  0  0  0  0  0  0  0  0  0
   -3.5619   -1.7859    1.5489 C   0  0  0  0  0  0  0  0  0  0  0  0
   -4.3899   -2.4969    0.6521 O   0  0  0  0  0  0  0  0  0  0  0  0
   -3.8712   -3.4564   -0.2152 C   0  0  0  0  0  0  0  0  0  0  0  0
   -4.1575   -2.5988    0.5991 O   0  0  0  0  0  0  0  0  0  0  0  0
   -3.3895   -4.4919   -1.1807 C   0  0  0  0  0  0  0  0  0  0  0  0
   -3.7701   -4.0748   -2.5684 C   0  0  0  0  0  0  0  0  0  0  0  0
   -4.0989   -5.7780   -0.7568 C   0  0  0  0  0  0  0  0  0  0  0  0
   -1.9942    0.7438    2.9163 H   0  0  0  0  0  0  0  0  0  0  0  0
    0.1793    2.3882    2.1921 H   0  0  0  0  0  0  0  0  0  0  0  0
    0.2233    1.0302    3.3775 H   0  0  0  0  0  0  0  0  0  0  0  0
    0.6352    0.9853    0.3136 H   0  0  0  0  0  0  0  0  0  0  0  0
    2.3000   -0.6592    2.3192 H   0  0  0  0  0  0  0  0  0  0  0  0
    2.7445    1.6758    2.9879 H   0  0  0  0  0  0  0  0  0  0  0  0
    3.0385    2.0667    1.1983 H   0  0  0  0  0  0  0  0  0  0  0  0
    5.0806    1.4992    2.5621 H   0  0  0  0  0  0  0  0  0  0  0  0
    4.4550   -0.2065    2.5841 H   0  0  0  0  0  0  0  0  0  0  0  0
    6.2021    2.1965    0.6145 H   0  0  0  0  0  0  0  0  0  0  0  0
    5.5237   -0.1438   -3.0433 H   0  0  0  0  0  0  0  0  0  0  0  0
    3.9401   -1.5124   -1.8148 H   0  0  0  0  0  0  0  0  0  0  0  0
    4.6380   -2.6745    0.0297 H   0  0  0  0  0  0  0  0  0  0  0  0
    4.3497   -2.0069    1.7222 H   0  0  0  0  0  0  0  0  0  0  0  0
    5.8396   -1.6663    0.8241 H   0  0  0  0  0  0  0  0  0  0  0  0
    2.2059    0.1566   -0.5344 H   0  0  0  0  0  0  0  0  0  0  0  0
    2.1220   -2.2377   -0.8304 H   0  0  0  0  0  0  0  0  0  0  0  0
    1.5145   -3.3170    1.4031 H   0  0  0  0  0  0  0  0  0  0  0  0
   -0.0298   -1.2892   -0.7483 H   0  0  0  0  0  0  0  0  0  0  0  0
   -0.0395   -2.6269    0.3967 H   0  0  0  0  0  0  0  0  0  0  0  0
   -0.7446   -0.7615    3.3856 H   0  0  0  0  0  0  0  0  0  0  0  0
   -0.8415   -2.3276    2.5823 H   0  0  0  0  0  0  0  0  0  0  0  0
    0.7608   -1.6234    3.1227 H   0  0  0  0  0  0  0  0  0  0  0  0
   -3.1391    1.4013   -0.3358 H   0  0  0  0  0  0  0  0  0  0  0  0
   -0.8493    3.3743   -0.5248 H   0  0  0  0  0  0  0  0  0  0  0  0
   -2.7706    2.5079   -2.7681 H   0  0  0  0  0  0  0  0  0  0  0  0
   -1.0268    1.8890   -2.6368 H   0  0  0  0  0  0  0  0  0  0  0  0
   -0.1394    4.1139   -2.7671 H   0  0  0  0  0  0  0  0  0  0  0  0
   -1.2320    3.8499   -4.1390 H   0  0  0  0  0  0  0  0  0  0  0  0
   -1.3663    6.0791   -2.9286 H   0  0  0  0  0  0  0  0  0  0  0  0
   -2.9263    5.3077   -3.3015 H   0  0  0  0  0  0  0  0  0  0  0  0
   -3.0100    6.1346   -1.0558 H   0  0  0  0  0  0  0  0  0  0  0  0
   -1.3850    5.5320   -0.6380 H   0  0  0  0  0  0  0  0  0  0  0  0
   -3.7665    3.6728   -1.2259 H   0  0  0  0  0  0  0  0  0  0  0  0
   -3.0845    4.1542    0.4090 H   0  0  0  0  0  0  0  0  0  0  0  0
   -3.1650   -2.4560    2.3242 H   0  0  0  0  0  0  0  0  0  0  0  0
   -4.2966   -1.1357    2.1239 H   0  0  0  0  0  0  0  0  0  0  0  0
   -2.2895   -4.5572   -1.0321 H   0  0  0  0  0  0  0  0  0  0  0  0
   -2.8431   -3.8475   -3.1420 H   0  0  0  0  0  0  0  0  0  0  0  0
   -4.3389   -3.1189   -2.5454 H   0  0  0  0  0  0  0  0  0  0  0  0
   -4.3526   -4.9041   -3.0127 H   0  0  0  0  0  0  0  0  0  0  0  0
   -5.1479   -5.4811   -0.5106 H   0  0  0  0  0  0  0  0  0  0  0  0
   -3.6540   -6.1479    0.1881 H   0  0  0  0  0  0  0  0  0  0  0  0
   -4.1429   -6.4980   -1.5689 H   0  0  0  0  0  0  0  0  0  0  0  0
  1  2  1  0
  2  3  1  0
  3  4  1  0
  4  5  1  0
  5  6  1  0
  6  7  1  0
  7  8  2  0
  8  9  1  0
  9 10  2  0
  9 11  1  0
 11 12  2  0
 12 13  1  0
 13 14  1  1
 13 15  1  0
 15 16  1  0
 16 17  1  0
 16 18  1  0
 18 19  1  0
 19 20  1  1
 19 21  1  0
 21 22  1  0
 22 23  1  0
 23 24  1  0
 23 25  1  0
 25 26  1  0
 26 27  1  0
 27 28  1  0
 28 29  1  0
 29 30  1  0
 21 31  1  6
 31 32  2  0
 31 33  1  0
 33 34  1  0
 34 35  1  0
 35 36  2  0
 35 37  1  0
 37 38  1  0
 37 39  1  0
 21  1  1  0
 30 25  1  0
 24  1  1  0
 19  3  1  0
 15  4  1  0
 13  7  1  0
  1 40  1  1
  2 41  1  0
  2 42  1  0
  3 43  1  6
  4 44  1  1
  5 45  1  0
  5 46  1  0
  6 47  1  0
  6 48  1  0
  8 49  1  0
 11 50  1  0
 12 51  1  0
 14 52  1  0
 14 53  1  0
 14 54  1  0
 15 55  1  6
 16 56  1  6
 17 57  1  0
 18 58  1  0
 18 59  1  0
 20 60  1  0
 20 61  1  0
 20 62  1  0
 23 63  1  6
 25 64  1  0
 26 65  1  0
 26 66  1  0
 27 67  1  0
 27 68  1  0
 28 69  1  0
 28 70  1  0
 29 71  1  0
 29 72  1  0
 30 73  1  0
 30 74  1  0
 33 75  1  0
 33 76  1  0
 37 77  1  0
 38 78  1  0
 38 79  1  0
 38 80  1  0
 39 81  1  0
 39 82  1  0
 39 83  1  0
M  END
$$$$
