@<TRIPOS>MOLECULE
*****
 83 88 0 0 0
SMALL
GASTEIGER

@<TRIPOS>ATOM
      1 C          -1.4651    1.0222    1.9808 C.3     1  UNL1        0.0985
      2 C           0.0132    1.3033    2.3498 C.3     1  UNL1       -0.0196
      3 C           0.7623    0.5198    1.3204 C.3     1  UNL1       -0.0268
      4 C           2.1635    0.1529    1.5771 C.3     1  UNL1       -0.0310
      5 C           3.0450    1.2781    1.9983 C.3     1  UNL1       -0.0458
      6 C           4.4685    0.7385    2.0255 C.3     1  UNL1       -0.0302
      7 C           4.8469    0.5860    0.6221 C.2     1  UNL1       -0.0559
      8 C           5.7240    1.3976    0.0739 C.2     1  UNL1       -0.0149
      9 C           6.0340    1.1743   -1.3286 C.2     1  UNL1        0.1787
     10 O           6.8363    1.8566   -1.9719 O.2     1  UNL1       -0.2879
     11 C           5.3493    0.0797   -1.9987 C.2     1  UNL1       -0.0180
     12 C           4.4838   -0.6823   -1.3560 C.2     1  UNL1       -0.0701
     13 C           4.0876   -0.5569    0.0843 C.3     1  UNL1        0.0131
     14 C           4.7436   -1.8062    0.7118 C.3     1  UNL1       -0.0520
     15 C           2.6430   -0.4887    0.2592 C.3     1  UNL1        0.0007
     16 C           1.8908   -1.8053    0.1578 C.3     1  UNL1        0.0600
     17 O           2.1989   -2.6506    1.2207 O.3     1  UNL1       -0.3914
     18 C           0.4063   -1.6201    0.2074 C.3     1  UNL1       -0.0177
     19 C          -0.0905   -0.7341    1.2987 C.3     1  UNL1        0.0121
     20 C          -0.2390   -1.3932    2.6303 C.3     1  UNL1       -0.0561
     21 C          -1.4071   -0.0609    0.9449 C.3     1  UNL1        0.1648
     22 O          -1.2260    0.6803   -0.2446 O.3     1  UNL1       -0.3338
     23 C          -2.1109    1.7175   -0.0598 C.3     1  UNL1        0.1638
     24 O          -2.0489    2.0648    1.3137 O.3     1  UNL1       -0.3445
     25 C          -1.7936    2.9415   -0.8974 C.3     1  UNL1        0.0102
     26 C          -1.7500    2.6962   -2.3632 C.3     1  UNL1       -0.0456
     27 C          -1.2021    3.9616   -3.0269 C.3     1  UNL1       -0.0526
     28 C          -2.0049    5.1870   -2.6897 C.3     1  UNL1       -0.0530
     29 C          -2.3114    5.3013   -1.2088 C.3     1  UNL1       -0.0526
     30 C          -2.8690    4.0122   -0.6633 C.3     1  UNL1       -0.0456
     31 C          -2.5606   -0.9419    0.8566 C.2     1  UNL1        0.2051
     32 O          -2.5556   -0.8079   -0.3768 O.2     1  UNL1       -0.2906
     33 C          -3.5619   -1.7859    1.5489 C.3     1  UNL1        0.1532
     34 O          -4.3899   -2.4969    0.6521 O.3     1  UNL1       -0.4567
     35 C          -3.8712   -3.4564   -0.2152 C.2     1  UNL1        0.3101
     36 O          -4.1575   -2.5988    0.5991 O.2     1  UNL1       -0.2505
     37 C          -3.3895   -4.4919   -1.1807 C.3     1  UNL1        0.0508
     38 C          -3.7701   -4.0748   -2.5684 C.3     1  UNL1       -0.0525
     39 C          -4.0989   -5.7780   -0.7568 C.3     1  UNL1       -0.0525
     40 H          -1.9942    0.7438    2.9163 H       1  UNL1        0.0630
     41 H           0.1793    2.3882    2.1921 H       1  UNL1        0.0294
     42 H           0.2233    1.0302    3.3775 H       1  UNL1        0.0294
     43 H           0.6352    0.9853    0.3136 H       1  UNL1        0.0311
     44 H           2.3000   -0.6592    2.3192 H       1  UNL1        0.0308
     45 H           2.7445    1.6758    2.9879 H       1  UNL1        0.0271
     46 H           3.0385    2.0667    1.1983 H       1  UNL1        0.0271
     47 H           5.0806    1.4992    2.5621 H       1  UNL1        0.0310
     48 H           4.4550   -0.2065    2.5841 H       1  UNL1        0.0310
     49 H           6.2021    2.1965    0.6145 H       1  UNL1        0.0655
     50 H           5.5237   -0.1438   -3.0433 H       1  UNL1        0.0653
     51 H           3.9401   -1.5124   -1.8148 H       1  UNL1        0.0582
     52 H           4.6380   -2.6745    0.0297 H       1  UNL1        0.0241
     53 H           4.3497   -2.0069    1.7222 H       1  UNL1        0.0241
     54 H           5.8396   -1.6663    0.8241 H       1  UNL1        0.0241
     55 H           2.2059    0.1566   -0.5344 H       1  UNL1        0.0340
     56 H           2.1220   -2.2377   -0.8304 H       1  UNL1        0.0596
     57 H           1.5145   -3.3170    1.4031 H       1  UNL1        0.2098
     58 H          -0.0298   -1.2892   -0.7483 H       1  UNL1        0.0297
     59 H          -0.0395   -2.6269    0.3967 H       1  UNL1        0.0297
     60 H          -0.7446   -0.7615    3.3856 H       1  UNL1        0.0236
     61 H          -0.8415   -2.3276    2.5823 H       1  UNL1        0.0236
     62 H           0.7608   -1.6234    3.1227 H       1  UNL1        0.0236
     63 H          -3.1391    1.4013   -0.3358 H       1  UNL1        0.0913
     64 H          -0.8493    3.3743   -0.5248 H       1  UNL1        0.0350
     65 H          -2.7706    2.5079   -2.7681 H       1  UNL1        0.0270
     66 H          -1.0268    1.8890   -2.6368 H       1  UNL1        0.0270
     67 H          -0.1394    4.1139   -2.7671 H       1  UNL1        0.0265
     68 H          -1.2320    3.8499   -4.1390 H       1  UNL1        0.0265
     69 H          -1.3663    6.0791   -2.9286 H       1  UNL1        0.0265
     70 H          -2.9263    5.3077   -3.3015 H       1  UNL1        0.0265
     71 H          -3.0100    6.1346   -1.0558 H       1  UNL1        0.0265
     72 H          -1.3850    5.5320   -0.6380 H       1  UNL1        0.0265
     73 H          -3.7665    3.6728   -1.2259 H       1  UNL1        0.0270
     74 H          -3.0845    4.1542    0.4090 H       1  UNL1        0.0270
     75 H          -3.1650   -2.4560    2.3242 H       1  UNL1        0.0779
     76 H          -4.2966   -1.1357    2.1239 H       1  UNL1        0.0779
     77 H          -2.2895   -4.5572   -1.0321 H       1  UNL1        0.0408
     78 H          -2.8431   -3.8475   -3.1420 H       1  UNL1        0.0237
     79 H          -4.3389   -3.1189   -2.5454 H       1  UNL1        0.0237
     80 H          -4.3526   -4.9041   -3.0127 H       1  UNL1        0.0237
     81 H          -5.1479   -5.4811   -0.5106 H       1  UNL1        0.0237
     82 H          -3.6540   -6.1479    0.1881 H       1  UNL1        0.0237
     83 H          -4.1429   -6.4980   -1.5689 H       1  UNL1        0.0237
@<TRIPOS>BOND
     1     1     2    1
     2     2     3    1
     3     3     4    1
     4     4     5    1
     5     5     6    1
     6     6     7    1
     7     7     8    2
     8     8     9    1
     9     9    10    2
    10     9    11    1
    11    11    12    2
    12    12    13    1
    13    13    14    1
    14    13    15    1
    15    15    16    1
    16    16    17    1
    17    16    18    1
    18    18    19    1
    19    19    20    1
    20    19    21    1
    21    21    22    1
    22    22    23    1
    23    23    24    1
    24    23    25    1
    25    25    26    1
    26    26    27    1
    27    27    28    1
    28    28    29    1
    29    29    30    1
    30    21    31    1
    31    31    32    2
    32    31    33    1
    33    33    34    1
    34    34    35    1
    35    35    36    2
    36    35    37    1
    37    37    38    1
    38    37    39    1
    39    21     1    1
    40    30    25    1
    41    24     1    1
    42    19     3    1
    43    15     4    1
    44    13     7    1
    45     1    40    1
    46     2    41    1
    47     2    42    1
    48     3    43    1
    49     4    44    1
    50     5    45    1
    51     5    46    1
    52     6    47    1
    53     6    48    1
    54     8    49    1
    55    11    50    1
    56    12    51    1
    57    14    52    1
    58    14    53    1
    59    14    54    1
    60    15    55    1
    61    16    56    1
    62    17    57    1
    63    18    58    1
    64    18    59    1
    65    20    60    1
    66    20    61    1
    67    20    62    1
    68    23    63    1
    69    25    64    1
    70    26    65    1
    71    26    66    1
    72    27    67    1
    73    27    68    1
    74    28    69    1
    75    28    70    1
    76    29    71    1
    77    29    72    1
    78    30    73    1
    79    30    74    1
    80    33    75    1
    81    33    76    1
    82    37    77    1
    83    38    78    1
    84    38    79    1
    85    38    80    1
    86    39    81    1
    87    39    82    1
    88    39    83    1
