@<TRIPOS>MOLECULE
*****
 41 43 0 0 0
SMALL
GASTEIGER

@<TRIPOS>ATOM
      1 C          -5.9735   -1.3398   -0.2484 C.3     1  UNL1        0.0788
      2 O          -5.0994   -0.2700    0.0165 O.3     1  UNL1       -0.4951
      3 C          -3.7142   -0.4202    0.0318 C.ar    1  UNL1        0.1208
      4 C          -3.1464   -1.6428   -0.2169 C.ar    1  UNL1       -0.0180
      5 C          -1.7530   -1.7525   -0.1928 C.ar    1  UNL1       -0.0337
      6 C          -0.9285   -0.6753    0.0723 C.ar    1  UNL1        0.0574
      7 C          -1.5420    0.5356    0.3168 C.ar    1  UNL1        0.0077
      8 C          -2.9176    0.6727    0.2992 C.ar    1  UNL1       -0.0105
      9 C          -0.5210    1.4234    0.5462 C.ar    1  UNL1       -0.0080
     10 C          -0.7535    2.8503    0.8483 C.3     1  UNL1        0.0721
     11 C          -1.1228    3.6246   -0.3733 C.2     1  UNL1        0.3091
     12 O          -1.2149    3.0934   -1.5072 O.2     1  UNL1       -0.2507
     13 O          -1.3726    4.9653   -0.2645 O.3     1  UNL1       -0.4804
     14 C           0.7054    0.7599    0.4432 C.ar    1  UNL1        0.0284
     15 C           2.0102    1.4392    0.7131 C.3     1  UNL1       -0.0235
     16 N           0.4373   -0.5255    0.1497 N.ar    1  UNL1       -0.2801
     17 C           1.3520   -1.5627   -0.1388 C.2     1  UNL1        0.2631
     18 O           0.8495   -2.7647   -0.1542 O.2     1  UNL1       -0.2667
     19 C           2.7614   -1.4572   -0.4178 C.ar    1  UNL1        0.0399
     20 C           3.6065   -2.4388    0.1105 C.ar    1  UNL1       -0.0480
     21 C           4.9589   -2.4777   -0.1659 C.ar    1  UNL1       -0.0427
     22 C           5.5338   -1.5346   -0.9861 C.ar    1  UNL1        0.0410
     23 CL          7.2400   -1.5217   -1.3785 Cl      1  UNL1       -0.0835
     24 C           4.7080   -0.5674   -1.5093 C.ar    1  UNL1       -0.0427
     25 C           3.3317   -0.5286   -1.2283 C.ar    1  UNL1       -0.0480
     26 H          -5.5810   -1.9977   -1.0392 H       1  UNL1        0.0660
     27 H          -6.9727   -0.9395   -0.5916 H       1  UNL1        0.0660
     28 H          -6.2023   -1.9430    0.6583 H       1  UNL1        0.0660
     29 H          -3.7110   -2.5289   -0.4310 H       1  UNL1        0.0655
     30 H          -1.3304   -2.7175   -0.3920 H       1  UNL1        0.0640
     31 H          -3.4063    1.6146    0.4888 H       1  UNL1        0.0661
     32 H          -1.6571    2.9137    1.5159 H       1  UNL1        0.0427
     33 H           0.0774    3.3252    1.3806 H       1  UNL1        0.0427
     34 H          -2.0797    5.4449   -0.8421 H       1  UNL1        0.2951
     35 H           2.3598    1.9564   -0.1705 H       1  UNL1        0.0292
     36 H           2.6776    0.7116    1.1843 H       1  UNL1        0.0292
     37 H           1.7975    2.2743    1.4596 H       1  UNL1        0.0292
     38 H           3.1432   -3.1840    0.7606 H       1  UNL1        0.0626
     39 H           5.6105   -3.2378    0.2435 H       1  UNL1        0.0632
     40 H           5.1203    0.2010   -2.1654 H       1  UNL1        0.0632
     41 H           2.7189    0.2219   -1.6843 H       1  UNL1        0.0626
@<TRIPOS>BOND
     1     1     2    1
     2     2     3    1
     3     3     4   ar
     4     4     5   ar
     5     5     6   ar
     6     6     7   ar
     7     7     8   ar
     8     7     9   ar
     9     9    10    1
    10    10    11    1
    11    11    12    2
    12    11    13    1
    13     9    14   ar
    14    14    15    1
    15    14    16   ar
    16    16    17   am
    17    17    18    2
    18    17    19    1
    19    19    20   ar
    20    20    21   ar
    21    21    22   ar
    22    22    23    1
    23    22    24   ar
    24    24    25   ar
    25     8     3   ar
    26    25    19   ar
    27    16     6   ar
    28     1    26    1
    29     1    27    1
    30     1    28    1
    31     4    29    1
    32     5    30    1
    33     8    31    1
    34    10    32    1
    35    10    33    1
    36    13    34    1
    37    15    35    1
    38    15    36    1
    39    15    37    1
    40    20    38    1
    41    21    39    1
    42    24    40    1
    43    25    41    1
