
     RDKit          3D

 54 54  0  0  0  0  0  0  0  0999 V2000
    7.5312    1.8109    1.5733 C   0  0  0  0  0  0  0  0  0  0  0  0
    6.5138    0.8749    0.8247 C   0  0  0  0  0  0  0  0  0  0  0  0
    6.3571   -0.2912    1.7065 C   0  0  0  0  0  0  0  0  0  0  0  0
    5.5717   -1.4684    1.3670 C   0  0  0  0  0  0  0  0  0  0  0  0
    4.1377   -1.3069    1.0671 C   0  0  0  0  0  0  0  0  0  0  0  0
    3.8478   -0.5630   -0.1658 C   0  0  0  0  0  0  0  0  0  0  0  0
    2.3340   -0.4364   -0.3757 C   0  0  0  0  0  0  0  0  0  0  0  0
    1.7040   -1.7709   -0.4969 C   0  0  0  0  0  0  0  0  0  0  0  0
    0.1958   -1.5906   -0.7277 C   0  0  0  0  0  0  0  0  0  0  0  0
   -0.1012   -0.8135   -1.9863 C   0  0  0  0  0  0  0  0  0  0  0  0
   -1.5700   -0.7302   -2.0865 N   0  0  0  0  0  0  0  0  0  0  0  0
   -2.4161   -0.1357   -1.1470 C   0  0  0  0  0  0  0  0  0  0  0  0
   -1.9675    0.3874   -0.1198 O   0  0  0  0  0  0  0  0  0  0  0  0
   -3.8078   -0.1136   -1.3408 N   0  0  0  0  0  0  0  0  0  0  0  0
   -4.7362    0.4720   -0.4314 C   0  0  0  0  0  0  0  0  0  0  0  0
   -5.5523    1.5776   -0.9982 C   0  0  0  0  0  0  0  0  0  0  0  0
   -6.6204    1.9996   -0.0390 C   0  0  0  0  0  0  0  0  0  0  0  0
   -7.3696    0.8872    0.6139 C   0  0  0  0  0  0  0  0  0  0  0  0
   -7.0622   -0.3855   -0.1469 C   0  0  0  0  0  0  0  0  0  0  0  0
   -5.5843   -0.6631    0.1238 C   0  0  0  0  0  0  0  0  0  0  0  0
    7.7156    2.6588    0.9093 H   0  0  0  0  0  0  0  0  0  0  0  0
    8.4150    1.1906    1.7688 H   0  0  0  0  0  0  0  0  0  0  0  0
    7.0238    2.0514    2.5282 H   0  0  0  0  0  0  0  0  0  0  0  0
    5.6218    1.5550    0.8279 H   0  0  0  0  0  0  0  0  0  0  0  0
    6.8664    0.7291   -0.1859 H   0  0  0  0  0  0  0  0  0  0  0  0
    7.3968   -0.5886    2.0684 H   0  0  0  0  0  0  0  0  0  0  0  0
    5.9234    0.1272    2.6866 H   0  0  0  0  0  0  0  0  0  0  0  0
    6.0731   -2.1264    0.5848 H   0  0  0  0  0  0  0  0  0  0  0  0
    5.6313   -2.1618    2.2867 H   0  0  0  0  0  0  0  0  0  0  0  0
    3.6091   -2.3017    1.0124 H   0  0  0  0  0  0  0  0  0  0  0  0
    3.5803   -0.7866    1.9127 H   0  0  0  0  0  0  0  0  0  0  0  0
    4.2376    0.4299   -0.2974 H   0  0  0  0  0  0  0  0  0  0  0  0
    4.2487   -1.1707   -1.0399 H   0  0  0  0  0  0  0  0  0  0  0  0
    1.9688    0.1443    0.4743 H   0  0  0  0  0  0  0  0  0  0  0  0
    2.2436    0.1024   -1.3585 H   0  0  0  0  0  0  0  0  0  0  0  0
    2.1604   -2.4311   -1.2328 H   0  0  0  0  0  0  0  0  0  0  0  0
    1.7509   -2.3286    0.4861 H   0  0  0  0  0  0  0  0  0  0  0  0
   -0.2098   -2.6327   -0.7957 H   0  0  0  0  0  0  0  0  0  0  0  0
   -0.2164   -1.1095    0.1577 H   0  0  0  0  0  0  0  0  0  0  0  0
    0.3278    0.2026   -1.9244 H   0  0  0  0  0  0  0  0  0  0  0  0
    0.3018   -1.4154   -2.8241 H   0  0  0  0  0  0  0  0  0  0  0  0
   -2.0271   -1.1582   -2.9458 H   0  0  0  0  0  0  0  0  0  0  0  0
   -4.2636   -0.5360   -2.1860 H   0  0  0  0  0  0  0  0  0  0  0  0
   -4.1515    0.8849    0.4174 H   0  0  0  0  0  0  0  0  0  0  0  0
   -6.0022    1.2766   -1.9702 H   0  0  0  0  0  0  0  0  0  0  0  0
   -4.8766    2.4568   -1.1127 H   0  0  0  0  0  0  0  0  0  0  0  0
   -7.3165    2.6555   -0.5729 H   0  0  0  0  0  0  0  0  0  0  0  0
   -6.1816    2.6244    0.7849 H   0  0  0  0  0  0  0  0  0  0  0  0
   -7.0858    0.7632    1.6825 H   0  0  0  0  0  0  0  0  0  0  0  0
   -8.4601    1.1223    0.6231 H   0  0  0  0  0  0  0  0  0  0  0  0
   -7.2610   -0.2088   -1.2079 H   0  0  0  0  0  0  0  0  0  0  0  0
   -7.6553   -1.1920    0.2956 H   0  0  0  0  0  0  0  0  0  0  0  0
   -5.4872   -0.7411    1.2278 H   0  0  0  0  0  0  0  0  0  0  0  0
   -5.3072   -1.6534   -0.2957 H   0  0  0  0  0  0  0  0  0  0  0  0
  1  2  1  0
  2  3  1  0
  3  4  1  0
  4  5  1  0
  5  6  1  0
  6  7  1  0
  7  8  1  0
  8  9  1  0
  9 10  1  0
 10 11  1  0
 11 12  1  0
 12 13  2  0
 12 14  1  0
 14 15  1  0
 15 16  1  0
 16 17  1  0
 17 18  1  0
 18 19  1  0
 19 20  1  0
 20 15  1  0
  1 21  1  0
  1 22  1  0
  1 23  1  0
  2 24  1  0
  2 25  1  0
  3 26  1  0
  3 27  1  0
  4 28  1  0
  4 29  1  0
  5 30  1  0
  5 31  1  0
  6 32  1  0
  6 33  1  0
  7 34  1  0
  7 35  1  0
  8 36  1  0
  8 37  1  0
  9 38  1  0
  9 39  1  0
 10 40  1  0
 10 41  1  0
 11 42  1  0
 14 43  1  0
 15 44  1  0
 16 45  1  0
 16 46  1  0
 17 47  1  0
 17 48  1  0
 18 49  1  0
 18 50  1  0
 19 51  1  0
 19 52  1  0
 20 53  1  0
 20 54  1  0
M  END
$$$$
