@<TRIPOS>MOLECULE
*****
 33 35 0 0 0
SMALL
GASTEIGER

@<TRIPOS>ATOM
      1 N           5.4317   -0.3463    0.0096 N.3     1  UNL1       -0.2035
      2 S           4.0481   -1.0250   -0.7691 S.O2    1  UNL1        0.0574
      3 O           3.8425   -2.3889   -0.1517 O.2     1  UNL1       -0.1532
      4 O           4.2249   -1.1963   -2.2401 O.2     1  UNL1       -0.1532
      5 C           2.6024   -0.0773   -0.4559 C.ar    1  UNL1        0.1236
      6 C           1.4906   -0.6239    0.1831 C.ar    1  UNL1       -0.0261
      7 C           0.3883    0.1706    0.4032 C.ar    1  UNL1        0.0088
      8 C           0.3024    1.5008    0.0275 C.ar    1  UNL1       -0.0524
      9 C           1.4281    2.0247   -0.6106 C.ar    1  UNL1       -0.0411
     10 C           2.5234    1.2487   -0.8332 C.ar    1  UNL1        0.0673
     11 CL          3.8668    2.0257   -1.6422 Cl      1  UNL1       -0.0815
     12 C          -0.7842   -0.4264    1.0851 C.3     1  UNL1        0.1867
     13 O          -0.4923   -1.6903    1.5983 O.3     1  UNL1       -0.3639
     14 N          -1.1368    0.4725    2.1702 N.am    1  UNL1       -0.2761
     15 C          -2.4610    0.9688    2.0235 C.2     1  UNL1        0.2470
     16 O          -2.9755    1.7657    2.8595 O.2     1  UNL1       -0.2701
     17 C          -2.9778    0.3728    0.7984 C.ar    1  UNL1        0.0446
     18 C          -4.2288    0.5355    0.2024 C.ar    1  UNL1       -0.0492
     19 C          -4.5469   -0.1136   -0.9730 C.ar    1  UNL1       -0.0610
     20 C          -3.5898   -0.9237   -1.5343 C.ar    1  UNL1       -0.0613
     21 C          -2.3508   -1.0821   -0.9404 C.ar    1  UNL1       -0.0532
     22 C          -1.9969   -0.4512    0.2325 C.ar    1  UNL1        0.0189
     23 H           5.8276    0.4799   -0.4871 H       1  UNL1        0.1442
     24 H           6.1716   -1.1030    0.0061 H       1  UNL1        0.1442
     25 H           1.5101   -1.6763    0.5014 H       1  UNL1        0.0642
     26 H          -0.5908    2.0727    0.2285 H       1  UNL1        0.0622
     27 H           1.3261    3.0813   -0.8940 H       1  UNL1        0.0633
     28 H          -0.4305   -2.3450    0.8442 H       1  UNL1        0.2127
     29 H          -0.3818    0.6266    2.8944 H       1  UNL1        0.1524
     30 H          -4.9530    1.1939    0.6947 H       1  UNL1        0.0625
     31 H          -5.5399    0.0806   -1.3484 H       1  UNL1        0.0618
     32 H          -3.8967   -1.4121   -2.4631 H       1  UNL1        0.0618
     33 H          -1.6511   -1.7395   -1.4484 H       1  UNL1        0.0622
@<TRIPOS>BOND
     1     1     2    1
     2     2     3    2
     3     2     4    2
     4     2     5    1
     5     5     6   ar
     6     6     7   ar
     7     7     8   ar
     8     8     9   ar
     9     9    10   ar
    10    10    11    1
    11     7    12    1
    12    12    13    1
    13    12    14    1
    14    14    15   am
    15    15    16    2
    16    15    17    1
    17    17    18   ar
    18    18    19   ar
    19    19    20   ar
    20    20    21   ar
    21    21    22   ar
    22    10     5   ar
    23    22    12    1
    24    22    17   ar
    25     1    23    1
    26     1    24    1
    27     6    25    1
    28     8    26    1
    29     9    27    1
    30    13    28    1
    31    14    29    1
    32    18    30    1
    33    19    31    1
    34    20    32    1
    35    21    33    1
