@<TRIPOS>MOLECULE
*****
 56 63 0 0 0
SMALL
GASTEIGER

@<TRIPOS>ATOM
      1 C           1.3482    1.6876    0.2857 C.3     1  UNL1        0.1420
      2 C           2.0368    0.8010    1.2912 C.3     1  UNL1        0.0368
      3 C           2.4013   -0.4157    0.4778 C.3     1  UNL1        0.2144
      4 O           1.9172   -1.5405    1.1506 O.3     1  UNL1       -0.3737
      5 C           3.8776   -0.5703    0.3171 C.2     1  UNL1        0.3439
      6 O           4.7227    0.2309   -0.1693 O.2     1  UNL1       -0.2474
      7 O           4.7704    0.3298   -0.2205 O.3     1  UNL1       -0.4658
      8 C           6.1434    0.1195   -0.3418 C.3     1  UNL1        0.0818
      9 C           1.7096   -0.2405   -0.8314 C.3     1  UNL1        0.1860
     10 C           2.5632   -0.5558   -2.0353 C.3     1  UNL1       -0.0128
     11 O           1.4431    1.1373   -0.9532 O.3     1  UNL1       -0.3273
     12 N           0.4285   -0.9050   -0.8250 N.ar    1  UNL1       -0.3064
     13 C           0.0488   -2.0992   -1.3068 C.ar    1  UNL1        0.0527
     14 C          -1.2934   -2.3521   -1.1454 C.ar    1  UNL1        0.0081
     15 C          -1.8923   -3.5178   -1.5597 C.ar    1  UNL1       -0.0520
     16 C          -1.1461   -4.5260   -2.1798 C.ar    1  UNL1       -0.0611
     17 C           0.1969   -4.2538   -2.3316 C.ar    1  UNL1       -0.0598
     18 C           0.7833   -3.0821   -1.9119 C.ar    1  UNL1       -0.0375
     19 C          -1.8158   -1.2437   -0.5123 C.ar    1  UNL1        0.0151
     20 C          -3.0752   -0.8858   -0.0797 C.ar    1  UNL1       -0.0078
     21 C          -4.3416   -1.6909   -0.1980 C.3     1  UNL1        0.0385
     22 N          -5.3187   -0.8069    0.4220 N.am    1  UNL1       -0.3072
     23 C          -4.6686    0.3721    0.8474 C.2     1  UNL1        0.2453
     24 O          -5.3948    1.2089    1.3957 O.2     1  UNL1       -0.2702
     25 C          -3.2793    0.3253    0.5378 C.ar    1  UNL1        0.0518
     26 C          -2.2232    1.1557    0.7130 C.ar    1  UNL1        0.0221
     27 C          -2.1265    2.3722    1.2892 C.ar    1  UNL1        0.0085
     28 C          -2.9366    3.2799    1.8948 C.ar    1  UNL1       -0.0520
     29 C          -2.5205    4.4895    2.4018 C.ar    1  UNL1       -0.0611
     30 C          -1.1746    4.8504    2.3074 C.ar    1  UNL1       -0.0598
     31 C          -0.3299    3.9333    1.6898 C.ar    1  UNL1       -0.0375
     32 C          -0.8078    2.7355    1.2012 C.ar    1  UNL1        0.0524
     33 N          -0.0944    1.7777    0.5877 N.ar    1  UNL1       -0.3114
     34 C          -0.9891    0.7903    0.2819 C.ar    1  UNL1        0.0774
     35 C          -0.7568   -0.4206   -0.3445 C.ar    1  UNL1        0.0772
     36 H           1.7408    2.7160    0.2951 H       1  UNL1        0.0840
     37 H           2.9746    1.2925    1.5880 H       1  UNL1        0.0344
     38 H           1.3805    0.5512    2.1490 H       1  UNL1        0.0344
     39 H           1.8070   -1.3222    2.0988 H       1  UNL1        0.2111
     40 H           6.4075   -0.5061   -1.2267 H       1  UNL1        0.0661
     41 H           6.6267    1.1198   -0.5411 H       1  UNL1        0.0661
     42 H           6.6494   -0.2426    0.5801 H       1  UNL1        0.0661
     43 H           3.3844   -1.2511   -1.7822 H       1  UNL1        0.0277
     44 H           1.9853   -0.8124   -2.9428 H       1  UNL1        0.0277
     45 H           3.1298    0.3808   -2.3638 H       1  UNL1        0.0277
     46 H          -2.9487   -3.6832   -1.4178 H       1  UNL1        0.0624
     47 H          -1.6528   -5.4230   -2.4879 H       1  UNL1        0.0618
     48 H           0.8171   -5.0035   -2.8071 H       1  UNL1        0.0618
     49 H           1.8226   -2.9581   -2.0562 H       1  UNL1        0.0638
     50 H          -4.6281   -1.8484   -1.2457 H       1  UNL1        0.0512
     51 H          -4.2236   -2.6319    0.3732 H       1  UNL1        0.0512
     52 H          -6.2864   -1.1602    0.4529 H       1  UNL1        0.1493
     53 H          -3.9760    3.1189    2.0241 H       1  UNL1        0.0624
     54 H          -3.1619    5.2087    2.8828 H       1  UNL1        0.0618
     55 H          -0.7664    5.7619    2.6707 H       1  UNL1        0.0618
     56 H           0.7125    4.2024    1.6109 H       1  UNL1        0.0638
@<TRIPOS>BOND
     1     1     2    1
     2     2     3    1
     3     3     4    1
     4     3     5    1
     5     5     6    2
     6     5     7    1
     7     7     8    1
     8     3     9    1
     9     9    10    1
    10     9    11    1
    11     9    12    1
    12    12    13   ar
    13    13    14   ar
    14    14    15   ar
    15    15    16   ar
    16    16    17   ar
    17    17    18   ar
    18    14    19   ar
    19    19    20   ar
    20    20    21    1
    21    21    22    1
    22    22    23   am
    23    23    24    2
    24    23    25    1
    25    25    26   ar
    26    26    27   ar
    27    27    28   ar
    28    28    29   ar
    29    29    30   ar
    30    30    31   ar
    31    31    32   ar
    32    32    33   ar
    33    33    34   ar
    34    34    35   ar
    35    11     1    1
    36    35    12   ar
    37    33     1    1
    38    18    13   ar
    39    35    19   ar
    40    25    20   ar
    41    34    26   ar
    42    32    27   ar
    43     1    36    1
    44     2    37    1
    45     2    38    1
    46     4    39    1
    47     8    40    1
    48     8    41    1
    49     8    42    1
    50    10    43    1
    51    10    44    1
    52    10    45    1
    53    15    46    1
    54    16    47    1
    55    17    48    1
    56    18    49    1
    57    21    50    1
    58    21    51    1
    59    22    52    1
    60    28    53    1
    61    29    54    1
    62    30    55    1
    63    31    56    1
