
     RDKit          3D

 39 39  0  0  0  0  0  0  0  0999 V2000
    2.8405   -1.9000   -1.6678 C   0  0  0  0  0  0  0  0  0  0  0  0
    2.7063   -0.3949   -1.4782 C   0  0  0  0  0  0  0  0  0  0  0  0
    2.5978    0.0576   -0.1740 N   0  0  0  0  0  0  0  0  0  0  0  0
    3.5823    0.0185    0.7812 C   0  0  0  0  0  0  0  0  0  0  0  0
    4.8041    0.8641    0.6615 C   0  0  0  0  0  0  0  0  0  0  0  0
    1.4311    0.8109    0.0800 C   0  0  0  0  0  0  0  0  0  0  0  0
    0.1730   -0.0120    0.0280 C   0  0  0  0  0  0  0  0  0  0  0  0
   -0.1497   -1.1965   -0.1797 O   0  0  0  0  0  0  0  0  0  0  0  0
   -0.9574    0.7961    0.2900 N   0  0  0  0  0  0  0  0  0  0  0  0
   -2.3187    0.3894    0.3304 C   0  0  0  0  0  0  0  0  0  0  0  0
   -3.0347    0.4352   -0.8313 C   0  0  0  0  0  0  0  0  0  0  0  0
   -2.4476    0.8799   -2.1212 C   0  0  0  0  0  0  0  0  0  0  0  0
   -4.3660    0.0508   -0.8248 C   0  0  0  0  0  0  0  0  0  0  0  0
   -4.9723   -0.3758    0.3383 C   0  0  0  0  0  0  0  0  0  0  0  0
   -4.2648   -0.4320    1.5347 C   0  0  0  0  0  0  0  0  0  0  0  0
   -2.9348   -0.0446    1.5116 C   0  0  0  0  0  0  0  0  0  0  0  0
   -2.1629   -0.1005    2.7804 C   0  0  0  0  0  0  0  0  0  0  0  0
    3.2381   -2.0095   -2.7204 H   0  0  0  0  0  0  0  0  0  0  0  0
    3.5174   -2.3779   -0.9393 H   0  0  0  0  0  0  0  0  0  0  0  0
    1.8383   -2.3447   -1.6846 H   0  0  0  0  0  0  0  0  0  0  0  0
    3.4625    0.1462   -2.1167 H   0  0  0  0  0  0  0  0  0  0  0  0
    1.7444   -0.1364   -2.0202 H   0  0  0  0  0  0  0  0  0  0  0  0
    3.1148    0.2662    1.7840 H   0  0  0  0  0  0  0  0  0  0  0  0
    3.8970   -1.0564    0.9468 H   0  0  0  0  0  0  0  0  0  0  0  0
    4.9885    1.5018    1.5504 H   0  0  0  0  0  0  0  0  0  0  0  0
    4.8613    1.5214   -0.2209 H   0  0  0  0  0  0  0  0  0  0  0  0
    5.7205    0.2092    0.5821 H   0  0  0  0  0  0  0  0  0  0  0  0
    1.4825    1.2647    1.0870 H   0  0  0  0  0  0  0  0  0  0  0  0
    1.3518    1.6540   -0.6539 H   0  0  0  0  0  0  0  0  0  0  0  0
   -1.0111    1.8330    0.5009 H   0  0  0  0  0  0  0  0  0  0  0  0
   -3.2280    1.4542   -2.6635 H   0  0  0  0  0  0  0  0  0  0  0  0
   -2.2960   -0.0591   -2.7172 H   0  0  0  0  0  0  0  0  0  0  0  0
   -1.5070    1.4526   -2.0036 H   0  0  0  0  0  0  0  0  0  0  0  0
   -4.9747    0.0703   -1.7265 H   0  0  0  0  0  0  0  0  0  0  0  0
   -6.0238   -0.6685    0.2988 H   0  0  0  0  0  0  0  0  0  0  0  0
   -4.7389   -0.7691    2.4665 H   0  0  0  0  0  0  0  0  0  0  0  0
   -1.8687   -1.1826    2.9237 H   0  0  0  0  0  0  0  0  0  0  0  0
   -1.2620    0.5190    2.6607 H   0  0  0  0  0  0  0  0  0  0  0  0
   -2.8330    0.2297    3.6069 H   0  0  0  0  0  0  0  0  0  0  0  0
  1  2  1  0
  2  3  1  0
  3  4  1  0
  4  5  1  0
  3  6  1  0
  6  7  1  0
  7  8  2  0
  7  9  1  0
  9 10  1  0
 10 11  2  0
 11 12  1  0
 11 13  1  0
 13 14  2  0
 14 15  1  0
 15 16  2  0
 16 17  1  0
 16 10  1  0
  1 18  1  0
  1 19  1  0
  1 20  1  0
  2 21  1  0
  2 22  1  0
  4 23  1  0
  4 24  1  0
  5 25  1  0
  5 26  1  0
  5 27  1  0
  6 28  1  0
  6 29  1  0
  9 30  1  0
 12 31  1  0
 12 32  1  0
 12 33  1  0
 13 34  1  0
 14 35  1  0
 15 36  1  0
 17 37  1  0
 17 38  1  0
 17 39  1  0
M  END
$$$$
