@<TRIPOS>MOLECULE
*****
 56 60 0 0 0
SMALL
GASTEIGER

@<TRIPOS>ATOM
      1 C           7.7248    0.6670    2.3546 C.3     1  UNL1        0.0365
      2 O           7.1643    0.9710    1.0982 O.3     1  UNL1       -0.3814
      3 C           5.9089    0.3295    0.9849 C.3     1  UNL1        0.0645
      4 C           5.3509    0.6841   -0.3704 C.3     1  UNL1        0.0552
      5 C           5.1183    2.1737   -0.5072 C.3     1  UNL1       -0.0323
      6 C           4.0638    2.2816   -1.5831 C.3     1  UNL1       -0.0370
      7 C           3.7268    0.8501   -1.9025 C.3     1  UNL1        0.0209
      8 N           4.0809    0.1200   -0.6743 N.3     1  UNL1       -0.1713
      9 S           2.8840    0.3555    0.5371 S.O2    1  UNL1        0.0612
     10 O           3.3111   -0.4127    1.7789 O.2     1  UNL1       -0.1528
     11 O           2.7050    1.7742    0.9322 O.2     1  UNL1       -0.1528
     12 C           1.3438   -0.2597   -0.0071 C.ar    1  UNL1        0.1063
     13 C           0.4874    0.5766   -0.6860 C.ar    1  UNL1       -0.0335
     14 C          -0.7327    0.0954   -1.1189 C.ar    1  UNL1       -0.0377
     15 C          -1.1488   -1.2222   -0.8980 C.ar    1  UNL1        0.0481
     16 C          -0.2772   -2.0417   -0.2174 C.ar    1  UNL1        0.0502
     17 C           0.9617   -1.5626    0.2252 C.ar    1  UNL1       -0.0226
     18 C          -0.9234   -3.3397   -0.1158 C.2     1  UNL1        0.2496
     19 O          -0.4299   -4.3699    0.4495 O.2     1  UNL1       -0.2817
     20 C          -2.2172   -3.2318   -0.7733 C.2     1  UNL1        0.2915
     21 O          -3.0531   -4.1922   -0.8707 O.2     1  UNL1       -0.2661
     22 N          -2.3393   -1.9060   -1.2537 N.am    1  UNL1       -0.2598
     23 C          -3.4726   -1.3818   -1.9703 C.3     1  UNL1        0.0452
     24 C          -4.5073   -0.8400   -1.0960 C.ar    1  UNL1       -0.0297
     25 C          -5.5438   -1.6370   -0.5951 C.ar    1  UNL1       -0.0567
     26 C          -6.4828   -1.0762    0.2144 C.ar    1  UNL1       -0.0557
     27 C          -6.4662    0.2647    0.5745 C.ar    1  UNL1       -0.0167
     28 C          -7.5284    0.8304    1.4711 C.3     1  UNL1        0.1070
     29 C          -7.4895    0.4054    2.8861 C.3     1  UNL1        0.0789
     30 O          -7.0487    1.6834    2.5247 O.3     1  UNL1       -0.3668
     31 C          -5.4484    1.0506    0.0835 C.ar    1  UNL1       -0.0557
     32 C          -4.4875    0.4894   -0.7414 C.ar    1  UNL1       -0.0567
     33 H           7.8774   -0.4170    2.4937 H       1  UNL1        0.0523
     34 H           8.6233    1.2659    2.5507 H       1  UNL1        0.0523
     35 H           6.9763    0.9803    3.1365 H       1  UNL1        0.0523
     36 H           5.3060    0.7694    1.8032 H       1  UNL1        0.0576
     37 H           6.0941   -0.7494    1.0668 H       1  UNL1        0.0576
     38 H           6.0451    0.3997   -1.1858 H       1  UNL1        0.0502
     39 H           4.8228    2.6283    0.4486 H       1  UNL1        0.0282
     40 H           6.0704    2.6329   -0.9004 H       1  UNL1        0.0282
     41 H           3.1988    2.8857   -1.2737 H       1  UNL1        0.0279
     42 H           4.4737    2.7684   -2.5113 H       1  UNL1        0.0279
     43 H           4.3848    0.4955   -2.6959 H       1  UNL1        0.0444
     44 H           2.6564    0.7088   -2.1461 H       1  UNL1        0.0444
     45 H           0.7298    1.6231   -0.9036 H       1  UNL1        0.0638
     46 H          -1.4251    0.7347   -1.6592 H       1  UNL1        0.0637
     47 H           1.5956   -2.2491    0.7492 H       1  UNL1        0.0645
     48 H          -3.9400   -2.1663   -2.6104 H       1  UNL1        0.0518
     49 H          -3.1519   -0.5510   -2.6641 H       1  UNL1        0.0518
     50 H          -5.5130   -2.6729   -0.9038 H       1  UNL1        0.0621
     51 H          -7.2753   -1.6792    0.5992 H       1  UNL1        0.0621
     52 H          -8.4709    1.1658    1.0018 H       1  UNL1        0.0669
     53 H          -6.7203   -0.3303    3.1850 H       1  UNL1        0.0589
     54 H          -8.4643    0.3723    3.4058 H       1  UNL1        0.0589
     55 H          -5.4259    2.1069    0.3608 H       1  UNL1        0.0621
     56 H          -3.7025    1.1484   -1.1075 H       1  UNL1        0.0621
@<TRIPOS>BOND
     1     1     2    1
     2     2     3    1
     3     3     4    1
     4     4     5    1
     5     5     6    1
     6     6     7    1
     7     7     8    1
     8     8     9    1
     9     9    10    2
    10     9    11    2
    11     9    12    1
    12    12    13   ar
    13    13    14   ar
    14    14    15   ar
    15    15    16   ar
    16    16    17   ar
    17    16    18    1
    18    18    19    2
    19    18    20    1
    20    20    21    2
    21    20    22   am
    22    22    23    1
    23    23    24    1
    24    24    25   ar
    25    25    26   ar
    26    26    27   ar
    27    27    28    1
    28    28    29    1
    29    29    30    1
    30    27    31   ar
    31    31    32   ar
    32     8     4    1
    33    17    12   ar
    34    32    24   ar
    35    22    15    1
    36    30    28    1
    37     1    33    1
    38     1    34    1
    39     1    35    1
    40     3    36    1
    41     3    37    1
    42     4    38    1
    43     5    39    1
    44     5    40    1
    45     6    41    1
    46     6    42    1
    47     7    43    1
    48     7    44    1
    49    13    45    1
    50    14    46    1
    51    17    47    1
    52    23    48    1
    53    23    49    1
    54    25    50    1
    55    26    51    1
    56    28    52    1
    57    29    53    1
    58    29    54    1
    59    31    55    1
    60    32    56    1
