
     RDKit          3D

 56 60  0  0  0  0  0  0  0  0999 V2000
    7.7248    0.6670    2.3546 C   0  0  0  0  0  0  0  0  0  0  0  0
    7.1643    0.9710    1.0982 O   0  0  0  0  0  0  0  0  0  0  0  0
    5.9089    0.3295    0.9849 C   0  0  0  0  0  0  0  0  0  0  0  0
    5.3509    0.6841   -0.3704 C   0  0  2  0  0  0  0  0  0  0  0  0
    5.1183    2.1737   -0.5072 C   0  0  0  0  0  0  0  0  0  0  0  0
    4.0638    2.2816   -1.5831 C   0  0  0  0  0  0  0  0  0  0  0  0
    3.7268    0.8501   -1.9025 C   0  0  0  0  0  0  0  0  0  0  0  0
    4.0809    0.1200   -0.6743 N   0  0  0  0  0  0  0  0  0  0  0  0
    2.8840    0.3555    0.5371 S   0  0  0  0  0  6  0  0  0  0  0  0
    3.3111   -0.4127    1.7789 O   0  0  0  0  0  0  0  0  0  0  0  0
    2.7050    1.7742    0.9322 O   0  0  0  0  0  0  0  0  0  0  0  0
    1.3438   -0.2597   -0.0071 C   0  0  0  0  0  0  0  0  0  0  0  0
    0.4874    0.5766   -0.6860 C   0  0  0  0  0  0  0  0  0  0  0  0
   -0.7327    0.0954   -1.1189 C   0  0  0  0  0  0  0  0  0  0  0  0
   -1.1488   -1.2222   -0.8980 C   0  0  0  0  0  0  0  0  0  0  0  0
   -0.2772   -2.0417   -0.2174 C   0  0  0  0  0  0  0  0  0  0  0  0
    0.9617   -1.5626    0.2252 C   0  0  0  0  0  0  0  0  0  0  0  0
   -0.9234   -3.3397   -0.1158 C   0  0  0  0  0  0  0  0  0  0  0  0
   -0.4299   -4.3699    0.4495 O   0  0  0  0  0  0  0  0  0  0  0  0
   -2.2172   -3.2318   -0.7733 C   0  0  0  0  0  0  0  0  0  0  0  0
   -3.0531   -4.1922   -0.8707 O   0  0  0  0  0  0  0  0  0  0  0  0
   -2.3393   -1.9060   -1.2537 N   0  0  0  0  0  0  0  0  0  0  0  0
   -3.4726   -1.3818   -1.9703 C   0  0  0  0  0  0  0  0  0  0  0  0
   -4.5073   -0.8400   -1.0960 C   0  0  0  0  0  0  0  0  0  0  0  0
   -5.5438   -1.6370   -0.5951 C   0  0  0  0  0  0  0  0  0  0  0  0
   -6.4828   -1.0762    0.2144 C   0  0  0  0  0  0  0  0  0  0  0  0
   -6.4662    0.2647    0.5745 C   0  0  0  0  0  0  0  0  0  0  0  0
   -7.5284    0.8304    1.4711 C   0  0  0  0  0  0  0  0  0  0  0  0
   -7.4895    0.4054    2.8861 C   0  0  0  0  0  0  0  0  0  0  0  0
   -7.0487    1.6834    2.5247 O   0  0  0  0  0  0  0  0  0  0  0  0
   -5.4484    1.0506    0.0835 C   0  0  0  0  0  0  0  0  0  0  0  0
   -4.4875    0.4894   -0.7414 C   0  0  0  0  0  0  0  0  0  0  0  0
    7.8774   -0.4170    2.4937 H   0  0  0  0  0  0  0  0  0  0  0  0
    8.6233    1.2659    2.5507 H   0  0  0  0  0  0  0  0  0  0  0  0
    6.9763    0.9803    3.1365 H   0  0  0  0  0  0  0  0  0  0  0  0
    5.3060    0.7694    1.8032 H   0  0  0  0  0  0  0  0  0  0  0  0
    6.0941   -0.7494    1.0668 H   0  0  0  0  0  0  0  0  0  0  0  0
    6.0451    0.3997   -1.1858 H   0  0  0  0  0  0  0  0  0  0  0  0
    4.8228    2.6283    0.4486 H   0  0  0  0  0  0  0  0  0  0  0  0
    6.0704    2.6329   -0.9004 H   0  0  0  0  0  0  0  0  0  0  0  0
    3.1988    2.8857   -1.2737 H   0  0  0  0  0  0  0  0  0  0  0  0
    4.4737    2.7684   -2.5113 H   0  0  0  0  0  0  0  0  0  0  0  0
    4.3848    0.4955   -2.6959 H   0  0  0  0  0  0  0  0  0  0  0  0
    2.6564    0.7088   -2.1461 H   0  0  0  0  0  0  0  0  0  0  0  0
    0.7298    1.6231   -0.9036 H   0  0  0  0  0  0  0  0  0  0  0  0
   -1.4251    0.7347   -1.6592 H   0  0  0  0  0  0  0  0  0  0  0  0
    1.5956   -2.2491    0.7492 H   0  0  0  0  0  0  0  0  0  0  0  0
   -3.9400   -2.1663   -2.6104 H   0  0  0  0  0  0  0  0  0  0  0  0
   -3.1519   -0.5510   -2.6641 H   0  0  0  0  0  0  0  0  0  0  0  0
   -5.5130   -2.6729   -0.9038 H   0  0  0  0  0  0  0  0  0  0  0  0
   -7.2753   -1.6792    0.5992 H   0  0  0  0  0  0  0  0  0  0  0  0
   -8.4709    1.1658    1.0018 H   0  0  0  0  0  0  0  0  0  0  0  0
   -6.7203   -0.3303    3.1850 H   0  0  0  0  0  0  0  0  0  0  0  0
   -8.4643    0.3723    3.4058 H   0  0  0  0  0  0  0  0  0  0  0  0
   -5.4259    2.1069    0.3608 H   0  0  0  0  0  0  0  0  0  0  0  0
   -3.7025    1.1484   -1.1075 H   0  0  0  0  0  0  0  0  0  0  0  0
  1  2  1  0
  2  3  1  0
  3  4  1  0
  4  5  1  0
  5  6  1  0
  6  7  1  0
  7  8  1  0
  8  9  1  0
  9 10  2  0
  9 11  2  0
  9 12  1  0
 12 13  2  0
 13 14  1  0
 14 15  2  0
 15 16  1  0
 16 17  2  0
 16 18  1  0
 18 19  2  0
 18 20  1  0
 20 21  2  0
 20 22  1  0
 22 23  1  0
 23 24  1  0
 24 25  2  0
 25 26  1  0
 26 27  2  0
 27 28  1  0
 28 29  1  0
 29 30  1  0
 27 31  1  0
 31 32  2  0
  8  4  1  0
 17 12  1  0
 32 24  1  0
 22 15  1  0
 30 28  1  0
  1 33  1  0
  1 34  1  0
  1 35  1  0
  3 36  1  0
  3 37  1  0
  4 38  1  6
  5 39  1  0
  5 40  1  0
  6 41  1  0
  6 42  1  0
  7 43  1  0
  7 44  1  0
 13 45  1  0
 14 46  1  0
 17 47  1  0
 23 48  1  0
 23 49  1  0
 25 50  1  0
 26 51  1  0
 28 52  1  0
 29 53  1  0
 29 54  1  0
 31 55  1  0
 32 56  1  0
M  END
$$$$
