@<TRIPOS>MOLECULE
*****
 42 44 0 0 0
SMALL
GASTEIGER

@<TRIPOS>ATOM
      1 N          -4.6110   -1.2245   -0.2604 N.3     1  UNL1       -0.3272
      2 C          -4.3463   -0.2162    0.7602 C.3     1  UNL1        0.0049
      3 C          -4.1645    1.1444    0.2161 C.3     1  UNL1       -0.0363
      4 C          -2.7797    1.5200   -0.2151 C.3     1  UNL1       -0.0361
      5 C          -1.7136    0.8650    0.6192 C.3     1  UNL1        0.0080
      6 N          -0.3935    1.0968    0.1628 N.3     1  UNL1       -0.3099
      7 C          -0.0784    0.6692   -1.1530 C.3     1  UNL1        0.0153
      8 C           0.0465   -0.8361   -1.2965 C.3     1  UNL1       -0.0287
      9 C           1.1699    0.1221   -1.6346 C.3     1  UNL1        0.0010
     10 C           2.4341    0.0231   -0.8984 C.ar    1  UNL1       -0.0427
     11 C           2.8335    0.9639    0.0085 C.ar    1  UNL1       -0.0577
     12 C           4.0453    0.8313    0.7107 C.ar    1  UNL1       -0.0499
     13 C           4.8516   -0.2684    0.4833 C.ar    1  UNL1        0.0548
     14 C           6.1413   -0.4037    1.2347 C.3     1  UNL1        0.4174
     15 F           5.9495   -0.9279    2.4820 F       1  UNL1       -0.1659
     16 F           7.0334   -1.2059    0.5600 F       1  UNL1       -0.1659
     17 F           6.7587    0.8408    1.3797 F       1  UNL1       -0.1659
     18 C           4.4533   -1.2154   -0.4280 C.ar    1  UNL1       -0.0499
     19 C           3.2544   -1.0647   -1.1090 C.ar    1  UNL1       -0.0577
     20 C          -1.9577   -0.5921    0.8437 C.3     1  UNL1       -0.0361
     21 C          -3.2379   -0.7207    1.6508 C.3     1  UNL1       -0.0363
     22 H          -3.8795   -1.2675   -0.9836 H       1  UNL1        0.1185
     23 H          -5.5652   -1.0202   -0.6300 H       1  UNL1        0.1185
     24 H          -5.2746   -0.2070    1.4046 H       1  UNL1        0.0458
     25 H          -4.8245    1.2520   -0.6813 H       1  UNL1        0.0281
     26 H          -4.5690    1.9069    0.9451 H       1  UNL1        0.0281
     27 H          -2.6326    1.2851   -1.2901 H       1  UNL1        0.0281
     28 H          -2.6849    2.6177   -0.0702 H       1  UNL1        0.0281
     29 H          -1.7950    1.3476    1.6414 H       1  UNL1        0.0460
     30 H           0.3208    0.6799    0.8491 H       1  UNL1        0.1225
     31 H          -0.6905    1.1989   -1.9335 H       1  UNL1        0.0466
     32 H           0.2737   -1.4554   -0.4173 H       1  UNL1        0.0287
     33 H          -0.5856   -1.2697   -2.0706 H       1  UNL1        0.0287
     34 H           1.3619    0.0793   -2.7625 H       1  UNL1        0.0364
     35 H           2.2331    1.8295    0.1925 H       1  UNL1        0.0620
     36 H           4.3319    1.5815    1.4136 H       1  UNL1        0.0623
     37 H           5.0934   -2.0656   -0.5932 H       1  UNL1        0.0623
     38 H           2.9979   -1.8391   -1.8088 H       1  UNL1        0.0620
     39 H          -2.0488   -1.1877   -0.0864 H       1  UNL1        0.0281
     40 H          -1.1299   -1.0019    1.4505 H       1  UNL1        0.0281
     41 H          -3.4392   -1.7613    1.8975 H       1  UNL1        0.0281
     42 H          -3.1823   -0.1041    2.5459 H       1  UNL1        0.0281
@<TRIPOS>BOND
     1     1     2    1
     2     2     3    1
     3     3     4    1
     4     4     5    1
     5     5     6    1
     6     6     7    1
     7     7     8    1
     8     8     9    1
     9     9    10    1
    10    10    11   ar
    11    11    12   ar
    12    12    13   ar
    13    13    14    1
    14    14    15    1
    15    14    16    1
    16    14    17    1
    17    13    18   ar
    18    18    19   ar
    19     5    20    1
    20    20    21    1
    21    21     2    1
    22     9     7    1
    23    19    10   ar
    24     1    22    1
    25     1    23    1
    26     2    24    1
    27     3    25    1
    28     3    26    1
    29     4    27    1
    30     4    28    1
    31     5    29    1
    32     6    30    1
    33     7    31    1
    34     8    32    1
    35     8    33    1
    36     9    34    1
    37    11    35    1
    38    12    36    1
    39    18    37    1
    40    19    38    1
    41    20    39    1
    42    20    40    1
    43    21    41    1
    44    21    42    1
