@<TRIPOS>MOLECULE
*****
 39 42 0 0 0
SMALL
GASTEIGER

@<TRIPOS>ATOM
      1 C           4.5447    2.0816    2.1271 C.3     1  UNL1       -0.0046
      2 C           4.0865    0.8032    1.4725 C.ar    1  UNL1        0.1266
      3 N           4.8244   -0.3065    1.6428 N.ar    1  UNL1       -0.2406
      4 C           4.4795   -1.4776    1.0919 C.ar    1  UNL1        0.0316
      5 C           3.3023   -1.4882    0.3233 C.ar    1  UNL1       -0.0174
      6 C           2.5288   -0.3847    0.1264 C.ar    1  UNL1        0.0765
      7 C           1.2737   -0.3020   -0.6078 C.ar    1  UNL1        0.0258
      8 C           0.3133    0.7157   -0.4325 C.ar    1  UNL1        0.0153
      9 N          -0.6952    0.5081   -1.2882 N.ar    1  UNL1       -0.3405
     10 C          -1.8413    1.3868   -1.3470 C.3     1  UNL1        0.0484
     11 C          -2.9348    1.0066   -0.4480 C.ar    1  UNL1       -0.0278
     12 C          -3.9666    0.1719   -0.8013 C.ar    1  UNL1       -0.0569
     13 C          -4.9381   -0.1147    0.1287 C.ar    1  UNL1       -0.0614
     14 C          -4.9429    0.3895    1.4114 C.ar    1  UNL1       -0.0617
     15 C          -3.8907    1.2327    1.7516 C.ar    1  UNL1       -0.0614
     16 C          -2.9246    1.5196    0.8317 C.ar    1  UNL1       -0.0569
     17 C          -0.4702   -0.5790   -2.0225 C.ar    1  UNL1        0.0683
     18 C          -1.2493   -1.1187   -3.0137 C.ar    1  UNL1        0.0516
     19 N          -0.7806   -2.2310   -3.6277 N.ar    1  UNL1       -0.2612
     20 C           0.3988   -2.7679   -3.2683 C.ar    1  UNL1        0.0283
     21 C           1.1926   -2.2131   -2.2538 C.ar    1  UNL1       -0.0338
     22 C           0.7560   -1.0883   -1.6041 C.ar    1  UNL1        0.0120
     23 N           2.9802    0.7520    0.7379 N.ar    1  UNL1       -0.2323
     24 H           5.1070    2.7152    1.4163 H       1  UNL1        0.0308
     25 H           3.6762    2.6067    2.5713 H       1  UNL1        0.0308
     26 H           5.2094    1.8144    2.9730 H       1  UNL1        0.0308
     27 H           5.0248   -2.3873    1.1927 H       1  UNL1        0.0831
     28 H           3.0048   -2.4308   -0.0928 H       1  UNL1        0.0654
     29 H           0.4402    1.5085    0.3005 H       1  UNL1        0.0816
     30 H          -1.5096    2.4131   -1.2078 H       1  UNL1        0.0541
     31 H          -2.2378    1.3068   -2.3970 H       1  UNL1        0.0541
     32 H          -4.0124   -0.2488   -1.7884 H       1  UNL1        0.0621
     33 H          -5.7501   -0.7821   -0.1759 H       1  UNL1        0.0618
     34 H          -5.7271    0.1366    2.1076 H       1  UNL1        0.0618
     35 H          -3.8896    1.6384    2.7753 H       1  UNL1        0.0618
     36 H          -2.1227    2.1818    1.1402 H       1  UNL1        0.0621
     37 H          -2.1999   -0.6713   -3.2931 H       1  UNL1        0.0851
     38 H           0.8090   -3.6583   -3.7369 H       1  UNL1        0.0830
     39 H           2.1314   -2.6390   -1.9992 H       1  UNL1        0.0639
@<TRIPOS>BOND
     1     1     2    1
     2     2     3   ar
     3     3     4   ar
     4     4     5   ar
     5     5     6   ar
     6     6     7    1
     7     7     8   ar
     8     8     9   ar
     9     9    10    1
    10    10    11    1
    11    11    12   ar
    12    12    13   ar
    13    13    14   ar
    14    14    15   ar
    15    15    16   ar
    16     9    17   ar
    17    17    18   ar
    18    18    19   ar
    19    19    20   ar
    20    20    21   ar
    21    21    22   ar
    22     6    23   ar
    23    23     2   ar
    24    22     7   ar
    25    16    11   ar
    26    22    17   ar
    27     1    24    1
    28     1    25    1
    29     1    26    1
    30     4    27    1
    31     5    28    1
    32     8    29    1
    33    10    30    1
    34    10    31    1
    35    12    32    1
    36    13    33    1
    37    14    34    1
    38    15    35    1
    39    16    36    1
    40    18    37    1
    41    20    38    1
    42    21    39    1
