@<TRIPOS>MOLECULE
*****
 61 65 0 0 0
SMALL
GASTEIGER

@<TRIPOS>ATOM
      1 O          -7.6386    5.6248   -0.5009 O.3     1  UNL1       -0.5068
      2 C          -6.9220    4.4607   -0.3402 C.ar    1  UNL1        0.1169
      3 C          -5.5785    4.4238   -0.6523 C.ar    1  UNL1       -0.0196
      4 C          -4.9457    3.2207   -0.4609 C.ar    1  UNL1       -0.0501
      5 C          -5.4899    2.0469    0.0034 C.ar    1  UNL1       -0.0104
      6 C          -6.8509    2.1992    0.2883 C.ar    1  UNL1       -0.0501
      7 C          -7.5738    3.3560    0.1321 C.ar    1  UNL1       -0.0196
      8 C          -4.8299    0.7673    0.1463 C.ar    1  UNL1        0.0313
      9 C          -3.7003    0.1969   -0.2704 C.ar    1  UNL1        0.0447
     10 C          -2.7610    0.8505   -1.2125 C.2     1  UNL1        0.1948
     11 O          -3.0222    1.4991   -2.2575 O.2     1  UNL1       -0.2866
     12 C          -1.3086    0.8522   -1.0693 C.ar    1  UNL1        0.0225
     13 C          -0.8229    0.7197    0.2230 C.ar    1  UNL1       -0.0475
     14 C           0.5147    0.6920    0.5624 C.ar    1  UNL1       -0.0193
     15 C           1.4467    0.8031   -0.4442 C.ar    1  UNL1        0.1206
     16 O           2.8079    0.7922   -0.2513 O.3     1  UNL1       -0.4907
     17 C           3.4050    0.6640    1.0216 C.3     1  UNL1        0.1022
     18 C           4.9050    0.6835    0.9592 C.3     1  UNL1        0.0331
     19 N           5.4930   -0.3579    0.1762 N.3     1  UNL1       -0.2991
     20 C           6.9501   -0.1459    0.2196 C.3     1  UNL1       -0.0010
     21 C           7.5404   -0.8512   -0.9824 C.3     1  UNL1       -0.0402
     22 C           6.8784   -2.1904   -1.1301 C.3     1  UNL1       -0.0507
     23 C           6.2931   -2.6763    0.2023 C.3     1  UNL1       -0.0402
     24 C           5.2961   -1.6756    0.7575 C.3     1  UNL1       -0.0010
     25 C           0.9764    0.9363   -1.7387 C.ar    1  UNL1       -0.0193
     26 C          -0.3530    0.9585   -2.0270 C.ar    1  UNL1       -0.0475
     27 C          -3.4587   -1.0999    0.1056 C.ar    1  UNL1        0.0008
     28 C          -4.3757   -1.7490    0.8836 C.ar    1  UNL1        0.0241
     29 S          -5.6540   -0.4793    1.1057 S.2     1  UNL1       -0.0874
     30 C          -4.4063   -3.0417    1.3948 C.ar    1  UNL1       -0.0058
     31 C          -3.3257   -3.8209    1.0652 C.ar    1  UNL1        0.1180
     32 O          -3.3610   -5.1063    1.5770 O.3     1  UNL1       -0.5067
     33 C          -2.3634   -3.2497    0.2879 C.ar    1  UNL1       -0.0195
     34 C          -2.4210   -1.9721   -0.1664 C.ar    1  UNL1       -0.0494
     35 H          -7.5477    6.2680   -1.2818 H       1  UNL1        0.2921
     36 H          -5.0814    5.3059   -1.0243 H       1  UNL1        0.0654
     37 H          -3.9073    3.2562   -0.6804 H       1  UNL1        0.0625
     38 H          -7.4447    1.3597    0.6714 H       1  UNL1        0.0625
     39 H          -8.6257    3.4161    0.3685 H       1  UNL1        0.0654
     40 H          -1.4990    0.6283    1.0633 H       1  UNL1        0.0626
     41 H           0.8524    0.5863    1.5799 H       1  UNL1        0.0654
     42 H           3.1065    1.5551    1.6137 H       1  UNL1        0.0709
     43 H           3.0527   -0.2265    1.5547 H       1  UNL1        0.0709
     44 H           5.2055    1.6953    0.6498 H       1  UNL1        0.0460
     45 H           5.2417    0.5385    2.0264 H       1  UNL1        0.0460
     46 H           7.3226   -0.6171    1.1333 H       1  UNL1        0.0427
     47 H           7.1988    0.9215    0.1870 H       1  UNL1        0.0427
     48 H           8.6258   -0.9509   -0.8181 H       1  UNL1        0.0278
     49 H           7.3794   -0.2157   -1.8823 H       1  UNL1        0.0278
     50 H           7.6708   -2.9429   -1.3849 H       1  UNL1        0.0266
     51 H           6.0630   -2.2181   -1.8638 H       1  UNL1        0.0266
     52 H           5.7933   -3.6516   -0.0141 H       1  UNL1        0.0278
     53 H           7.1310   -2.8859    0.8847 H       1  UNL1        0.0278
     54 H           4.2555   -2.0282    0.6509 H       1  UNL1        0.0427
     55 H           5.4782   -1.5492    1.8659 H       1  UNL1        0.0427
     56 H           1.6466    1.0304   -2.5964 H       1  UNL1        0.0654
     57 H          -0.7488    1.0634   -3.0503 H       1  UNL1        0.0626
     58 H          -5.2528   -3.3350    1.9976 H       1  UNL1        0.0665
     59 H          -4.1692   -5.7194    1.4710 H       1  UNL1        0.2921
     60 H          -1.5226   -3.9225    0.0563 H       1  UNL1        0.0654
     61 H          -1.5683   -1.7280   -0.7853 H       1  UNL1        0.0625
@<TRIPOS>BOND
     1     1     2    1
     2     2     3   ar
     3     3     4   ar
     4     4     5   ar
     5     5     6   ar
     6     6     7   ar
     7     5     8    1
     8     8     9   ar
     9     9    10    1
    10    10    11    2
    11    10    12    1
    12    12    13   ar
    13    13    14   ar
    14    14    15   ar
    15    15    16    1
    16    16    17    1
    17    17    18    1
    18    18    19    1
    19    19    20    1
    20    20    21    1
    21    21    22    1
    22    22    23    1
    23    23    24    1
    24    15    25   ar
    25    25    26   ar
    26     9    27   ar
    27    27    28   ar
    28    28    29   ar
    29    28    30   ar
    30    30    31   ar
    31    31    32    1
    32    31    33   ar
    33    33    34   ar
    34     7     2   ar
    35    29     8   ar
    36    26    12   ar
    37    34    27   ar
    38    24    19    1
    39     1    35    1
    40     3    36    1
    41     4    37    1
    42     6    38    1
    43     7    39    1
    44    13    40    1
    45    14    41    1
    46    17    42    1
    47    17    43    1
    48    18    44    1
    49    18    45    1
    50    20    46    1
    51    20    47    1
    52    21    48    1
    53    21    49    1
    54    22    50    1
    55    22    51    1
    56    23    52    1
    57    23    53    1
    58    24    54    1
    59    24    55    1
    60    25    56    1
    61    26    57    1
    62    30    58    1
    63    32    59    1
    64    33    60    1
    65    34    61    1
