
     RDKit          3D

 43 45  0  0  0  0  0  0  0  0999 V2000
   -0.0762    0.6223    1.7156 C   0  0  0  0  0  0  0  0  0  0  0  0
   -0.3365   -0.2154    0.4804 C   0  0  2  0  0  0  0  0  0  0  0  0
    0.6748   -1.1949    0.2294 N   0  0  0  0  0  0  0  0  0  0  0  0
    2.0130   -0.8381   -0.0155 C   0  0  0  0  0  0  0  0  0  0  0  0
    2.4138    0.4786   -0.0323 C   0  0  0  0  0  0  0  0  0  0  0  0
    3.7528    0.7511   -0.2792 C   0  0  0  0  0  0  0  0  0  0  0  0
    4.6756   -0.2309   -0.5036 C   0  0  0  0  0  0  0  0  0  0  0  0
    6.0681    0.0642   -0.7598 C   0  0  0  0  0  0  0  0  0  0  0  0
    6.9092   -0.8607   -0.9657 O   0  0  0  0  0  0  0  0  0  0  0  0
    6.5858    1.3844   -0.7990 N   0  0  0  0  0  0  0  0  0  0  0  0
    7.9085    1.6100   -1.0449 O   0  0  0  0  0  0  0  0  0  0  0  0
    4.2772   -1.5616   -0.4880 C   0  0  0  0  0  0  0  0  0  0  0  0
    2.9517   -1.8509   -0.2444 C   0  0  0  0  0  0  0  0  0  0  0  0
   -0.4930    0.6244   -0.7531 C   0  0  0  0  0  0  0  0  0  0  0  0
   -1.8687    0.2921   -1.3459 C   0  0  0  0  0  0  0  0  0  0  0  0
   -2.6318   -0.2331   -0.2331 N   0  0  0  0  0  0  0  0  0  0  0  0
   -4.0510   -0.1507   -0.0991 C   0  0  0  0  0  0  0  0  0  0  0  0
   -4.7130   -0.6524    1.0016 C   0  0  0  0  0  0  0  0  0  0  0  0
   -6.0989   -0.5372    1.0581 C   0  0  0  0  0  0  0  0  0  0  0  0
   -6.8315    0.0613    0.0514 C   0  0  0  0  0  0  0  0  0  0  0  0
   -8.5605    0.2161    0.1008 Cl  0  0  0  0  0  0  0  0  0  0  0  0
   -6.1559    0.5669   -1.0594 C   0  0  0  0  0  0  0  0  0  0  0  0
   -4.7985    0.4429   -1.0935 C   0  0  0  0  0  0  0  0  0  0  0  0
   -1.6869   -0.8142    0.6449 C   0  0  0  0  0  0  0  0  0  0  0  0
   -1.9426   -1.7272    1.4699 O   0  0  0  0  0  0  0  0  0  0  0  0
   -0.8234    0.3929    2.5328 H   0  0  0  0  0  0  0  0  0  0  0  0
    0.9053    0.3740    2.1827 H   0  0  0  0  0  0  0  0  0  0  0  0
   -0.1579    1.6981    1.5488 H   0  0  0  0  0  0  0  0  0  0  0  0
    0.3741   -2.2090    0.2351 H   0  0  0  0  0  0  0  0  0  0  0  0
    1.7318    1.2979    0.1363 H   0  0  0  0  0  0  0  0  0  0  0  0
    4.0256    1.8063   -0.2832 H   0  0  0  0  0  0  0  0  0  0  0  0
    5.9853    2.1979   -0.6449 H   0  0  0  0  0  0  0  0  0  0  0  0
    8.4444    0.7774   -0.9293 H   0  0  0  0  0  0  0  0  0  0  0  0
    5.0210   -2.3252   -0.6676 H   0  0  0  0  0  0  0  0  0  0  0  0
    2.6358   -2.8963   -0.2316 H   0  0  0  0  0  0  0  0  0  0  0  0
   -0.5390    1.7102   -0.5125 H   0  0  0  0  0  0  0  0  0  0  0  0
    0.2424    0.3887   -1.5497 H   0  0  0  0  0  0  0  0  0  0  0  0
   -2.3177    1.2070   -1.7988 H   0  0  0  0  0  0  0  0  0  0  0  0
   -1.7531   -0.5111   -2.0995 H   0  0  0  0  0  0  0  0  0  0  0  0
   -4.1594   -1.1221    1.7974 H   0  0  0  0  0  0  0  0  0  0  0  0
   -6.6456   -0.9199    1.9060 H   0  0  0  0  0  0  0  0  0  0  0  0
   -6.6637    1.0420   -1.8734 H   0  0  0  0  0  0  0  0  0  0  0  0
   -4.2912    0.8444   -1.9734 H   0  0  0  0  0  0  0  0  0  0  0  0
  1  2  1  0
  2  3  1  6
  3  4  1  0
  4  5  2  0
  5  6  1  0
  6  7  2  0
  7  8  1  0
  8  9  2  0
  8 10  1  0
 10 11  1  0
  7 12  1  0
 12 13  2  0
  2 14  1  0
 14 15  1  0
 15 16  1  0
 16 17  1  0
 17 18  2  0
 18 19  1  0
 19 20  2  0
 20 21  1  0
 20 22  1  0
 22 23  2  0
 16 24  1  0
 24 25  2  0
 24  2  1  0
 13  4  1  0
 23 17  1  0
  1 26  1  0
  1 27  1  0
  1 28  1  0
  3 29  1  0
  5 30  1  0
  6 31  1  0
 10 32  1  0
 11 33  1  0
 12 34  1  0
 13 35  1  0
 14 36  1  0
 14 37  1  0
 15 38  1  0
 15 39  1  0
 18 40  1  0
 19 41  1  0
 22 42  1  0
 23 43  1  0
M  END
$$$$
