@<TRIPOS>MOLECULE
*****
 43 45 0 0 0
SMALL
GASTEIGER

@<TRIPOS>ATOM
      1 C          -0.0762    0.6223    1.7156 C.3     1  UNL1       -0.0351
      2 C          -0.3365   -0.2154    0.4804 C.3     1  UNL1        0.1077
      3 N           0.6748   -1.1949    0.2294 N.pl3   1  UNL1       -0.3306
      4 C           2.0130   -0.8381   -0.0155 C.ar    1  UNL1        0.0279
      5 C           2.4138    0.4786   -0.0323 C.ar    1  UNL1       -0.0401
      6 C           3.7528    0.7511   -0.2792 C.ar    1  UNL1       -0.0478
      7 C           4.6756   -0.2309   -0.5036 C.ar    1  UNL1        0.0388
      8 C           6.0681    0.0642   -0.7598 C.2     1  UNL1        0.2665
      9 O           6.9092   -0.8607   -0.9657 O.2     1  UNL1       -0.2681
     10 N           6.5858    1.3844   -0.7990 N.am    1  UNL1       -0.1935
     11 O           7.9085    1.6100   -1.0449 O.3     1  UNL1       -0.2949
     12 C           4.2772   -1.5616   -0.4880 C.ar    1  UNL1       -0.0478
     13 C           2.9517   -1.8509   -0.2444 C.ar    1  UNL1       -0.0401
     14 C          -0.4930    0.6244   -0.7531 C.3     1  UNL1       -0.0071
     15 C          -1.8687    0.2921   -1.3459 C.3     1  UNL1        0.0222
     16 N          -2.6318   -0.2331   -0.2331 N.am    1  UNL1       -0.2696
     17 C          -4.0510   -0.1507   -0.0991 C.ar    1  UNL1        0.0364
     18 C          -4.7130   -0.6524    1.0016 C.ar    1  UNL1       -0.0389
     19 C          -6.0989   -0.5372    1.0581 C.ar    1  UNL1       -0.0416
     20 C          -6.8315    0.0613    0.0514 C.ar    1  UNL1        0.0411
     21 CL         -8.5605    0.2161    0.1008 Cl      1  UNL1       -0.0835
     22 C          -6.1559    0.5669   -1.0594 C.ar    1  UNL1       -0.0416
     23 C          -4.7985    0.4429   -1.0935 C.ar    1  UNL1       -0.0389
     24 C          -1.6869   -0.8142    0.6449 C.2     1  UNL1        0.2430
     25 O          -1.9426   -1.7272    1.4699 O.2     1  UNL1       -0.2729
     26 H          -0.8234    0.3929    2.5328 H       1  UNL1        0.0255
     27 H           0.9053    0.3740    2.1827 H       1  UNL1        0.0255
     28 H          -0.1579    1.6981    1.5488 H       1  UNL1        0.0255
     29 H           0.3741   -2.2090    0.2351 H       1  UNL1        0.1471
     30 H           1.7318    1.2979    0.1363 H       1  UNL1        0.0636
     31 H           4.0256    1.8063   -0.2832 H       1  UNL1        0.0626
     32 H           5.9853    2.1979   -0.6449 H       1  UNL1        0.1825
     33 H           8.4444    0.7774   -0.9293 H       1  UNL1        0.2414
     34 H           5.0210   -2.3252   -0.6676 H       1  UNL1        0.0626
     35 H           2.6358   -2.8963   -0.2316 H       1  UNL1        0.0636
     36 H          -0.5390    1.7102   -0.5125 H       1  UNL1        0.0306
     37 H           0.2424    0.3887   -1.5497 H       1  UNL1        0.0306
     38 H          -2.3177    1.2070   -1.7988 H       1  UNL1        0.0469
     39 H          -1.7531   -0.5111   -2.0995 H       1  UNL1        0.0469
     40 H          -4.1594   -1.1221    1.7974 H       1  UNL1        0.0637
     41 H          -6.6456   -0.9199    1.9060 H       1  UNL1        0.0633
     42 H          -6.6637    1.0420   -1.8734 H       1  UNL1        0.0633
     43 H          -4.2912    0.8444   -1.9734 H       1  UNL1        0.0637
@<TRIPOS>BOND
     1     1     2    1
     2     2     3    1
     3     3     4    1
     4     4     5   ar
     5     5     6   ar
     6     6     7   ar
     7     7     8    1
     8     8     9    2
     9     8    10   am
    10    10    11    1
    11     7    12   ar
    12    12    13   ar
    13     2    14    1
    14    14    15    1
    15    15    16    1
    16    16    17    1
    17    17    18   ar
    18    18    19   ar
    19    19    20   ar
    20    20    21    1
    21    20    22   ar
    22    22    23   ar
    23    16    24   am
    24    24    25    2
    25    24     2    1
    26    13     4   ar
    27    23    17   ar
    28     1    26    1
    29     1    27    1
    30     1    28    1
    31     3    29    1
    32     5    30    1
    33     6    31    1
    34    10    32    1
    35    11    33    1
    36    12    34    1
    37    13    35    1
    38    14    36    1
    39    14    37    1
    40    15    38    1
    41    15    39    1
    42    18    40    1
    43    19    41    1
    44    22    42    1
    45    23    43    1
