@<TRIPOS>MOLECULE
*****
 65 67 0 0 0
SMALL
GASTEIGER

@<TRIPOS>ATOM
      1 C          -1.0308   -1.1896    1.2141 C.3     1  UNL1        0.0967
      2 C          -1.7066   -2.5027    1.0212 C.3     1  UNL1        0.0241
      3 N          -2.7118   -2.6027    0.0271 N.3     1  UNL1       -0.3002
      4 C          -3.3567   -3.9264    0.1463 C.3     1  UNL1       -0.0010
      5 C          -2.7628   -4.8106   -0.9017 C.3     1  UNL1       -0.0390
      6 C          -1.6474   -3.9983   -1.4942 C.3     1  UNL1       -0.0390
      7 C          -2.2008   -2.5877   -1.3333 C.3     1  UNL1       -0.0010
      8 N          -0.3472   -0.6476    0.0953 N.2     1  UNL1       -0.2472
      9 C           0.8622   -0.2357    0.0254 C.2     1  UNL1        0.1828
     10 O           0.5327    0.0327   -1.2878 O.2     1  UNL1       -0.4956
     11 C           1.9505   -0.1738    1.0349 C.3     1  UNL1        0.0230
     12 C           3.1688    0.5394    0.4488 C.3     1  UNL1       -0.0447
     13 C           3.6631   -0.2064   -0.7476 C.3     1  UNL1       -0.0526
     14 C           4.8513    0.4493   -1.3686 C.3     1  UNL1       -0.0531
     15 C           5.9794    0.5217   -0.3809 C.3     1  UNL1       -0.0533
     16 C           7.1692    1.1740   -1.0661 C.3     1  UNL1       -0.0559
     17 C           8.3226    1.2625   -0.0964 C.3     1  UNL1       -0.0653
     18 C          -1.8356   -0.1782    1.9508 C.3     1  UNL1        0.1038
     19 O          -2.5135   -0.7454    3.0505 O.3     1  UNL1       -0.3850
     20 C          -2.7360    0.6637    1.1463 C.ar    1  UNL1       -0.0134
     21 C          -2.3326    1.9331    0.7508 C.ar    1  UNL1       -0.0106
     22 C          -3.1527    2.7542    0.0114 C.ar    1  UNL1        0.1624
     23 C          -4.4208    2.3837   -0.3883 C.ar    1  UNL1        0.1621
     24 O          -5.1409    3.2856   -1.1204 O.3     1  UNL1       -0.4849
     25 C          -5.0998    4.7023   -0.8853 C.3     1  UNL1        0.1237
     26 C          -3.7507    5.1100   -0.3397 C.3     1  UNL1        0.1237
     27 O          -2.8110    4.0497   -0.4213 O.3     1  UNL1       -0.4849
     28 C          -4.8545    1.1175   -0.0086 C.ar    1  UNL1       -0.0159
     29 C          -4.0061    0.3239    0.7316 C.ar    1  UNL1       -0.0524
     30 H          -0.1727   -1.4492    1.9536 H       1  UNL1        0.0587
     31 H          -2.1218   -2.8827    2.0025 H       1  UNL1        0.0448
     32 H          -0.8829   -3.2461    0.7991 H       1  UNL1        0.0448
     33 H          -3.1095   -4.3540    1.1447 H       1  UNL1        0.0426
     34 H          -4.4659   -3.8016    0.0216 H       1  UNL1        0.0426
     35 H          -3.5191   -5.0703   -1.6771 H       1  UNL1        0.0278
     36 H          -2.3493   -5.7565   -0.5159 H       1  UNL1        0.0278
     37 H          -1.5326   -4.2920   -2.5626 H       1  UNL1        0.0278
     38 H          -0.6734   -4.1421   -0.9945 H       1  UNL1        0.0278
     39 H          -3.0459   -2.5060   -2.0537 H       1  UNL1        0.0426
     40 H          -1.3928   -1.9007   -1.5281 H       1  UNL1        0.0426
     41 H           0.2873    0.9351   -1.6696 H       1  UNL1        0.2934
     42 H           1.6519    0.4335    1.9119 H       1  UNL1        0.0359
     43 H           2.2877   -1.1514    1.3822 H       1  UNL1        0.0359
     44 H           3.9807    0.5861    1.2014 H       1  UNL1        0.0270
     45 H           2.8695    1.5573    0.1983 H       1  UNL1        0.0270
     46 H           2.8289   -0.2578   -1.4858 H       1  UNL1        0.0265
     47 H           3.9877   -1.2517   -0.4767 H       1  UNL1        0.0265
     48 H           5.1735   -0.1558   -2.2614 H       1  UNL1        0.0265
     49 H           4.5959    1.4697   -1.7799 H       1  UNL1        0.0265
     50 H           6.1910   -0.4702    0.0177 H       1  UNL1        0.0265
     51 H           5.7437    1.1985    0.4744 H       1  UNL1        0.0265
     52 H           6.8529    2.1620   -1.4063 H       1  UNL1        0.0263
     53 H           7.4412    0.4944   -1.9034 H       1  UNL1        0.0263
     54 H           9.1750    0.6769   -0.4793 H       1  UNL1        0.0230
     55 H           7.9838    0.9027    0.8892 H       1  UNL1        0.0230
     56 H           8.6014    2.3364    0.0655 H       1  UNL1        0.0230
     57 H          -1.0932    0.5215    2.4475 H       1  UNL1        0.0665
     58 H          -3.3573   -1.1057    2.6892 H       1  UNL1        0.2103
     59 H          -1.3467    2.2980    1.0270 H       1  UNL1        0.0659
     60 H          -5.4248    5.2635   -1.7640 H       1  UNL1        0.0731
     61 H          -5.8524    4.9113   -0.0685 H       1  UNL1        0.0731
     62 H          -3.7896    5.4517    0.7048 H       1  UNL1        0.0731
     63 H          -3.3639    5.9315   -0.9721 H       1  UNL1        0.0731
     64 H          -5.8398    0.8108   -0.3106 H       1  UNL1        0.0655
     65 H          -4.4001   -0.6453    1.0019 H       1  UNL1        0.0622
@<TRIPOS>BOND
     1     1     2    1
     2     2     3    1
     3     3     4    1
     4     4     5    1
     5     5     6    1
     6     6     7    1
     7     1     8    1
     8     8     9    2
     9     9    10    1
    10     9    11    1
    11    11    12    1
    12    12    13    1
    13    13    14    1
    14    14    15    1
    15    15    16    1
    16    16    17    1
    17     1    18    1
    18    18    19    1
    19    18    20    1
    20    20    21   ar
    21    21    22   ar
    22    22    23   ar
    23    23    24    1
    24    24    25    1
    25    25    26    1
    26    26    27    1
    27    23    28   ar
    28    28    29   ar
    29     7     3    1
    30    29    20   ar
    31    27    22    1
    32     1    30    1
    33     2    31    1
    34     2    32    1
    35     4    33    1
    36     4    34    1
    37     5    35    1
    38     5    36    1
    39     6    37    1
    40     6    38    1
    41     7    39    1
    42     7    40    1
    43    10    41    1
    44    11    42    1
    45    11    43    1
    46    12    44    1
    47    12    45    1
    48    13    46    1
    49    13    47    1
    50    14    48    1
    51    14    49    1
    52    15    50    1
    53    15    51    1
    54    16    52    1
    55    16    53    1
    56    17    54    1
    57    17    55    1
    58    17    56    1
    59    18    57    1
    60    19    58    1
    61    21    59    1
    62    25    60    1
    63    25    61    1
    64    26    62    1
    65    26    63    1
    66    28    64    1
    67    29    65    1
