@<TRIPOS>MOLECULE
*****
 81 84 0 0 0
SMALL
GASTEIGER

@<TRIPOS>ATOM
      1 C           2.3163    3.2153    2.1040 C.3     1  UNL1       -0.0524
      2 C           1.6388    4.4030    1.4364 C.3     1  UNL1       -0.0039
      3 N           0.8569    4.0218    0.3186 N.3     1  UNL1       -0.3014
      4 C           0.1948    5.0514   -0.3519 C.3     1  UNL1       -0.0039
      5 C           1.2505    5.9220   -1.0316 C.3     1  UNL1       -0.0524
      6 C           0.4053    2.6830    0.2567 C.3     1  UNL1        0.0147
      7 C          -0.4256    2.4355   -0.9496 C.3     1  UNL1        0.0278
      8 N          -0.8516    1.0286   -1.0536 N.am    1  UNL1       -0.2945
      9 C          -0.0285    0.1941   -1.8541 C.3     1  UNL1        0.0398
     10 C           1.2204   -0.3107   -1.2245 C.ar    1  UNL1       -0.0301
     11 C           1.2874   -1.3628   -0.3559 C.ar    1  UNL1       -0.0565
     12 C           2.5130   -1.8128    0.1562 C.ar    1  UNL1       -0.0537
     13 C           3.7090   -1.2295   -0.1810 C.ar    1  UNL1       -0.0179
     14 C           4.9948   -1.6854    0.3439 C.ar    1  UNL1       -0.0179
     15 C           5.2344   -3.0075    0.6488 C.ar    1  UNL1       -0.0535
     16 C           6.4292   -3.4526    1.1457 C.ar    1  UNL1       -0.0495
     17 C           7.4406   -2.5348    1.3516 C.ar    1  UNL1        0.0548
     18 C           8.7331   -3.0430    1.8922 C.3     1  UNL1        0.4174
     19 F           9.5231   -1.9505    2.1674 F       1  UNL1       -0.1659
     20 F           9.3615   -3.8305    0.9282 F       1  UNL1       -0.1659
     21 F           8.4587   -3.7784    3.0167 F       1  UNL1       -0.1659
     22 C           7.2429   -1.1950    1.0589 C.ar    1  UNL1       -0.0495
     23 C           6.0294   -0.7898    0.5615 C.ar    1  UNL1       -0.0535
     24 C           3.6477   -0.1596   -1.0635 C.ar    1  UNL1       -0.0537
     25 C           2.4518    0.2816   -1.5645 C.ar    1  UNL1       -0.0565
     26 C          -2.0035    0.6283   -0.4027 C.2     1  UNL1        0.2357
     27 O          -2.6072    1.6133    0.2403 O.2     1  UNL1       -0.2736
     28 C          -2.7237   -0.6343   -0.2543 C.3     1  UNL1        0.1017
     29 N          -3.3252   -1.1813   -1.4404 N.ar    1  UNL1       -0.3154
     30 C          -2.8170   -2.2330   -2.0825 C.ar    1  UNL1        0.0236
     31 C          -1.7245   -3.0826   -1.5196 C.3     1  UNL1       -0.0240
     32 C          -3.3794   -2.5939   -3.3112 C.ar    1  UNL1        0.0239
     33 C          -4.4316   -1.8583   -3.8085 C.ar    1  UNL1        0.2741
     34 O          -4.9005   -2.2245   -4.9189 O.2     1  UNL1       -0.2658
     35 N          -4.9367   -0.8071   -3.1547 N.ar    1  UNL1       -0.1850
     36 C          -4.3749   -0.4732   -1.9622 C.ar    1  UNL1        0.1735
     37 S          -5.0713    0.8731   -1.0124 S.3     1  UNL1       -0.0829
     38 C          -6.5113    0.3180   -0.1150 C.3     1  UNL1        0.0262
     39 C          -6.3017   -0.6684    0.9438 C.ar    1  UNL1       -0.0370
     40 C          -6.0604   -0.2960    2.2588 C.ar    1  UNL1       -0.0551
     41 C          -5.8655   -1.2341    3.2618 C.ar    1  UNL1       -0.0262
     42 C          -5.9066   -2.5808    2.9783 C.ar    1  UNL1        0.1234
     43 F          -5.7183   -3.5213    3.9540 F       1  UNL1       -0.2055
     44 C          -6.1458   -2.9633    1.6756 C.ar    1  UNL1       -0.0262
     45 C          -6.3377   -2.0221    0.6882 C.ar    1  UNL1       -0.0551
     46 H           2.8202    3.5864    3.0424 H       1  UNL1        0.0242
     47 H           1.5874    2.4515    2.4469 H       1  UNL1        0.0242
     48 H           3.0804    2.7510    1.4779 H       1  UNL1        0.0242
     49 H           2.4894    5.0517    1.0754 H       1  UNL1        0.0424
     50 H           1.1183    5.0170    2.2018 H       1  UNL1        0.0424
     51 H          -0.4931    4.7490   -1.1370 H       1  UNL1        0.0424
     52 H          -0.3586    5.7064    0.3865 H       1  UNL1        0.0424
     53 H           1.3717    6.8945   -0.5187 H       1  UNL1        0.0242
     54 H           0.9784    6.1352   -2.0817 H       1  UNL1        0.0242
     55 H           2.2363    5.4453   -1.0266 H       1  UNL1        0.0242
     56 H           1.2668    1.9983    0.2832 H       1  UNL1        0.0442
     57 H          -0.1732    2.4696    1.2098 H       1  UNL1        0.0442
     58 H          -1.3893    2.9994   -0.9197 H       1  UNL1        0.0477
     59 H           0.1241    2.7463   -1.8503 H       1  UNL1        0.0477
     60 H           0.2735    0.8672   -2.7425 H       1  UNL1        0.0514
     61 H          -0.5800   -0.5979   -2.3594 H       1  UNL1        0.0514
     62 H           0.3654   -1.8466   -0.0565 H       1  UNL1        0.0621
     63 H           2.5307   -2.6536    0.8480 H       1  UNL1        0.0624
     64 H           4.4433   -3.7276    0.4872 H       1  UNL1        0.0624
     65 H           6.6133   -4.5099    1.3842 H       1  UNL1        0.0623
     66 H           8.0387   -0.4903    1.2225 H       1  UNL1        0.0623
     67 H           5.8495    0.2472    0.3262 H       1  UNL1        0.0624
     68 H           4.6026    0.2972   -1.3233 H       1  UNL1        0.0624
     69 H           2.4027    1.1123   -2.2502 H       1  UNL1        0.0621
     70 H          -3.5747   -0.4763    0.4677 H       1  UNL1        0.0588
     71 H          -2.1031   -1.4039    0.2817 H       1  UNL1        0.0588
     72 H          -1.9288   -4.1702   -1.8363 H       1  UNL1        0.0292
     73 H          -0.7779   -2.8537   -1.9928 H       1  UNL1        0.0292
     74 H          -1.6955   -3.1422   -0.4359 H       1  UNL1        0.0292
     75 H          -2.9524   -3.4381   -3.8072 H       1  UNL1        0.0690
     76 H          -6.9956    1.2508    0.3165 H       1  UNL1        0.0429
     77 H          -7.2678   -0.0231   -0.8700 H       1  UNL1        0.0429
     78 H          -6.0228    0.7615    2.5136 H       1  UNL1        0.0621
     79 H          -5.6763   -0.9500    4.2968 H       1  UNL1        0.0646
     80 H          -6.1734   -4.0440    1.4739 H       1  UNL1        0.0646
     81 H          -6.5211   -2.3623   -0.3091 H       1  UNL1        0.0621
@<TRIPOS>BOND
     1     1     2    1
     2     2     3    1
     3     3     4    1
     4     4     5    1
     5     3     6    1
     6     6     7    1
     7     7     8    1
     8     8     9    1
     9     9    10    1
    10    10    11   ar
    11    11    12   ar
    12    12    13   ar
    13    13    14    1
    14    14    15   ar
    15    15    16   ar
    16    16    17   ar
    17    17    18    1
    18    18    19    1
    19    18    20    1
    20    18    21    1
    21    17    22   ar
    22    22    23   ar
    23    13    24   ar
    24    24    25   ar
    25     8    26   am
    26    26    27    2
    27    26    28    1
    28    28    29    1
    29    29    30   ar
    30    30    31    1
    31    30    32   ar
    32    32    33   ar
    33    33    34    2
    34    33    35   ar
    35    35    36   ar
    36    36    37    1
    37    37    38    1
    38    38    39    1
    39    39    40   ar
    40    40    41   ar
    41    41    42   ar
    42    42    43    1
    43    42    44   ar
    44    44    45   ar
    45    25    10   ar
    46    36    29   ar
    47    45    39   ar
    48    23    14   ar
    49     1    46    1
    50     1    47    1
    51     1    48    1
    52     2    49    1
    53     2    50    1
    54     4    51    1
    55     4    52    1
    56     5    53    1
    57     5    54    1
    58     5    55    1
    59     6    56    1
    60     6    57    1
    61     7    58    1
    62     7    59    1
    63     9    60    1
    64     9    61    1
    65    11    62    1
    66    12    63    1
    67    15    64    1
    68    16    65    1
    69    22    66    1
    70    23    67    1
    71    24    68    1
    72    25    69    1
    73    28    70    1
    74    28    71    1
    75    31    72    1
    76    31    73    1
    77    31    74    1
    78    32    75    1
    79    38    76    1
    80    38    77    1
    81    40    78    1
    82    41    79    1
    83    44    80    1
    84    45    81    1
