@<TRIPOS>MOLECULE
*****
 44 46 0 0 0
SMALL
GASTEIGER

@<TRIPOS>ATOM
      1 C          -1.9827   -0.8827    1.2971 C.3     1  UNL1       -0.0352
      2 C          -2.4118   -0.1198    0.0498 C.3     1  UNL1        0.0951
      3 C          -1.1960    0.4649   -0.6068 C.ar    1  UNL1        0.0183
      4 C           0.0805    0.2407   -0.1781 C.ar    1  UNL1       -0.0322
      5 C           1.2210    0.7835   -0.7920 C.ar    1  UNL1        0.0356
      6 N           2.4763    0.4794   -0.2583 N.am    1  UNL1       -0.2802
      7 C           3.7095    0.9153   -0.7184 C.2     1  UNL1        0.2666
      8 O           3.8184    1.6601   -1.7054 O.2     1  UNL1       -0.2682
      9 C           4.9647    0.5099   -0.0488 C.ar    1  UNL1        0.1257
     10 C           6.1936    0.9178   -0.4714 C.ar    1  UNL1       -0.0301
     11 C           7.3733    0.5431    0.1493 C.ar    1  UNL1       -0.0441
     12 C           7.3092   -0.2790    1.2442 C.ar    1  UNL1        0.0360
     13 BR          8.9072   -0.8369    2.1525 Br      1  UNL1       -0.0487
     14 C           6.0550   -0.6888    1.6667 C.ar    1  UNL1        0.0424
     15 N           4.9276   -0.3065    1.0411 N.ar    1  UNL1       -0.2493
     16 C           1.0559    1.5872   -1.8870 C.ar    1  UNL1       -0.0193
     17 C          -0.2455    1.8283   -2.3410 C.ar    1  UNL1        0.0782
     18 CL         -0.4282    2.8692   -3.7563 Cl      1  UNL1       -0.0805
     19 C          -1.3412    1.2784   -1.7130 C.ar    1  UNL1        0.1472
     20 F          -2.5842    1.5464   -2.1966 F       1  UNL1       -0.2036
     21 C          -3.0643   -1.0907   -0.8761 C.3     1  UNL1        0.0223
     22 C          -4.4863   -1.3616   -0.5462 C.3     1  UNL1        0.1997
     23 C          -4.8359   -2.7934   -0.2976 C.3     1  UNL1        0.4266
     24 F          -4.5646   -3.5829   -1.4172 F       1  UNL1       -0.1669
     25 F          -4.1430   -3.3203    0.7464 F       1  UNL1       -0.1669
     26 F          -6.1796   -2.9708   -0.0393 F       1  UNL1       -0.1669
     27 O          -4.9517   -0.5942    0.5538 O.2     1  UNL1       -0.4534
     28 C          -4.5076    0.7139    0.7483 C.2     1  UNL1        0.2765
     29 N          -5.4111    1.7173    1.1989 N.pl3   1  UNL1       -0.3134
     30 N          -3.2682    0.9307    0.4984 N.2     1  UNL1       -0.2257
     31 H          -2.8913   -1.2185    1.8388 H       1  UNL1        0.0256
     32 H          -1.3852   -0.1914    1.9090 H       1  UNL1        0.0256
     33 H          -1.3305   -1.7059    0.9640 H       1  UNL1        0.0256
     34 H           0.1999   -0.4048    0.6961 H       1  UNL1        0.0640
     35 H           2.5036   -0.1609    0.6026 H       1  UNL1        0.1552
     36 H           6.2509    1.5667   -1.3349 H       1  UNL1        0.0641
     37 H           8.3250    0.9073   -0.2426 H       1  UNL1        0.0630
     38 H           6.0525   -1.3438    2.5440 H       1  UNL1        0.0841
     39 H           1.8539    2.0532   -2.4324 H       1  UNL1        0.0652
     40 H          -2.9312   -0.7027   -1.9118 H       1  UNL1        0.0330
     41 H          -2.5242   -2.0651   -0.8651 H       1  UNL1        0.0330
     42 H          -5.1110   -1.0363   -1.4221 H       1  UNL1        0.0826
     43 H          -5.2378    2.7188    1.0505 H       1  UNL1        0.1466
     44 H          -6.2650    1.4246    1.6892 H       1  UNL1        0.1466
@<TRIPOS>BOND
     1     2     1    1
     2     2     3    1
     3     3     4   ar
     4     4     5   ar
     5     5     6    1
     6     6     7   am
     7     7     8    2
     8     7     9    1
     9     9    10   ar
    10    10    11   ar
    11    11    12   ar
    12    12    13    1
    13    12    14   ar
    14    14    15   ar
    15     5    16   ar
    16    16    17   ar
    17    17    18    1
    18    17    19   ar
    19    19    20    1
    20     2    21    1
    21    21    22    1
    22    22    23    1
    23    23    24    1
    24    23    25    1
    25    23    26    1
    26    22    27    1
    27    27    28    1
    28    28    29    1
    29    28    30    2
    30    30     2    1
    31    19     3   ar
    32    15     9   ar
    33     1    31    1
    34     1    32    1
    35     1    33    1
    36     4    34    1
    37     6    35    1
    38    10    36    1
    39    11    37    1
    40    14    38    1
    41    16    39    1
    42    21    40    1
    43    21    41    1
    44    22    42    1
    45    29    43    1
    46    29    44    1
