
     RDKit          3D

 52 55  0  0  0  0  0  0  0  0999 V2000
    5.7459    0.8440    0.5406 C   0  0  0  0  0  0  0  0  0  0  0  0
    4.8499   -0.1539    0.0675 N   0  0  0  0  0  0  0  0  0  0  0  0
    3.9656   -0.7374    1.0004 C   0  0  0  0  0  0  0  0  0  0  0  0
    2.4879   -0.6995    0.6042 C   0  0  0  0  0  0  0  0  0  0  0  0
    2.2717   -1.0120   -0.7443 N   0  0  0  0  0  0  0  0  0  0  0  0
    1.4009   -0.1449   -1.4379 C   0  0  0  0  0  0  0  0  0  0  0  0
   -0.0214   -0.2841   -1.0757 C   0  0  0  0  0  0  0  0  0  0  0  0
   -0.4757   -0.0150    0.3006 C   0  0  0  0  0  0  0  0  0  0  0  0
   -1.9437   -0.2421    0.2834 N   0  0  0  0  0  0  0  0  0  0  0  0
   -2.3615   -1.5966    0.3172 C   0  0  0  0  0  0  0  0  0  0  0  0
   -1.4078   -2.5870    0.4137 C   0  0  0  0  0  0  0  0  0  0  0  0
   -1.7631   -3.9322    0.4608 C   0  0  0  0  0  0  0  0  0  0  0  0
   -3.0879   -4.2953    0.4115 C   0  0  0  0  0  0  0  0  0  0  0  0
   -4.0202   -3.3111    0.3165 C   0  0  0  0  0  0  0  0  0  0  0  0
   -3.6761   -1.9947    0.2701 C   0  0  0  0  0  0  0  0  0  0  0  0
   -4.9872   -0.8053    0.1595 S   0  0  0  0  0  0  0  0  0  0  0  0
   -4.1861    0.8043    0.1398 C   0  0  0  0  0  0  0  0  0  0  0  0
   -4.9684    1.9198    0.0556 C   0  0  0  0  0  0  0  0  0  0  0  0
   -4.4404    3.1823    0.0243 C   0  0  0  0  0  0  0  0  0  0  0  0
   -3.0784    3.3172    0.0802 C   0  0  0  0  0  0  0  0  0  0  0  0
   -2.4643    4.6832    0.0513 C   0  0  0  0  0  0  0  0  0  0  0  0
   -1.3400    4.6262   -0.7650 F   0  0  0  0  0  0  0  0  0  0  0  0
   -3.3758    5.5564   -0.5368 F   0  0  0  0  0  0  0  0  0  0  0  0
   -2.1079    5.1222    1.2966 F   0  0  0  0  0  0  0  0  0  0  0  0
   -2.3054    2.1787    0.1651 C   0  0  0  0  0  0  0  0  0  0  0  0
   -2.7971    0.8876    0.1997 C   0  0  0  0  0  0  0  0  0  0  0  0
    3.4596   -1.2017   -1.5478 C   0  0  0  0  0  0  0  0  0  0  0  0
    4.3481    0.0128   -1.2529 C   0  0  0  0  0  0  0  0  0  0  0  0
    6.1569    1.3935   -0.3327 H   0  0  0  0  0  0  0  0  0  0  0  0
    5.2724    1.5318    1.2804 H   0  0  0  0  0  0  0  0  0  0  0  0
    6.6271    0.3071    1.0041 H   0  0  0  0  0  0  0  0  0  0  0  0
    4.0030   -0.2665    2.0195 H   0  0  0  0  0  0  0  0  0  0  0  0
    4.2418   -1.8009    1.1544 H   0  0  0  0  0  0  0  0  0  0  0  0
    2.0648    0.2525    0.9845 H   0  0  0  0  0  0  0  0  0  0  0  0
    2.0327   -1.5207    1.2384 H   0  0  0  0  0  0  0  0  0  0  0  0
    1.6806    0.9449   -1.3083 H   0  0  0  0  0  0  0  0  0  0  0  0
    1.4477   -0.3171   -2.5714 H   0  0  0  0  0  0  0  0  0  0  0  0
   -0.6264    0.4441   -1.7497 H   0  0  0  0  0  0  0  0  0  0  0  0
   -0.3665   -1.2644   -1.4907 H   0  0  0  0  0  0  0  0  0  0  0  0
   -0.1987    0.9856    0.6574 H   0  0  0  0  0  0  0  0  0  0  0  0
   -0.0466   -0.6690    1.1054 H   0  0  0  0  0  0  0  0  0  0  0  0
   -0.3314   -2.4191    0.4686 H   0  0  0  0  0  0  0  0  0  0  0  0
   -0.9622   -4.6671    0.5349 H   0  0  0  0  0  0  0  0  0  0  0  0
   -3.3512   -5.3256    0.4493 H   0  0  0  0  0  0  0  0  0  0  0  0
   -5.0721   -3.6172    0.2767 H   0  0  0  0  0  0  0  0  0  0  0  0
   -6.0538    1.7637    0.0141 H   0  0  0  0  0  0  0  0  0  0  0  0
   -5.0881    4.0561   -0.0425 H   0  0  0  0  0  0  0  0  0  0  0  0
   -1.2477    2.3902    0.1939 H   0  0  0  0  0  0  0  0  0  0  0  0
    3.1804   -1.2275   -2.6229 H   0  0  0  0  0  0  0  0  0  0  0  0
    4.0335   -2.0832   -1.2630 H   0  0  0  0  0  0  0  0  0  0  0  0
    5.1741    0.0774   -1.9879 H   0  0  0  0  0  0  0  0  0  0  0  0
    3.7081    0.9092   -1.3742 H   0  0  0  0  0  0  0  0  0  0  0  0
  1  2  1  0
  2  3  1  0
  3  4  1  0
  4  5  1  0
  5  6  1  0
  6  7  1  0
  7  8  1  0
  8  9  1  0
  9 10  1  0
 10 11  2  0
 11 12  1  0
 12 13  2  0
 13 14  1  0
 14 15  2  0
 15 16  1  0
 16 17  1  0
 17 18  2  0
 18 19  1  0
 19 20  2  0
 20 21  1  0
 21 22  1  0
 21 23  1  0
 21 24  1  0
 20 25  1  0
 25 26  2  0
  5 27  1  0
 27 28  1  0
 28  2  1  0
 26  9  1  0
 15 10  1  0
 26 17  1  0
  1 29  1  0
  1 30  1  0
  1 31  1  0
  3 32  1  0
  3 33  1  0
  4 34  1  0
  4 35  1  0
  6 36  1  0
  6 37  1  0
  7 38  1  0
  7 39  1  0
  8 40  1  0
  8 41  1  0
 11 42  1  0
 12 43  1  0
 13 44  1  0
 14 45  1  0
 18 46  1  0
 19 47  1  0
 25 48  1  0
 27 49  1  0
 27 50  1  0
 28 51  1  0
 28 52  1  0
M  END
$$$$
