@<TRIPOS>MOLECULE
*****
 52 55 0 0 0
SMALL
GASTEIGER

@<TRIPOS>ATOM
      1 C           5.7459    0.8440    0.5406 C.3     1  UNL1       -0.0127
      2 N           4.8499   -0.1539    0.0675 N.3     1  UNL1       -0.3029
      3 C           3.9656   -0.7374    1.0004 C.3     1  UNL1        0.0114
      4 C           2.4879   -0.6995    0.6042 C.3     1  UNL1        0.0117
      5 N           2.2717   -1.0120   -0.7443 N.3     1  UNL1       -0.2999
      6 C           1.4009   -0.1449   -1.4379 C.3     1  UNL1        0.0004
      7 C          -0.0214   -0.2841   -1.0757 C.3     1  UNL1       -0.0240
      8 C          -0.4757   -0.0150    0.3006 C.3     1  UNL1        0.0185
      9 N          -1.9437   -0.2421    0.2834 N.pl3   1  UNL1       -0.2983
     10 C          -2.3615   -1.5966    0.3172 C.ar    1  UNL1        0.0479
     11 C          -1.4078   -2.5870    0.4137 C.ar    1  UNL1       -0.0393
     12 C          -1.7631   -3.9322    0.4608 C.ar    1  UNL1       -0.0599
     13 C          -3.0879   -4.2953    0.4115 C.ar    1  UNL1       -0.0606
     14 C          -4.0202   -3.3111    0.3165 C.ar    1  UNL1       -0.0462
     15 C          -3.6761   -1.9947    0.2701 C.ar    1  UNL1        0.0341
     16 S          -4.9872   -0.8053    0.1595 S.3     1  UNL1       -0.0857
     17 C          -4.1861    0.8043    0.1398 C.ar    1  UNL1        0.0341
     18 C          -4.9684    1.9198    0.0556 C.ar    1  UNL1       -0.0457
     19 C          -4.4404    3.1823    0.0243 C.ar    1  UNL1       -0.0490
     20 C          -3.0784    3.3172    0.0802 C.ar    1  UNL1        0.0566
     21 C          -2.4643    4.6832    0.0513 C.3     1  UNL1        0.4175
     22 F          -1.3400    4.6262   -0.7650 F       1  UNL1       -0.1659
     23 F          -3.3758    5.5564   -0.5368 F       1  UNL1       -0.1659
     24 F          -2.1079    5.1222    1.2966 F       1  UNL1       -0.1659
     25 C          -2.3054    2.1787    0.1651 C.ar    1  UNL1       -0.0276
     26 C          -2.7971    0.8876    0.1997 C.ar    1  UNL1        0.0484
     27 C           3.4596   -1.2017   -1.5478 C.3     1  UNL1        0.0117
     28 C           4.3481    0.0128   -1.2529 C.3     1  UNL1        0.0114
     29 H           6.1569    1.3935   -0.3327 H       1  UNL1        0.0391
     30 H           5.2724    1.5318    1.2804 H       1  UNL1        0.0391
     31 H           6.6271    0.3071    1.0041 H       1  UNL1        0.0391
     32 H           4.0030   -0.2665    2.0195 H       1  UNL1        0.0439
     33 H           4.2418   -1.8009    1.1544 H       1  UNL1        0.0439
     34 H           2.0648    0.2525    0.9845 H       1  UNL1        0.0439
     35 H           2.0327   -1.5207    1.2384 H       1  UNL1        0.0439
     36 H           1.6806    0.9449   -1.3083 H       1  UNL1        0.0427
     37 H           1.4477   -0.3171   -2.5714 H       1  UNL1        0.0427
     38 H          -0.6264    0.4441   -1.7497 H       1  UNL1        0.0293
     39 H          -0.3665   -1.2644   -1.4907 H       1  UNL1        0.0293
     40 H          -0.1987    0.9856    0.6574 H       1  UNL1        0.0468
     41 H          -0.0466   -0.6690    1.1054 H       1  UNL1        0.0468
     42 H          -0.3314   -2.4191    0.4686 H       1  UNL1        0.0636
     43 H          -0.9622   -4.6671    0.5349 H       1  UNL1        0.0618
     44 H          -3.3512   -5.3256    0.4493 H       1  UNL1        0.0618
     45 H          -5.0721   -3.6172    0.2767 H       1  UNL1        0.0629
     46 H          -6.0538    1.7637    0.0141 H       1  UNL1        0.0629
     47 H          -5.0881    4.0561   -0.0425 H       1  UNL1        0.0623
     48 H          -1.2477    2.3902    0.1939 H       1  UNL1        0.0642
     49 H           3.1804   -1.2275   -2.6229 H       1  UNL1        0.0439
     50 H           4.0335   -2.0832   -1.2630 H       1  UNL1        0.0439
     51 H           5.1741    0.0774   -1.9879 H       1  UNL1        0.0439
     52 H           3.7081    0.9092   -1.3742 H       1  UNL1        0.0439
@<TRIPOS>BOND
     1     1     2    1
     2     2     3    1
     3     3     4    1
     4     4     5    1
     5     5     6    1
     6     6     7    1
     7     7     8    1
     8     8     9    1
     9     9    10    1
    10    10    11   ar
    11    11    12   ar
    12    12    13   ar
    13    13    14   ar
    14    14    15   ar
    15    15    16    1
    16    16    17    1
    17    17    18   ar
    18    18    19   ar
    19    19    20   ar
    20    20    21    1
    21    21    22    1
    22    21    23    1
    23    21    24    1
    24    20    25   ar
    25    25    26   ar
    26     5    27    1
    27    27    28    1
    28    28     2    1
    29    26     9    1
    30    15    10   ar
    31    26    17   ar
    32     1    29    1
    33     1    30    1
    34     1    31    1
    35     3    32    1
    36     3    33    1
    37     4    34    1
    38     4    35    1
    39     6    36    1
    40     6    37    1
    41     7    38    1
    42     7    39    1
    43     8    40    1
    44     8    41    1
    45    11    42    1
    46    12    43    1
    47    13    44    1
    48    14    45    1
    49    18    46    1
    50    19    47    1
    51    25    48    1
    52    27    49    1
    53    27    50    1
    54    28    51    1
    55    28    52    1
