
     RDKit          3D

 24 24  0  0  0  0  0  0  0  0999 V2000
    2.9640    0.5006   -0.5307 O   0  0  0  0  0  0  0  0  0  0  0  0
    2.1856   -0.4322    0.1297 C   0  0  0  0  0  0  0  0  0  0  0  0
    0.8587   -0.6647   -0.5967 C   0  0  1  0  0  0  0  0  0  0  0  0
    0.0336   -1.6119    0.0468 N   0  0  0  0  0  0  0  0  0  0  0  0
   -0.8257   -1.1540    1.0704 C   0  0  0  0  0  0  0  0  0  0  0  0
   -1.3522    0.2489    0.8712 C   0  0  2  0  0  0  0  0  0  0  0  0
   -2.6510    0.4032    1.3449 O   0  0  0  0  0  0  0  0  0  0  0  0
   -1.2743    0.5034   -0.6295 C   0  0  1  0  0  0  0  0  0  0  0  0
   -1.9891    1.6177   -1.0132 O   0  0  0  0  0  0  0  0  0  0  0  0
    0.2131    0.6452   -0.9133 C   0  0  2  0  0  0  0  0  0  0  0  0
    0.3809    1.0698   -2.2079 O   0  0  0  0  0  0  0  0  0  0  0  0
    3.2783    1.2378    0.0203 H   0  0  0  0  0  0  0  0  0  0  0  0
    2.7629   -1.3743    0.2041 H   0  0  0  0  0  0  0  0  0  0  0  0
    2.0133   -0.0462    1.1639 H   0  0  0  0  0  0  0  0  0  0  0  0
    1.1612   -1.1103   -1.5919 H   0  0  0  0  0  0  0  0  0  0  0  0
    0.6273   -2.3845    0.4205 H   0  0  0  0  0  0  0  0  0  0  0  0
   -1.7426   -1.8164    1.0646 H   0  0  0  0  0  0  0  0  0  0  0  0
   -0.4001   -1.2906    2.0948 H   0  0  0  0  0  0  0  0  0  0  0  0
   -0.6635    0.9780    1.3703 H   0  0  0  0  0  0  0  0  0  0  0  0
   -2.5901    0.4282    2.3347 H   0  0  0  0  0  0  0  0  0  0  0  0
   -1.6177   -0.4010   -1.1715 H   0  0  0  0  0  0  0  0  0  0  0  0
   -2.9498    1.3688   -1.0299 H   0  0  0  0  0  0  0  0  0  0  0  0
    0.5674    1.4572   -0.2153 H   0  0  0  0  0  0  0  0  0  0  0  0
    1.0098    1.8274   -2.2365 H   0  0  0  0  0  0  0  0  0  0  0  0
  1  2  1  0
  2  3  1  0
  3  4  1  0
  4  5  1  0
  5  6  1  0
  6  7  1  0
  6  8  1  0
  8  9  1  0
  8 10  1  0
 10 11  1  0
 10  3  1  0
  1 12  1  0
  2 13  1  0
  2 14  1  0
  3 15  1  6
  4 16  1  0
  5 17  1  0
  5 18  1  0
  6 19  1  1
  7 20  1  0
  8 21  1  6
  9 22  1  0
 10 23  1  1
 11 24  1  0
M  END
$$$$
