@<TRIPOS>MOLECULE
*****
 24 24 0 0 0
SMALL
GASTEIGER

@<TRIPOS>ATOM
      1 O           2.9640    0.5006   -0.5307 O.3     1  UNK1       -0.3934
      2 C           2.1856   -0.4322    0.1297 C.3     1  UNK1        0.0620
      3 C           0.8587   -0.6647   -0.5967 C.3     1  UNK1        0.0596
      4 N           0.0336   -1.6119    0.0468 N.3     1  UNK1       -0.3064
      5 C          -0.8257   -1.1540    1.0704 C.3     0  UNK0        0.0249
      6 C          -1.3522    0.2489    0.8712 C.3     1  UNK1        0.0959
      7 O          -2.6510    0.4032    1.3449 O.3     1  UNK1       -0.3879
      8 C          -1.2743    0.5034   -0.6295 C.3     1  UNK1        0.1095
      9 O          -1.9891    1.6177   -1.0132 O.3     1  UNK1       -0.3866
     10 C           0.2131    0.6452   -0.9133 C.3     1  UNK1        0.1009
     11 O           0.3809    1.0698   -2.2079 O.3     1  UNK1       -0.3875
     12 H           3.2783    1.2378    0.0203 H       1  UNK1        0.2095
     13 H           2.7629   -1.3743    0.2041 H       1  UNK1        0.0573
     14 H           2.0133   -0.0462    1.1639 H       1  UNK1        0.0573
     15 H           1.1612   -1.1103   -1.5919 H       1  UNK1        0.0509
     16 H           0.6273   -2.3845    0.4205 H       1  UNK1        0.1224
     17 H          -1.7426   -1.8164    1.0646 H       0  UNK0        0.0450
     18 H          -0.4001   -1.2906    2.0948 H       0  UNK0        0.0450
     19 H          -0.6635    0.9780    1.3703 H       1  UNK1        0.0633
     20 H          -2.5901    0.4282    2.3347 H       1  UNK1        0.2099
     21 H          -1.6177   -0.4010   -1.1715 H       1  UNK1        0.0646
     22 H          -2.9498    1.3688   -1.0299 H       1  UNK1        0.2100
     23 H           0.5674    1.4572   -0.2153 H       1  UNK1        0.0636
     24 H           1.0098    1.8274   -2.2365 H       1  UNK1        0.2100
@<TRIPOS>BOND
     1     1     2    1
     2     2     3    1
     3     3     4    1
     4     4     5    1
     5     5     6    1
     6     6     7    1
     7     6     8    1
     8     8     9    1
     9     8    10    1
    10    10    11    1
    11    10     3    1
    12     1    12    1
    13     2    13    1
    14     2    14    1
    15     3    15    1
    16     4    16    1
    17     5    17    1
    18     5    18    1
    19     6    19    1
    20     7    20    1
    21     8    21    1
    22     9    22    1
    23    10    23    1
    24    11    24    1
