
     RDKit          3D

 48 51  0  0  0  0  0  0  0  0999 V2000
   -1.2386    1.0872   -1.4406 C   0  0  0  0  0  0  0  0  0  0  0  0
   -1.7369    0.2601   -0.2431 C   0  0  0  0  0  0  0  0  0  0  0  0
   -0.5577   -0.3108    0.4841 C   0  0  0  0  0  0  0  0  0  0  0  0
    0.7376   -0.1725   -0.0006 C   0  0  0  0  0  0  0  0  0  0  0  0
    1.8105   -0.7028    0.6748 C   0  0  0  0  0  0  0  0  0  0  0  0
    3.1400   -0.5723    0.1963 N   0  0  0  0  0  0  0  0  0  0  0  0
    3.9044    0.5670    0.6114 C   0  0  0  0  0  0  0  0  0  0  0  0
    3.3692    1.4026    1.3799 O   0  0  0  0  0  0  0  0  0  0  0  0
    5.2755    0.7151    0.1267 C   0  0  0  0  0  0  0  0  0  0  0  0
    6.0237    1.7940    0.5095 C   0  0  0  0  0  0  0  0  0  0  0  0
    7.3358    1.9738    0.0703 C   0  0  0  0  0  0  0  0  0  0  0  0
    7.8762    1.0388   -0.7649 C   0  0  0  0  0  0  0  0  0  0  0  0
    9.1430    1.1812   -1.2091 F   0  0  0  0  0  0  0  0  0  0  0  0
    7.1116   -0.0466   -1.1450 C   0  0  0  0  0  0  0  0  0  0  0  0
    5.8328   -0.1886   -0.6954 N   0  0  0  0  0  0  0  0  0  0  0  0
    1.6074   -1.3835    1.8513 C   0  0  0  0  0  0  0  0  0  0  0  0
    0.2997   -1.5174    2.3313 C   0  0  0  0  0  0  0  0  0  0  0  0
   -0.7832   -0.9811    1.6479 C   0  0  0  0  0  0  0  0  0  0  0  0
   -2.0410   -1.1177    2.1268 F   0  0  0  0  0  0  0  0  0  0  0  0
   -2.3613    1.1784    0.6398 N   0  0  0  0  0  0  0  0  0  0  0  0
   -3.5763    1.1235    1.0342 C   0  0  0  0  0  0  0  0  0  0  0  0
   -4.1140    2.1128    1.9370 N   0  0  0  0  0  0  0  0  0  0  0  0
   -4.3631    0.0853    0.5692 O   0  0  0  0  0  0  0  0  0  0  0  0
   -4.0329   -0.7057   -0.5184 C   0  0  0  0  0  0  0  0  0  0  0  0
   -4.8533   -0.3735   -1.7465 C   0  0  0  0  0  0  0  0  0  0  0  0
   -5.9269   -1.3145   -1.1808 C   0  0  0  0  0  0  0  0  0  0  0  0
   -4.7971   -2.0331   -0.4622 C   0  0  0  0  0  0  0  0  0  0  0  0
   -2.5592   -0.8645   -0.7469 C   0  0  0  0  0  0  0  0  0  0  0  0
   -2.3736   -0.9904   -2.1138 F   0  0  0  0  0  0  0  0  0  0  0  0
   -2.1314   -2.0907   -0.2188 F   0  0  0  0  0  0  0  0  0  0  0  0
   -2.1336    1.6451   -1.8000 H   0  0  0  0  0  0  0  0  0  0  0  0
   -0.8981    0.4224   -2.2371 H   0  0  0  0  0  0  0  0  0  0  0  0
   -0.4814    1.8303   -1.1178 H   0  0  0  0  0  0  0  0  0  0  0  0
    0.9215    0.3550   -0.9176 H   0  0  0  0  0  0  0  0  0  0  0  0
    3.6007   -1.2579   -0.4434 H   0  0  0  0  0  0  0  0  0  0  0  0
    5.6038    2.5390    1.1704 H   0  0  0  0  0  0  0  0  0  0  0  0
    7.8798    2.8544    0.4110 H   0  0  0  0  0  0  0  0  0  0  0  0
    7.5751   -0.7614   -1.8048 H   0  0  0  0  0  0  0  0  0  0  0  0
    2.4130   -1.8209    2.4240 H   0  0  0  0  0  0  0  0  0  0  0  0
    0.0998   -2.0429    3.2480 H   0  0  0  0  0  0  0  0  0  0  0  0
   -4.7344    2.8677    1.5659 H   0  0  0  0  0  0  0  0  0  0  0  0
   -3.9020    2.0998    2.9594 H   0  0  0  0  0  0  0  0  0  0  0  0
   -4.3878   -0.7573   -2.6858 H   0  0  0  0  0  0  0  0  0  0  0  0
   -5.1594    0.6782   -1.7616 H   0  0  0  0  0  0  0  0  0  0  0  0
   -6.4424   -1.9156   -1.9439 H   0  0  0  0  0  0  0  0  0  0  0  0
   -6.5734   -0.7331   -0.4927 H   0  0  0  0  0  0  0  0  0  0  0  0
   -4.3511   -2.8223   -1.0856 H   0  0  0  0  0  0  0  0  0  0  0  0
   -5.0512   -2.3341    0.5795 H   0  0  0  0  0  0  0  0  0  0  0  0
  1  2  1  0
  2  3  1  0
  3  4  2  0
  4  5  1  0
  5  6  1  0
  6  7  1  0
  7  8  2  0
  7  9  1  0
  9 10  2  0
 10 11  1  0
 11 12  2  0
 12 13  1  0
 12 14  1  0
 14 15  2  0
  5 16  2  0
 16 17  1  0
 17 18  2  0
 18 19  1  0
  2 20  1  0
 20 21  2  0
 21 22  1  0
 21 23  1  0
 23 24  1  0
 24 25  1  0
 25 26  1  0
 26 27  1  0
 24 28  1  0
 28 29  1  0
 28 30  1  0
 28  2  1  0
 18  3  1  0
 27 24  1  0
 15  9  1  0
  1 31  1  0
  1 32  1  0
  1 33  1  0
  4 34  1  0
  6 35  1  0
 10 36  1  0
 11 37  1  0
 14 38  1  0
 16 39  1  0
 17 40  1  0
 22 41  1  0
 22 42  1  0
 25 43  1  0
 25 44  1  0
 26 45  1  0
 26 46  1  0
 27 47  1  0
 27 48  1  0
M  END
$$$$
