@<TRIPOS>MOLECULE
*****
 48 51 0 0 0
SMALL
GASTEIGER

@<TRIPOS>ATOM
      1 C          -1.2386    1.0872   -1.4406 C.3     1  UNL1       -0.0295
      2 C          -1.7369    0.2601   -0.2431 C.3     1  UNL1        0.1580
      3 C          -0.5577   -0.3108    0.4841 C.ar    1  UNL1        0.0226
      4 C           0.7376   -0.1725   -0.0006 C.ar    1  UNL1       -0.0321
      5 C           1.8105   -0.7028    0.6748 C.ar    1  UNL1        0.0342
      6 N           3.1400   -0.5723    0.1963 N.am    1  UNL1       -0.2802
      7 C           3.9044    0.5670    0.6114 C.2     1  UNL1        0.2666
      8 O           3.3692    1.4026    1.3799 O.2     1  UNL1       -0.2682
      9 C           5.2755    0.7151    0.1267 C.ar    1  UNL1        0.1258
     10 C           6.0237    1.7940    0.5095 C.ar    1  UNL1       -0.0285
     11 C           7.3358    1.9738    0.0703 C.ar    1  UNL1       -0.0228
     12 C           7.8762    1.0388   -0.7649 C.ar    1  UNL1        0.1414
     13 F           9.1430    1.1812   -1.2091 F       1  UNL1       -0.2039
     14 C           7.1116   -0.0466   -1.1450 C.ar    1  UNL1        0.0636
     15 N           5.8328   -0.1886   -0.6954 N.ar    1  UNL1       -0.2475
     16 C           1.6074   -1.3835    1.8513 C.ar    1  UNL1       -0.0377
     17 C           0.2997   -1.5174    2.3313 C.ar    1  UNL1       -0.0243
     18 C          -0.7832   -0.9811    1.6479 C.ar    1  UNL1        0.1292
     19 F          -2.0410   -1.1177    2.1268 F       1  UNL1       -0.2051
     20 N          -2.3613    1.1784    0.6398 N.2     1  UNL1       -0.2196
     21 C          -3.5763    1.1235    1.0342 C.2     1  UNL1        0.2768
     22 N          -4.1140    2.1128    1.9370 N.pl3   1  UNL1       -0.3133
     23 O          -4.3631    0.0853    0.5692 O.2     1  UNL1       -0.4532
     24 C          -4.0329   -0.7057   -0.5184 C.3     1  UNL1        0.1786
     25 C          -4.8533   -0.3735   -1.7465 C.3     1  UNL1       -0.0068
     26 C          -5.9269   -1.3145   -1.1808 C.3     1  UNL1       -0.0454
     27 C          -4.7971   -2.0331   -0.4622 C.3     1  UNL1       -0.0068
     28 C          -2.5592   -0.8645   -0.7469 C.3     1  UNL1        0.3159
     29 F          -2.3736   -0.9904   -2.1138 F       1  UNL1       -0.1983
     30 F          -2.1314   -2.0907   -0.2188 F       1  UNL1       -0.1983
     31 H          -2.1336    1.6451   -1.8000 H       1  UNL1        0.0258
     32 H          -0.8981    0.4224   -2.2371 H       1  UNL1        0.0258
     33 H          -0.4814    1.8303   -1.1178 H       1  UNL1        0.0258
     34 H           0.9215    0.3550   -0.9176 H       1  UNL1        0.0640
     35 H           3.6007   -1.2579   -0.4434 H       1  UNL1        0.1552
     36 H           5.6038    2.5390    1.1704 H       1  UNL1        0.0641
     37 H           7.8798    2.8544    0.4110 H       1  UNL1        0.0647
     38 H           7.5751   -0.7614   -1.8048 H       1  UNL1        0.0859
     39 H           2.4130   -1.8209    2.4240 H       1  UNL1        0.0637
     40 H           0.0998   -2.0429    3.2480 H       1  UNL1        0.0647
     41 H          -4.7344    2.8677    1.5659 H       1  UNL1        0.1466
     42 H          -3.9020    2.0998    2.9594 H       1  UNL1        0.1466
     43 H          -4.3878   -0.7573   -2.6858 H       1  UNL1        0.0306
     44 H          -5.1594    0.6782   -1.7616 H       1  UNL1        0.0306
     45 H          -6.4424   -1.9156   -1.9439 H       1  UNL1        0.0268
     46 H          -6.5734   -0.7331   -0.4927 H       1  UNL1        0.0268
     47 H          -4.3511   -2.8223   -1.0856 H       1  UNL1        0.0306
     48 H          -5.0512   -2.3341    0.5795 H       1  UNL1        0.0306
@<TRIPOS>BOND
     1     1     2    1
     2     2     3    1
     3     3     4   ar
     4     4     5   ar
     5     5     6    1
     6     6     7   am
     7     7     8    2
     8     7     9    1
     9     9    10   ar
    10    10    11   ar
    11    11    12   ar
    12    12    13    1
    13    12    14   ar
    14    14    15   ar
    15     5    16   ar
    16    16    17   ar
    17    17    18   ar
    18    18    19    1
    19     2    20    1
    20    20    21    2
    21    21    22    1
    22    21    23    1
    23    23    24    1
    24    24    25    1
    25    25    26    1
    26    26    27    1
    27    24    28    1
    28    28    29    1
    29    28    30    1
    30    28     2    1
    31    18     3   ar
    32    27    24    1
    33    15     9   ar
    34     1    31    1
    35     1    32    1
    36     1    33    1
    37     4    34    1
    38     6    35    1
    39    10    36    1
    40    11    37    1
    41    14    38    1
    42    16    39    1
    43    17    40    1
    44    22    41    1
    45    22    42    1
    46    25    43    1
    47    25    44    1
    48    26    45    1
    49    26    46    1
    50    27    47    1
    51    27    48    1
