@<TRIPOS>MOLECULE
*****
 72 75 0 0 0
SMALL
GASTEIGER

@<TRIPOS>ATOM
      1 C          -7.0531    2.0274    4.2314 C.3     1  UNL1        0.0788
      2 O          -6.3556    2.3996    3.0793 O.3     1  UNL1       -0.4950
      3 C          -6.0153    1.4707    2.0989 C.ar    1  UNL1        0.1222
      4 C          -6.3551    0.1413    2.2264 C.ar    1  UNL1       -0.0164
      5 C          -6.0197   -0.7859    1.2566 C.ar    1  UNL1       -0.0145
      6 C          -5.3231   -0.4148    0.1084 C.ar    1  UNL1        0.1466
      7 O          -4.9970   -1.3614   -0.8521 O.3     1  UNL1       -0.4931
      8 C          -5.3801   -2.7051   -0.6547 C.3     1  UNL1        0.0789
      9 C          -4.9861    0.9151   -0.0130 C.ar    1  UNL1        0.1503
     10 S          -4.1000    1.4214   -1.4205 S.O2    1  UNL1        0.0645
     11 O          -4.9121    1.0988   -2.6637 O.2     1  UNL1       -0.1527
     12 O          -3.9446    2.9363   -1.4167 O.2     1  UNL1       -0.1527
     13 N          -2.5911    0.7239   -1.5783 N.3     1  UNL1       -0.1763
     14 C          -1.6166    0.9394   -0.5935 C.3     1  UNL1        0.0222
     15 C          -0.2412    0.6673   -1.2259 C.3     1  UNL1       -0.0198
     16 C          -0.1836   -0.8220   -1.4044 C.3     1  UNL1        0.0288
     17 N           1.0996   -1.3507   -1.7433 N.am    1  UNL1       -0.2936
     18 C           1.7623   -2.2348   -0.7709 C.3     1  UNL1        0.0400
     19 C           2.6000   -1.4910    0.1964 C.ar    1  UNL1       -0.0295
     20 C           2.0280   -1.0382    1.3660 C.ar    1  UNL1       -0.0565
     21 C           2.7482   -0.3375    2.3226 C.ar    1  UNL1       -0.0537
     22 C           4.0831   -0.0635    2.1373 C.ar    1  UNL1       -0.0178
     23 C           4.8185    0.6403    3.0908 C.ar    1  UNL1       -0.0532
     24 C           6.1561    0.9128    2.8996 C.ar    1  UNL1       -0.0463
     25 C           6.7459    0.4692    1.7386 C.ar    1  UNL1        0.0653
     26 C           8.1574    0.7549    1.5318 C.2     1  UNL1        0.3081
     27 N           8.6783    0.9166    0.3667 N.2     1  UNL1       -0.0994
     28 N           9.0214    0.8659    2.6644 N.pl3   1  UNL1       -0.2466
     29 C           6.0123   -0.2299    0.7931 C.ar    1  UNL1       -0.0392
     30 C           4.6734   -0.5102    0.9697 C.ar    1  UNL1       -0.0168
     31 C           3.9369   -1.2089    0.0258 C.ar    1  UNL1       -0.0493
     32 C           1.7514   -1.0636   -2.9414 C.2     1  UNL1        0.2268
     33 O           2.8995   -1.6357   -3.1163 O.2     1  UNL1       -0.2750
     34 C           1.3499   -0.2082   -4.0539 C.3     1  UNL1        0.1212
     35 C           2.0209    1.1175   -4.0451 C.2     1  UNL1        0.3136
     36 O           1.7317    1.9230   -4.9641 O.2     1  UNL1       -0.2505
     37 O           2.9310    1.5024   -3.0933 O.3     1  UNL1       -0.4803
     38 C          -1.3359   -1.2819   -2.2458 C.3     1  UNL1       -0.0198
     39 C          -2.3172   -0.1946   -2.5875 C.3     1  UNL1        0.0222
     40 C          -5.3227    1.8418    0.9579 C.ar    1  UNL1        0.0100
     41 H          -7.0393    2.8562    4.9588 H       1  UNL1        0.0660
     42 H          -6.5990    1.1395    4.7388 H       1  UNL1        0.0660
     43 H          -8.0888    1.7608    3.9150 H       1  UNL1        0.0660
     44 H          -6.9001   -0.1667    3.1184 H       1  UNL1        0.0655
     45 H          -6.2979   -1.8258    1.3793 H       1  UNL1        0.0656
     46 H          -5.2101   -3.2611   -1.6006 H       1  UNL1        0.0660
     47 H          -6.4692   -2.8001   -0.3974 H       1  UNL1        0.0660
     48 H          -4.7972   -3.1081    0.1827 H       1  UNL1        0.0660
     49 H          -1.6031    1.9513   -0.1514 H       1  UNL1        0.0444
     50 H          -1.6960    0.1566    0.2171 H       1  UNL1        0.0444
     51 H          -0.1516    1.2536   -2.1447 H       1  UNL1        0.0296
     52 H           0.4931    1.0596   -0.5044 H       1  UNL1        0.0296
     53 H          -0.4545   -1.2212   -0.3546 H       1  UNL1        0.0501
     54 H           2.3963   -2.9888   -1.2667 H       1  UNL1        0.0514
     55 H           0.9547   -2.8184   -0.2384 H       1  UNL1        0.0514
     56 H           0.9796   -1.2439    1.5368 H       1  UNL1        0.0621
     57 H           2.2941    0.0208    3.2493 H       1  UNL1        0.0624
     58 H           4.3519    0.9885    4.0042 H       1  UNL1        0.0624
     59 H           6.7607    1.4607    3.6244 H       1  UNL1        0.0626
     60 H           9.6716    1.1169    0.2317 H       1  UNL1        0.3633
     61 H           9.8708    0.2804    2.7426 H       1  UNL1        0.2884
     62 H           8.8286    1.5337    3.4445 H       1  UNL1        0.2884
     63 H           6.4717   -0.5807   -0.1195 H       1  UNL1        0.0632
     64 H           4.4324   -1.5439   -0.8695 H       1  UNL1        0.0627
     65 H           1.5426   -0.7357   -5.0414 H       1  UNL1        0.0473
     66 H           0.2690   -0.0435   -4.0444 H       1  UNL1        0.0473
     67 H           3.1335    2.4887   -2.8730 H       1  UNL1        0.2951
     68 H          -0.9992   -1.7648   -3.1681 H       1  UNL1        0.0296
     69 H          -1.9493   -2.0863   -1.7275 H       1  UNL1        0.0296
     70 H          -3.2770   -0.7050   -2.8813 H       1  UNL1        0.0444
     71 H          -2.0076    0.3706   -3.5170 H       1  UNL1        0.0444
     72 H          -5.0661    2.8915    0.8789 H       1  UNL1        0.0675
@<TRIPOS>BOND
     1     1     2    1
     2     2     3    1
     3     3     4   ar
     4     4     5   ar
     5     5     6   ar
     6     6     7    1
     7     7     8    1
     8     6     9   ar
     9     9    10    1
    10    10    11    2
    11    10    12    2
    12    10    13    1
    13    13    14    1
    14    14    15    1
    15    15    16    1
    16    16    17    1
    17    17    18    1
    18    18    19    1
    19    19    20   ar
    20    20    21   ar
    21    21    22   ar
    22    22    23   ar
    23    23    24   ar
    24    24    25   ar
    25    25    26    1
    26    26    27    2
    27    26    28    1
    28    25    29   ar
    29    29    30   ar
    30    30    31   ar
    31    17    32   am
    32    32    33    2
    33    32    34    1
    34    34    35    1
    35    35    36    2
    36    35    37    1
    37    16    38    1
    38    38    39    1
    39     9    40   ar
    40    40     3   ar
    41    39    13    1
    42    31    19   ar
    43    30    22   ar
    44     1    41    1
    45     1    42    1
    46     1    43    1
    47     4    44    1
    48     5    45    1
    49     8    46    1
    50     8    47    1
    51     8    48    1
    52    14    49    1
    53    14    50    1
    54    15    51    1
    55    15    52    1
    56    16    53    1
    57    18    54    1
    58    18    55    1
    59    20    56    1
    60    21    57    1
    61    23    58    1
    62    24    59    1
    63    27    60    1
    64    28    61    1
    65    28    62    1
    66    29    63    1
    67    31    64    1
    68    34    65    1
    69    34    66    1
    70    37    67    1
    71    38    68    1
    72    38    69    1
    73    39    70    1
    74    39    71    1
    75    40    72    1
