
     RDKit          3D

 72 75  0  0  0  0  0  0  0  0999 V2000
   -7.0531    2.0274    4.2314 C   0  0  0  0  0  0  0  0  0  0  0  0
   -6.3556    2.3996    3.0793 O   0  0  0  0  0  0  0  0  0  0  0  0
   -6.0153    1.4707    2.0989 C   0  0  0  0  0  0  0  0  0  0  0  0
   -6.3551    0.1413    2.2264 C   0  0  0  0  0  0  0  0  0  0  0  0
   -6.0197   -0.7859    1.2566 C   0  0  0  0  0  0  0  0  0  0  0  0
   -5.3231   -0.4148    0.1084 C   0  0  0  0  0  0  0  0  0  0  0  0
   -4.9970   -1.3614   -0.8521 O   0  0  0  0  0  0  0  0  0  0  0  0
   -5.3801   -2.7051   -0.6547 C   0  0  0  0  0  0  0  0  0  0  0  0
   -4.9861    0.9151   -0.0130 C   0  0  0  0  0  0  0  0  0  0  0  0
   -4.1000    1.4214   -1.4205 S   0  0  0  0  0  6  0  0  0  0  0  0
   -4.9121    1.0988   -2.6637 O   0  0  0  0  0  0  0  0  0  0  0  0
   -3.9446    2.9363   -1.4167 O   0  0  0  0  0  0  0  0  0  0  0  0
   -2.5911    0.7239   -1.5783 N   0  0  0  0  0  0  0  0  0  0  0  0
   -1.6166    0.9394   -0.5935 C   0  0  0  0  0  0  0  0  0  0  0  0
   -0.2412    0.6673   -1.2259 C   0  0  0  0  0  0  0  0  0  0  0  0
   -0.1836   -0.8220   -1.4044 C   0  0  0  0  0  0  0  0  0  0  0  0
    1.0996   -1.3507   -1.7433 N   0  0  0  0  0  0  0  0  0  0  0  0
    1.7623   -2.2348   -0.7709 C   0  0  0  0  0  0  0  0  0  0  0  0
    2.6000   -1.4910    0.1964 C   0  0  0  0  0  0  0  0  0  0  0  0
    2.0280   -1.0382    1.3660 C   0  0  0  0  0  0  0  0  0  0  0  0
    2.7482   -0.3375    2.3226 C   0  0  0  0  0  0  0  0  0  0  0  0
    4.0831   -0.0635    2.1373 C   0  0  0  0  0  0  0  0  0  0  0  0
    4.8185    0.6403    3.0908 C   0  0  0  0  0  0  0  0  0  0  0  0
    6.1561    0.9128    2.8996 C   0  0  0  0  0  0  0  0  0  0  0  0
    6.7459    0.4692    1.7386 C   0  0  0  0  0  0  0  0  0  0  0  0
    8.1574    0.7549    1.5318 C   0  0  0  0  0  0  0  0  0  0  0  0
    8.6783    0.9166    0.3667 N   0  0  0  0  0  0  0  0  0  0  0  0
    9.0214    0.8659    2.6644 N   0  0  0  0  0  0  0  0  0  0  0  0
    6.0123   -0.2299    0.7931 C   0  0  0  0  0  0  0  0  0  0  0  0
    4.6734   -0.5102    0.9697 C   0  0  0  0  0  0  0  0  0  0  0  0
    3.9369   -1.2089    0.0258 C   0  0  0  0  0  0  0  0  0  0  0  0
    1.7514   -1.0636   -2.9414 C   0  0  0  0  0  0  0  0  0  0  0  0
    2.8995   -1.6357   -3.1163 O   0  0  0  0  0  0  0  0  0  0  0  0
    1.3499   -0.2082   -4.0539 C   0  0  0  0  0  0  0  0  0  0  0  0
    2.0209    1.1175   -4.0451 C   0  0  0  0  0  0  0  0  0  0  0  0
    1.7317    1.9230   -4.9641 O   0  0  0  0  0  0  0  0  0  0  0  0
    2.9310    1.5024   -3.0933 O   0  0  0  0  0  0  0  0  0  0  0  0
   -1.3359   -1.2819   -2.2458 C   0  0  0  0  0  0  0  0  0  0  0  0
   -2.3172   -0.1946   -2.5875 C   0  0  0  0  0  0  0  0  0  0  0  0
   -5.3227    1.8418    0.9579 C   0  0  0  0  0  0  0  0  0  0  0  0
   -7.0393    2.8562    4.9588 H   0  0  0  0  0  0  0  0  0  0  0  0
   -6.5990    1.1395    4.7388 H   0  0  0  0  0  0  0  0  0  0  0  0
   -8.0888    1.7608    3.9150 H   0  0  0  0  0  0  0  0  0  0  0  0
   -6.9001   -0.1667    3.1184 H   0  0  0  0  0  0  0  0  0  0  0  0
   -6.2979   -1.8258    1.3793 H   0  0  0  0  0  0  0  0  0  0  0  0
   -5.2101   -3.2611   -1.6006 H   0  0  0  0  0  0  0  0  0  0  0  0
   -6.4692   -2.8001   -0.3974 H   0  0  0  0  0  0  0  0  0  0  0  0
   -4.7972   -3.1081    0.1827 H   0  0  0  0  0  0  0  0  0  0  0  0
   -1.6031    1.9513   -0.1514 H   0  0  0  0  0  0  0  0  0  0  0  0
   -1.6960    0.1566    0.2171 H   0  0  0  0  0  0  0  0  0  0  0  0
   -0.1516    1.2536   -2.1447 H   0  0  0  0  0  0  0  0  0  0  0  0
    0.4931    1.0596   -0.5044 H   0  0  0  0  0  0  0  0  0  0  0  0
   -0.4545   -1.2212   -0.3546 H   0  0  0  0  0  0  0  0  0  0  0  0
    2.3963   -2.9888   -1.2667 H   0  0  0  0  0  0  0  0  0  0  0  0
    0.9547   -2.8184   -0.2384 H   0  0  0  0  0  0  0  0  0  0  0  0
    0.9796   -1.2439    1.5368 H   0  0  0  0  0  0  0  0  0  0  0  0
    2.2941    0.0208    3.2493 H   0  0  0  0  0  0  0  0  0  0  0  0
    4.3519    0.9885    4.0042 H   0  0  0  0  0  0  0  0  0  0  0  0
    6.7607    1.4607    3.6244 H   0  0  0  0  0  0  0  0  0  0  0  0
    9.6716    1.1169    0.2317 H   0  0  0  0  0  0  0  0  0  0  0  0
    9.8708    0.2804    2.7426 H   0  0  0  0  0  0  0  0  0  0  0  0
    8.8286    1.5337    3.4445 H   0  0  0  0  0  0  0  0  0  0  0  0
    6.4717   -0.5807   -0.1195 H   0  0  0  0  0  0  0  0  0  0  0  0
    4.4324   -1.5439   -0.8695 H   0  0  0  0  0  0  0  0  0  0  0  0
    1.5426   -0.7357   -5.0414 H   0  0  0  0  0  0  0  0  0  0  0  0
    0.2690   -0.0435   -4.0444 H   0  0  0  0  0  0  0  0  0  0  0  0
    3.1335    2.4887   -2.8730 H   0  0  0  0  0  0  0  0  0  0  0  0
   -0.9992   -1.7648   -3.1681 H   0  0  0  0  0  0  0  0  0  0  0  0
   -1.9493   -2.0863   -1.7275 H   0  0  0  0  0  0  0  0  0  0  0  0
   -3.2770   -0.7050   -2.8813 H   0  0  0  0  0  0  0  0  0  0  0  0
   -2.0076    0.3706   -3.5170 H   0  0  0  0  0  0  0  0  0  0  0  0
   -5.0661    2.8915    0.8789 H   0  0  0  0  0  0  0  0  0  0  0  0
  1  2  1  0
  2  3  1  0
  3  4  2  0
  4  5  1  0
  5  6  2  0
  6  7  1  0
  7  8  1  0
  6  9  1  0
  9 10  1  0
 10 11  2  0
 10 12  2  0
 10 13  1  0
 13 14  1  0
 14 15  1  0
 15 16  1  0
 16 17  1  0
 17 18  1  0
 18 19  1  0
 19 20  2  0
 20 21  1  0
 21 22  2  0
 22 23  1  0
 23 24  2  0
 24 25  1  0
 25 26  1  0
 26 27  2  3
 26 28  1  0
 25 29  2  0
 29 30  1  0
 30 31  2  0
 17 32  1  0
 32 33  2  0
 32 34  1  0
 34 35  1  0
 35 36  2  0
 35 37  1  0
 16 38  1  0
 38 39  1  0
  9 40  2  0
 40  3  1  0
 39 13  1  0
 31 19  1  0
 30 22  1  0
  1 41  1  0
  1 42  1  0
  1 43  1  0
  4 44  1  0
  5 45  1  0
  8 46  1  0
  8 47  1  0
  8 48  1  0
 14 49  1  0
 14 50  1  0
 15 51  1  0
 15 52  1  0
 16 53  1  0
 18 54  1  0
 18 55  1  0
 20 56  1  0
 21 57  1  0
 23 58  1  0
 24 59  1  0
 27 60  1  0
 28 61  1  0
 28 62  1  0
 29 63  1  0
 31 64  1  0
 34 65  1  0
 34 66  1  0
 37 67  1  0
 38 68  1  0
 38 69  1  0
 39 70  1  0
 39 71  1  0
 40 72  1  0
M  END
$$$$
