@<TRIPOS>MOLECULE
*****
 50 51 0 0 0
SMALL
GASTEIGER

@<TRIPOS>ATOM
      1 C          -3.3921   -0.3118    0.1233 C.3     1  UNL1        0.1762
      2 O          -3.5656   -0.4093    1.5047 O.3     1  UNL1       -0.3656
      3 O          -2.7538    0.8634   -0.1973 O.3     1  UNL1       -0.3416
      4 C          -1.4063    0.9087    0.0805 C.3     1  UNL1        0.1158
      5 C          -0.9405    2.2774   -0.3775 C.3     1  UNL1        0.1035
      6 O          -1.6016    3.3017    0.2867 O.3     1  UNL1       -0.2520
      7 S          -1.0690    4.8117   -0.2342 S.3     1  UNL1       -0.0008
      8 O          -0.2113    5.4871    1.0491 O.co2   1  UNL1       -0.2682
      9 O          -0.1837    4.6821   -1.4266 O.2     1  UNL1       -0.3452
     10 O          -2.1862    5.7306   -0.5702 O.2     1  UNL1       -0.3452
     11 C          -0.6215   -0.1193   -0.6604 C.3     1  UNL1        0.1186
     12 O           0.4052   -0.5628    0.1874 O.3     1  UNL1       -0.3309
     13 C           1.6624   -0.3122   -0.3283 C.3     1  UNL1        0.2336
     14 O           2.3542   -1.5226   -0.6363 O.2     1  UNL1       -0.4592
     15 C           3.2265   -2.0845    0.2842 C.2     1  UNL1        0.1448
     16 C           3.6183   -1.4660    1.3869 C.2     1  UNL1       -0.0095
     17 C           3.1314   -0.0985    1.7073 C.3     1  UNL1        0.1113
     18 O           2.2453   -0.1905    2.7778 O.3     1  UNL1       -0.3848
     19 C           2.5023    0.5929    0.5205 C.3     1  UNL1        0.1768
     20 O           3.4605    1.1870   -0.3040 O.3     1  UNL1       -0.2421
     21 S           3.3289    2.8416   -0.4010 S.3     1  UNL1       -0.0003
     22 O           2.5549    3.5432    0.8905 O.co2   1  UNL1       -0.2682
     23 O           2.5210    3.1830   -1.6433 O.2     1  UNL1       -0.3452
     24 O           4.7037    3.4013   -0.6495 O.2     1  UNL1       -0.3452
     25 C           3.7265   -3.4265    0.0046 C.2     1  UNL1        0.1062
     26 O           3.3984   -4.1825   -1.1074 O.co2   1  UNL1       -0.5416
     27 O           4.5276   -4.0149    0.7926 O.co2   1  UNL1       -0.5416
     28 C          -1.4488   -1.2676   -1.1643 C.3     1  UNL1        0.1055
     29 O          -1.7022   -1.1607   -2.5323 O.3     1  UNL1       -0.3874
     30 C          -2.6949   -1.5407   -0.3782 C.3     1  UNL1        0.1065
     31 N          -2.4724   -2.4951    0.6944 N.3     1  UNL1       -0.1934
     32 S          -3.3849   -3.9362    0.3305 S.3     1  UNL1       -0.0163
     33 O          -2.8591   -4.6251   -1.1075 O.co2   1  UNL1       -0.7104
     34 O          -3.3678   -4.8877    1.4793 O.2     1  UNL1       -0.1690
     35 O          -4.8294   -3.5272    0.0745 O.2     1  UNL1       -0.1690
     36 H          -4.4287   -0.2124   -0.2947 H       1  UNL1        0.0925
     37 H          -4.4618   -0.0658    1.8065 H       1  UNL1        0.2125
     38 H          -1.2033    0.8658    1.1719 H       1  UNL1        0.0648
     39 H          -1.2993    2.3474   -1.4453 H       1  UNL1        0.0610
     40 H           0.1415    2.3768   -0.4314 H       1  UNL1        0.0610
     41 H          -0.1143    0.3258   -1.5417 H       1  UNL1        0.0651
     42 H           1.5443    0.1948   -1.3177 H       1  UNL1        0.1085
     43 H           4.2920   -1.9368    2.0687 H       1  UNL1        0.0635
     44 H           4.0087    0.4600    2.0658 H       1  UNL1        0.0668
     45 H           1.4010    0.2728    2.5691 H       1  UNL1        0.2103
     46 H           1.8558    1.3954    0.9312 H       1  UNL1        0.0712
     47 H          -0.8151   -2.1875   -1.0462 H       1  UNL1        0.0638
     48 H          -1.3963   -0.2767   -2.8279 H       1  UNL1        0.2100
     49 H          -3.3832   -2.0503   -1.0876 H       1  UNL1        0.0554
     50 H          -2.8170   -2.1791    1.6198 H       1  UNL1        0.1473
@<TRIPOS>UNITY_ATOM_ATTR
8 1
charge -1
22 1
charge -1
26 1
charge -1
33 1
charge -1
@<TRIPOS>BOND
     1     1     2    1
     2     1     3    1
     3     3     4    1
     4     4     5    1
     5     5     6    1
     6     6     7    1
     7     7     8    1
     8     7     9    2
     9     7    10    2
    10     4    11    1
    11    11    12    1
    12    12    13    1
    13    13    14    1
    14    14    15    1
    15    15    16    2
    16    16    17    1
    17    17    18    1
    18    17    19    1
    19    19    20    1
    20    20    21    1
    21    21    22    1
    22    21    23    2
    23    21    24    2
    24    15    25    1
    25    25    26   ar
    26    25    27   ar
    27    11    28    1
    28    28    29    1
    29    28    30    1
    30    30    31    1
    31    31    32    1
    32    32    33    1
    33    32    34    2
    34    32    35    2
    35    30     1    1
    36    19    13    1
    37     1    36    1
    38     2    37    1
    39     4    38    1
    40     5    39    1
    41     5    40    1
    42    11    41    1
    43    13    42    1
    44    16    43    1
    45    17    44    1
    46    18    45    1
    47    19    46    1
    48    28    47    1
    49    29    48    1
    50    30    49    1
    51    31    50    1
