@<TRIPOS>MOLECULE
*****
 68 73 0 0 0
SMALL
GASTEIGER

@<TRIPOS>ATOM
      1 C          -8.2540   -0.0060    2.0605 C.3     1  UNL1        0.0032
      2 N          -7.0547   -0.5451    1.4604 N.am    1  UNL1       -0.3024
      3 C          -7.1724   -1.6920    0.5965 C.3     1  UNL1        0.0032
      4 C          -5.7654   -0.0008    1.6836 C.2     1  UNL1        0.2627
      5 O          -5.6709    0.9923    2.4416 O.2     1  UNL1       -0.2684
      6 C          -4.5569   -0.5331    1.0837 C.ar    1  UNL1        0.1070
      7 C          -3.8667   -1.6922    1.4701 C.ar    1  UNL1       -0.0209
      8 C          -2.7924   -1.8008    0.6159 C.ar    1  UNL1        0.0378
      9 C          -1.7734   -2.7470    0.5229 C.ar    1  UNL1        0.0419
     10 N          -0.8663   -2.5744   -0.4305 N.ar    1  UNL1       -0.2219
     11 C          -0.8766   -1.5524   -1.2959 C.ar    1  UNL1        0.2224
     12 N           0.1436   -1.4896   -2.2733 N.pl3   1  UNL1       -0.2684
     13 C           1.4618   -1.1862   -1.8712 C.ar    1  UNL1        0.1251
     14 C           2.4665   -1.1012   -2.7960 C.ar    1  UNL1       -0.0197
     15 C           3.7736   -0.8262   -2.3834 C.ar    1  UNL1       -0.0355
     16 C           4.0888   -0.6355   -1.0693 C.ar    1  UNL1        0.0545
     17 N           5.3614   -0.3337   -0.5444 N.am    1  UNL1       -0.2697
     18 C           5.5639   -0.3618    0.8834 C.3     1  UNL1        0.0241
     19 C           6.9944   -0.6378    1.2927 C.3     1  UNL1       -0.0079
     20 C           7.2511    0.2180    2.5278 C.3     1  UNL1        0.0005
     21 N           7.9011    1.4176    2.0791 N.3     1  UNL1       -0.3154
     22 C           7.9510    1.3786    0.6276 C.3     1  UNL1       -0.0005
     23 C           8.0266   -0.0921    0.3607 C.3     1  UNL1       -0.0148
     24 C           7.8340   -0.4690   -1.0844 C.3     1  UNL1        0.0288
     25 C           6.4320   -0.0343   -1.4323 C.2     1  UNL1        0.2201
     26 O           6.2552    0.5790   -2.4974 O.2     1  UNL1       -0.2752
     27 C           3.0226   -0.7328   -0.1678 C.ar    1  UNL1        0.0511
     28 N           1.7554   -1.0011   -0.5790 N.ar    1  UNL1       -0.2383
     29 N          -1.8559   -0.6442   -1.2068 N.ar    1  UNL1       -0.1962
     30 C          -2.8137   -0.7462   -0.2697 C.ar    1  UNL1        0.1466
     31 N          -3.9128    0.0169    0.0428 N.ar    1  UNL1       -0.3180
     32 C          -4.2316    1.1835   -0.6997 C.3     1  UNL1        0.0366
     33 C          -3.8252    2.4875   -0.1036 C.3     1  UNL1       -0.0320
     34 C          -4.4957    3.4751   -1.0597 C.3     1  UNL1       -0.0511
     35 C          -5.5973    2.7310   -1.7642 C.3     1  UNL1       -0.0511
     36 C          -5.6914    1.4024   -0.9951 C.3     1  UNL1       -0.0320
     37 H          -8.8272   -0.8055    2.5775 H       1  UNL1        0.0428
     38 H          -8.8739    0.3853    1.2237 H       1  UNL1        0.0428
     39 H          -8.0271    0.8480    2.7224 H       1  UNL1        0.0428
     40 H          -6.4139   -1.6815   -0.2253 H       1  UNL1        0.0428
     41 H          -8.1527   -1.7951    0.1291 H       1  UNL1        0.0428
     42 H          -6.9820   -2.6355    1.1618 H       1  UNL1        0.0428
     43 H          -4.1286   -2.3472    2.2636 H       1  UNL1        0.0647
     44 H          -1.8006   -3.5447    1.2326 H       1  UNL1        0.0838
     45 H          -0.0833   -1.6671   -3.2870 H       1  UNL1        0.1564
     46 H           2.2889   -1.2387   -3.8678 H       1  UNL1        0.0652
     47 H           4.5660   -0.7672   -3.1217 H       1  UNL1        0.0638
     48 H           5.1690    0.5815    1.3044 H       1  UNL1        0.0472
     49 H           4.9720   -1.1893    1.3819 H       1  UNL1        0.0472
     50 H           7.1554   -1.7206    1.5225 H       1  UNL1        0.0332
     51 H           6.2940    0.3951    3.0576 H       1  UNL1        0.0427
     52 H           7.9011   -0.4026    3.1938 H       1  UNL1        0.0427
     53 H           8.9091    1.3538    2.4093 H       1  UNL1        0.1220
     54 H           6.9460    1.7237    0.2837 H       1  UNL1        0.0427
     55 H           8.7721    1.9566    0.2115 H       1  UNL1        0.0427
     56 H           9.0074   -0.5024    0.6720 H       1  UNL1        0.0321
     57 H           8.5788    0.0667   -1.6756 H       1  UNL1        0.0362
     58 H           7.8672   -1.5489   -1.1696 H       1  UNL1        0.0362
     59 H           3.1534   -0.5961    0.8880 H       1  UNL1        0.0849
     60 H          -3.7431    1.1562   -1.7240 H       1  UNL1        0.0528
     61 H          -2.7169    2.6489   -0.1076 H       1  UNL1        0.0285
     62 H          -4.1574    2.6734    0.9170 H       1  UNL1        0.0285
     63 H          -3.7259    3.7918   -1.8060 H       1  UNL1        0.0266
     64 H          -4.8435    4.3688   -0.5389 H       1  UNL1        0.0266
     65 H          -6.5880    3.2562   -1.6882 H       1  UNL1        0.0266
     66 H          -5.3276    2.4948   -2.7922 H       1  UNL1        0.0266
     67 H          -6.3196    1.6253   -0.1360 H       1  UNL1        0.0285
     68 H          -6.0791    0.6693   -1.6978 H       1  UNL1        0.0285
@<TRIPOS>BOND
     1     1     2    1
     2     2     3    1
     3     2     4   am
     4     4     5    2
     5     4     6    1
     6     6     7   ar
     7     7     8   ar
     8     8     9   ar
     9     9    10   ar
    10    10    11   ar
    11    11    12    1
    12    12    13    1
    13    13    14   ar
    14    14    15   ar
    15    15    16   ar
    16    16    17    1
    17    17    18    1
    18    18    19    1
    19    19    20    1
    20    20    21    1
    21    21    22    1
    22    22    23    1
    23    23    24    1
    24    24    25    1
    25    25    26    2
    26    16    27   ar
    27    27    28   ar
    28    11    29   ar
    29    29    30   ar
    30    30    31   ar
    31    31    32    1
    32    32    33    1
    33    33    34    1
    34    34    35    1
    35    35    36    1
    36    31     6   ar
    37    36    32    1
    38    30     8   ar
    39    28    13   ar
    40    25    17   am
    41    23    19    1
    42     1    37    1
    43     1    38    1
    44     1    39    1
    45     3    40    1
    46     3    41    1
    47     3    42    1
    48     7    43    1
    49     9    44    1
    50    12    45    1
    51    14    46    1
    52    15    47    1
    53    18    48    1
    54    18    49    1
    55    19    50    1
    56    20    51    1
    57    20    52    1
    58    21    53    1
    59    22    54    1
    60    22    55    1
    61    23    56    1
    62    24    57    1
    63    24    58    1
    64    27    59    1
    65    32    60    1
    66    33    61    1
    67    33    62    1
    68    34    63    1
    69    34    64    1
    70    35    65    1
    71    35    66    1
    72    36    67    1
    73    36    68    1
