@<TRIPOS>MOLECULE
*****
 70 74 0 0 0
SMALL
GASTEIGER

@<TRIPOS>ATOM
      1 C          -8.1299    2.5648   -2.4621 C.3     1  UNL1        0.0805
      2 O          -7.8169    2.2031   -1.2623 O.3     1  UNL1       -0.4774
      3 C          -7.9159    1.9552   -0.0051 C.ar    1  UNL1        0.2552
      4 N          -9.0453    2.1269    0.7778 N.ar    1  UNL1       -0.1317
      5 N          -8.8186    1.7834    2.0028 N.ar    1  UNL1       -0.2692
      6 C          -9.7791    1.8304    3.1091 C.3     1  UNL1        0.0304
      7 C          -7.5429    1.3717    2.0938 C.ar    1  UNL1        0.0503
      8 C          -6.9312    1.4558    0.8791 C.ar    1  UNL1        0.1152
      9 N          -5.6243    1.1547    0.4610 N.pl3   1  UNL1       -0.2782
     10 C          -4.6347    0.6091    1.3501 C.ar    1  UNL1        0.2202
     11 N          -4.9251    0.3174    2.6260 N.ar    1  UNL1       -0.2224
     12 C          -4.0261   -0.1942    3.4753 C.ar    1  UNL1        0.0361
     13 C          -2.7082   -0.4510    3.0552 C.ar    1  UNL1       -0.0062
     14 C          -1.7431   -1.0086    4.0487 C.3     1  UNL1       -0.0362
     15 C          -2.4073   -0.1561    1.7572 C.ar    1  UNL1        0.0809
     16 C          -1.1017   -0.3449    1.1813 C.ar    1  UNL1        0.0258
     17 C           0.0221   -0.9271    1.6694 C.ar    1  UNL1        0.0120
     18 N           1.0361   -0.9123    0.7659 N.ar    1  UNL1       -0.3586
     19 C           0.5657   -0.3053   -0.3492 C.ar    1  UNL1        0.0686
     20 C           1.2606   -0.0570   -1.5426 C.ar    1  UNL1        0.0576
     21 N           2.6058   -0.4825   -1.6627 N.am    1  UNL1       -0.2825
     22 C           3.4802   -0.2154   -2.7228 C.2     1  UNL1        0.2342
     23 O           3.0757    0.4670   -3.6899 O.2     1  UNL1       -0.2738
     24 C           4.9064   -0.7208   -2.7471 C.3     1  UNL1        0.0848
     25 C           5.7742    0.5173   -2.9526 C.3     1  UNL1       -0.0409
     26 N           5.3229   -1.4046   -1.5975 N.3     1  UNL1       -0.2893
     27 C           5.3761   -0.7219   -0.3615 C.3     1  UNL1        0.0124
     28 C           6.8261   -0.4629    0.0134 C.3     1  UNL1        0.0114
     29 N           7.4802   -1.7353    0.0505 N.3     1  UNL1       -0.3029
     30 C           8.7621   -1.7452    0.6868 C.3     1  UNL1       -0.0127
     31 C           7.5553   -2.2541   -1.2976 C.3     1  UNL1        0.0114
     32 C           6.1416   -2.5553   -1.7528 C.3     1  UNL1        0.0124
     33 C           0.5399    0.5867   -2.5151 C.ar    1  UNL1       -0.0384
     34 C          -0.7908    0.9579   -2.3066 C.ar    1  UNL1       -0.0593
     35 C          -1.4195    0.6972   -1.1366 C.ar    1  UNL1       -0.0518
     36 C          -0.7384    0.0492   -0.1181 C.ar    1  UNL1        0.0107
     37 N          -3.3940    0.3653    0.9570 N.ar    1  UNL1       -0.2139
     38 H          -7.3495    3.2903   -2.8921 H       1  UNL1        0.0660
     39 H          -9.0732    3.1989   -2.5682 H       1  UNL1        0.0660
     40 H          -8.2054    1.7428   -3.2482 H       1  UNL1        0.0660
     41 H          -9.8901    0.8046    3.5460 H       1  UNL1        0.0473
     42 H         -10.7578    2.1463    2.7119 H       1  UNL1        0.0473
     43 H          -9.4632    2.5786    3.8638 H       1  UNL1        0.0473
     44 H          -7.0845    1.0256    3.0141 H       1  UNL1        0.0846
     45 H          -5.3430    1.3212   -0.5219 H       1  UNL1        0.1552
     46 H          -4.2663   -0.4312    4.5048 H       1  UNL1        0.0834
     47 H          -1.4343   -2.0455    3.8432 H       1  UNL1        0.0279
     48 H          -2.3090   -1.1144    5.0317 H       1  UNL1        0.0279
     49 H          -0.8868   -0.3576    4.1927 H       1  UNL1        0.0279
     50 H           0.1939   -1.3827    2.6243 H       1  UNL1        0.0814
     51 H           1.9909   -1.2917    0.8968 H       1  UNL1        0.1654
     52 H           2.9769   -1.0765   -0.8543 H       1  UNL1        0.1549
     53 H           5.0622   -1.3566   -3.6497 H       1  UNL1        0.0556
     54 H           5.7052    1.2070   -2.0882 H       1  UNL1        0.0249
     55 H           6.8364    0.2542   -3.0909 H       1  UNL1        0.0249
     56 H           5.4823    1.0427   -3.9029 H       1  UNL1        0.0249
     57 H           4.9070   -1.2701    0.4838 H       1  UNL1        0.0439
     58 H           4.8906    0.2681   -0.4619 H       1  UNL1        0.0439
     59 H           6.8015   -0.0061    1.0235 H       1  UNL1        0.0439
     60 H           7.3031    0.2037   -0.7033 H       1  UNL1        0.0439
     61 H           9.5940   -1.8719   -0.0391 H       1  UNL1        0.0391
     62 H           8.9450   -0.8984    1.3654 H       1  UNL1        0.0391
     63 H           8.7896   -2.6768    1.3255 H       1  UNL1        0.0391
     64 H           8.2004   -3.1744   -1.3018 H       1  UNL1        0.0439
     65 H           7.9813   -1.4817   -1.9691 H       1  UNL1        0.0439
     66 H           5.7620   -3.4603   -1.2434 H       1  UNL1        0.0439
     67 H           6.1824   -2.8036   -2.8375 H       1  UNL1        0.0439
     68 H           0.9981    0.8101   -3.4631 H       1  UNL1        0.0637
     69 H          -1.3165    1.4628   -3.1065 H       1  UNL1        0.0618
     70 H          -2.4615    0.9838   -0.9634 H       1  UNL1        0.0624
@<TRIPOS>BOND
     1     1     2    1
     2     2     3    1
     3     3     4   ar
     4     4     5   ar
     5     5     6    1
     6     5     7   ar
     7     7     8   ar
     8     8     9    1
     9     9    10    1
    10    10    11   ar
    11    11    12   ar
    12    12    13   ar
    13    13    14    1
    14    13    15   ar
    15    15    16    1
    16    16    17   ar
    17    17    18   ar
    18    18    19   ar
    19    19    20   ar
    20    20    21    1
    21    21    22   am
    22    22    23    2
    23    22    24    1
    24    24    25    1
    25    24    26    1
    26    26    27    1
    27    27    28    1
    28    28    29    1
    29    29    30    1
    30    29    31    1
    31    31    32    1
    32    20    33   ar
    33    33    34   ar
    34    34    35   ar
    35    35    36   ar
    36    15    37   ar
    37     8     3   ar
    38    37    10   ar
    39    36    16   ar
    40    36    19   ar
    41    32    26    1
    42     1    38    1
    43     1    39    1
    44     1    40    1
    45     6    41    1
    46     6    42    1
    47     6    43    1
    48     7    44    1
    49     9    45    1
    50    12    46    1
    51    14    47    1
    52    14    48    1
    53    14    49    1
    54    17    50    1
    55    18    51    1
    56    21    52    1
    57    24    53    1
    58    25    54    1
    59    25    55    1
    60    25    56    1
    61    27    57    1
    62    27    58    1
    63    28    59    1
    64    28    60    1
    65    30    61    1
    66    30    62    1
    67    30    63    1
    68    31    64    1
    69    31    65    1
    70    32    66    1
    71    32    67    1
    72    33    68    1
    73    34    69    1
    74    35    70    1
