
     RDKit          3D

 53 58  0  0  0  0  0  0  0  0999 V2000
   -3.7540   -0.0110    3.1900 C   0  0  0  0  0  0  0  0  0  0  0  0
   -4.2748   -0.5525    1.9873 O   0  0  0  0  0  0  0  0  0  0  0  0
   -3.4918   -0.7731    0.8710 C   0  0  0  0  0  0  0  0  0  0  0  0
   -2.1347   -0.4905    0.8232 C   0  0  0  0  0  0  0  0  0  0  0  0
   -1.3630   -0.7141   -0.2930 C   0  0  0  0  0  0  0  0  0  0  0  0
    0.0324   -0.4454   -0.3623 N   0  0  0  0  0  0  0  0  0  0  0  0
    0.9940   -1.4429   -0.0194 C   0  0  0  0  0  0  0  0  0  0  0  0
    0.7787   -2.6290    0.3361 O   0  0  0  0  0  0  0  0  0  0  0  0
    2.2931   -0.8121   -0.1639 C   0  0  0  0  0  0  0  0  0  0  0  0
    3.6573   -0.9801   -0.0465 C   0  0  0  0  0  0  0  0  0  0  0  0
    4.3860   -2.1828    0.3696 C   0  0  0  0  0  0  0  0  0  0  0  0
    5.0062   -2.3593    1.6965 C   0  0  0  0  0  0  0  0  0  0  0  0
    3.8683   -3.2207    1.2608 C   0  0  0  0  0  0  0  0  0  0  0  0
    4.2554    0.2100   -0.3847 N   0  0  0  0  0  0  0  0  0  0  0  0
    3.3573    1.0899   -0.6995 N   0  0  0  0  0  0  0  0  0  0  0  0
    3.6338    2.4332   -1.0957 C   0  0  0  0  0  0  0  0  0  0  0  0
    2.1345    0.4928   -0.5756 C   0  0  0  0  0  0  0  0  0  0  0  0
    0.6892    0.7475   -0.7521 C   0  0  0  0  0  0  0  0  0  0  0  0
    0.2527    1.9820   -0.0630 C   0  0  0  0  0  0  0  0  0  0  0  0
   -0.0466    3.0887   -0.8677 C   0  0  0  0  0  0  0  0  0  0  0  0
   -0.4484    4.2858   -0.3335 C   0  0  0  0  0  0  0  0  0  0  0  0
   -0.5647    4.4173    1.0350 C   0  0  0  0  0  0  0  0  0  0  0  0
   -1.0813    5.9639    1.7295 Cl  0  0  0  0  0  0  0  0  0  0  0  0
   -0.2675    3.3208    1.8197 C   0  0  0  0  0  0  0  0  0  0  0  0
    0.1349    2.1192    1.2965 C   0  0  0  0  0  0  0  0  0  0  0  0
   -1.9874   -1.2514   -1.4233 C   0  0  0  0  0  0  0  0  0  0  0  0
   -3.3109   -1.5237   -1.3668 N   0  0  0  0  0  0  0  0  0  0  0  0
   -4.0748   -2.0458   -2.3622 C   0  0  0  0  0  0  0  0  0  0  0  0
   -3.6391   -2.4353   -3.7144 C   0  0  0  0  0  0  0  0  0  0  0  0
   -5.3103   -2.1407   -1.8556 N   0  0  0  0  0  0  0  0  0  0  0  0
   -5.3126   -1.6928   -0.5903 N   0  0  0  0  0  0  0  0  0  0  0  0
   -4.0537   -1.3002   -0.2698 C   0  0  0  0  0  0  0  0  0  0  0  0
   -2.7191   -0.3855    3.3780 H   0  0  0  0  0  0  0  0  0  0  0  0
   -4.3301   -0.3962    4.0831 H   0  0  0  0  0  0  0  0  0  0  0  0
   -3.8511    1.0741    3.1910 H   0  0  0  0  0  0  0  0  0  0  0  0
   -1.6461   -0.0792    1.6957 H   0  0  0  0  0  0  0  0  0  0  0  0
    5.0173   -2.6017   -0.4793 H   0  0  0  0  0  0  0  0  0  0  0  0
    6.0234   -2.8414    1.7641 H   0  0  0  0  0  0  0  0  0  0  0  0
    4.8802   -1.5655    2.4472 H   0  0  0  0  0  0  0  0  0  0  0  0
    2.9103   -3.1795    1.8048 H   0  0  0  0  0  0  0  0  0  0  0  0
    4.1458   -4.3040    1.0722 H   0  0  0  0  0  0  0  0  0  0  0  0
    2.8359    3.1589   -0.9515 H   0  0  0  0  0  0  0  0  0  0  0  0
    4.5097    2.8441   -0.5046 H   0  0  0  0  0  0  0  0  0  0  0  0
    4.0011    2.4652   -2.1470 H   0  0  0  0  0  0  0  0  0  0  0  0
    0.4787    0.8683   -1.8601 H   0  0  0  0  0  0  0  0  0  0  0  0
    0.0378    3.0096   -1.9532 H   0  0  0  0  0  0  0  0  0  0  0  0
   -0.6786    5.1406   -0.9527 H   0  0  0  0  0  0  0  0  0  0  0  0
   -0.3642    3.4401    2.9040 H   0  0  0  0  0  0  0  0  0  0  0  0
    0.3561    1.2926    1.9370 H   0  0  0  0  0  0  0  0  0  0  0  0
   -1.3976   -1.4345   -2.3181 H   0  0  0  0  0  0  0  0  0  0  0  0
   -4.4301   -2.2553   -4.4570 H   0  0  0  0  0  0  0  0  0  0  0  0
   -2.7394   -1.8642   -4.0391 H   0  0  0  0  0  0  0  0  0  0  0  0
   -3.3982   -3.5340   -3.7900 H   0  0  0  0  0  0  0  0  0  0  0  0
  1  2  1  0
  2  3  1  0
  3  4  2  0
  4  5  1  0
  5  6  1  0
  6  7  1  0
  7  8  2  0
  7  9  1  0
  9 10  1  0
 10 11  1  0
 11 12  1  0
 12 13  1  0
 10 14  2  0
 14 15  1  0
 15 16  1  0
 15 17  1  0
 17 18  1  0
 18 19  1  0
 19 20  2  0
 20 21  1  0
 21 22  2  0
 22 23  1  0
 22 24  1  0
 24 25  2  0
  5 26  2  0
 26 27  1  0
 27 28  1  0
 28 29  1  0
 28 30  2  0
 30 31  1  0
 31 32  2  0
 32  3  1  0
 18  6  1  0
 25 19  1  0
 32 27  1  0
 17  9  2  0
 13 11  1  0
  1 33  1  0
  1 34  1  0
  1 35  1  0
  4 36  1  0
 11 37  1  0
 12 38  1  0
 12 39  1  0
 13 40  1  0
 13 41  1  0
 16 42  1  0
 16 43  1  0
 16 44  1  0
 18 45  1  0
 20 46  1  0
 21 47  1  0
 24 48  1  0
 25 49  1  0
 26 50  1  0
 29 51  1  0
 29 52  1  0
 29 53  1  0
M  END
$$$$
