@<TRIPOS>MOLECULE
*****
 53 58 0 0 0
SMALL
GASTEIGER

@<TRIPOS>ATOM
      1 C          -3.7540   -0.0110    3.1900 C.3     1  UNL1        0.0790
      2 O          -4.2748   -0.5525    1.9873 O.3     1  UNL1       -0.4913
      3 C          -3.4918   -0.7731    0.8710 C.ar    1  UNL1        0.1663
      4 C          -2.1347   -0.4905    0.8232 C.ar    1  UNL1        0.0067
      5 C          -1.3630   -0.7141   -0.2930 C.ar    1  UNL1        0.0577
      6 N           0.0324   -0.4454   -0.3623 N.am    1  UNL1       -0.2528
      7 C           0.9940   -1.4429   -0.0194 C.2     1  UNL1        0.2553
      8 O           0.7787   -2.6290    0.3361 O.2     1  UNL1       -0.2695
      9 C           2.2931   -0.8121   -0.1639 C.ar    1  UNL1        0.0834
     10 C           3.6573   -0.9801   -0.0465 C.ar    1  UNL1        0.0785
     11 C           4.3860   -2.1828    0.3696 C.3     1  UNL1        0.0039
     12 C           5.0062   -2.3593    1.6965 C.3     1  UNL1       -0.0441
     13 C           3.8683   -3.2207    1.2608 C.3     1  UNL1       -0.0441
     14 N           4.2554    0.2100   -0.3847 N.ar    1  UNL1       -0.1751
     15 N           3.3573    1.0899   -0.6995 N.ar    1  UNL1       -0.2682
     16 C           3.6338    2.4332   -1.0957 C.3     1  UNL1        0.0306
     17 C           2.1345    0.4928   -0.5756 C.ar    1  UNL1        0.0765
     18 C           0.6892    0.7475   -0.7521 C.3     1  UNL1        0.0988
     19 C           0.2527    1.9820   -0.0630 C.ar    1  UNL1       -0.0207
     20 C          -0.0466    3.0887   -0.8677 C.ar    1  UNL1       -0.0550
     21 C          -0.4484    4.2858   -0.3335 C.ar    1  UNL1       -0.0431
     22 C          -0.5647    4.4173    1.0350 C.ar    1  UNL1        0.0410
     23 CL         -1.0813    5.9639    1.7295 Cl      1  UNL1       -0.0835
     24 C          -0.2675    3.3208    1.8197 C.ar    1  UNL1       -0.0431
     25 C           0.1349    2.1192    1.2965 C.ar    1  UNL1       -0.0550
     26 C          -1.9874   -1.2514   -1.4233 C.ar    1  UNL1        0.0346
     27 N          -3.3109   -1.5237   -1.3668 N.ar    1  UNL1       -0.2819
     28 C          -4.0748   -2.0458   -2.3622 C.ar    1  UNL1        0.1348
     29 C          -3.6391   -2.4353   -3.7144 C.3     1  UNL1       -0.0041
     30 N          -5.3103   -2.1407   -1.8556 N.ar    1  UNL1       -0.1339
     31 N          -5.3126   -1.6928   -0.5903 N.ar    1  UNL1       -0.1256
     32 C          -4.0537   -1.3002   -0.2698 C.ar    1  UNL1        0.2032
     33 H          -2.7191   -0.3855    3.3780 H       1  UNL1        0.0660
     34 H          -4.3301   -0.3962    4.0831 H       1  UNL1        0.0660
     35 H          -3.8511    1.0741    3.1910 H       1  UNL1        0.0660
     36 H          -1.6461   -0.0792    1.6957 H       1  UNL1        0.0674
     37 H           5.0173   -2.6017   -0.4793 H       1  UNL1        0.0365
     38 H           6.0234   -2.8414    1.7641 H       1  UNL1        0.0272
     39 H           4.8802   -1.5655    2.4472 H       1  UNL1        0.0272
     40 H           2.9103   -3.1795    1.8048 H       1  UNL1        0.0272
     41 H           4.1458   -4.3040    1.0722 H       1  UNL1        0.0272
     42 H           2.8359    3.1589   -0.9515 H       1  UNL1        0.0473
     43 H           4.5097    2.8441   -0.5046 H       1  UNL1        0.0473
     44 H           4.0011    2.4652   -2.1470 H       1  UNL1        0.0473
     45 H           0.4787    0.8683   -1.8601 H       1  UNL1        0.0620
     46 H           0.0378    3.0096   -1.9532 H       1  UNL1        0.0621
     47 H          -0.6786    5.1406   -0.9527 H       1  UNL1        0.0632
     48 H          -0.3642    3.4401    2.9040 H       1  UNL1        0.0632
     49 H           0.3561    1.2926    1.9370 H       1  UNL1        0.0621
     50 H          -1.3976   -1.4345   -2.3181 H       1  UNL1        0.0833
     51 H          -4.4301   -2.2553   -4.4570 H       1  UNL1        0.0308
     52 H          -2.7394   -1.8642   -4.0391 H       1  UNL1        0.0308
     53 H          -3.3982   -3.5340   -3.7900 H       1  UNL1        0.0308
@<TRIPOS>BOND
     1     1     2    1
     2     2     3    1
     3     3     4   ar
     4     4     5   ar
     5     5     6    1
     6     6     7   am
     7     7     8    2
     8     7     9    1
     9     9    10   ar
    10    10    11    1
    11    11    12    1
    12    12    13    1
    13    10    14   ar
    14    14    15   ar
    15    15    16    1
    16    15    17   ar
    17    17    18    1
    18    18    19    1
    19    19    20   ar
    20    20    21   ar
    21    21    22   ar
    22    22    23    1
    23    22    24   ar
    24    24    25   ar
    25     5    26   ar
    26    26    27   ar
    27    27    28   ar
    28    28    29    1
    29    28    30   ar
    30    30    31   ar
    31    31    32   ar
    32    32     3   ar
    33    18     6    1
    34    25    19   ar
    35    32    27   ar
    36    17     9   ar
    37    13    11    1
    38     1    33    1
    39     1    34    1
    40     1    35    1
    41     4    36    1
    42    11    37    1
    43    12    38    1
    44    12    39    1
    45    13    40    1
    46    13    41    1
    47    16    42    1
    48    16    43    1
    49    16    44    1
    50    18    45    1
    51    20    46    1
    52    21    47    1
    53    24    48    1
    54    25    49    1
    55    26    50    1
    56    29    51    1
    57    29    52    1
    58    29    53    1
