@<TRIPOS>MOLECULE
*****
 50 54 0 0 0
SMALL
GASTEIGER

@<TRIPOS>ATOM
      1 O           4.0393   -3.7923    0.8223 O.2     1  UNL1       -0.2446
      2 C           2.8050   -3.6338    0.5666 C.ar    1  UNL1        0.3489
      3 N           1.8655   -4.5756    0.7202 N.ar    1  UNL1       -0.2260
      4 N           0.7423   -4.0175    0.3518 N.ar    1  UNL1       -0.1509
      5 C           0.9367   -2.7429   -0.0340 C.ar    1  UNL1        0.1693
      6 C          -0.0331   -1.7732   -0.5120 C.ar    1  UNL1        0.0243
      7 C          -0.1771   -1.4870   -1.8520 C.ar    1  UNL1       -0.0327
      8 C          -1.1198   -0.5476   -2.2882 C.ar    1  UNL1        0.0304
      9 N          -1.8945    0.0859   -1.4110 N.ar    1  UNL1       -0.2405
     10 C          -1.7903   -0.1602   -0.0926 C.ar    1  UNL1        0.1196
     11 N          -2.6309    0.5334    0.8041 N.pl3   1  UNL1       -0.3240
     12 C          -3.5832    1.4892    0.3027 C.3     1  UNL1        0.0453
     13 C          -4.5811    0.8335   -0.6608 C.3     1  UNL1       -0.0303
     14 C          -5.9849    0.9001   -0.0892 C.3     1  UNL1       -0.0277
     15 C          -6.0571    0.4600    1.3371 C.3     1  UNL1        0.0478
     16 O          -5.0064    0.9604    2.0980 O.3     1  UNL1       -0.3779
     17 C          -4.3783    2.0360    1.4491 C.3     1  UNL1        0.0660
     18 C          -0.8524   -1.0966    0.3566 C.ar    1  UNL1       -0.0112
     19 N           2.2503   -2.5031    0.1043 N.ar    1  UNL1       -0.2437
     20 C           2.9661   -1.3098   -0.1688 C.ar    1  UNL1        0.0535
     21 C           3.1334   -0.9414   -1.4815 C.ar    1  UNL1       -0.0370
     22 C           3.8387    0.2316   -1.7110 C.ar    1  UNL1       -0.0521
     23 C           4.3520    0.9991   -0.6710 C.ar    1  UNL1       -0.0178
     24 C           5.0533    2.1665   -0.9135 C.ar    1  UNL1       -0.0540
     25 C           5.5680    2.9376    0.1080 C.ar    1  UNL1       -0.0612
     26 C           5.3941    2.5578    1.4320 C.ar    1  UNL1       -0.0612
     27 C           4.6935    1.3926    1.6584 C.ar    1  UNL1       -0.0540
     28 C           4.1771    0.6183    0.6421 C.ar    1  UNL1       -0.0159
     29 C           3.4692   -0.5589    0.8692 C.ar    1  UNL1       -0.0299
     30 H           1.9692   -5.5706    1.0636 H       1  UNL1        0.1937
     31 H           0.4125   -1.9602   -2.5997 H       1  UNL1        0.0640
     32 H          -1.2040   -0.3496   -3.3456 H       1  UNL1        0.0830
     33 H          -2.5700    0.3614    1.8276 H       1  UNL1        0.1478
     34 H          -3.1019    2.3033   -0.2803 H       1  UNL1        0.0520
     35 H          -4.5938    1.3058   -1.6411 H       1  UNL1        0.0284
     36 H          -4.2531   -0.2121   -0.7814 H       1  UNL1        0.0284
     37 H          -6.6036    0.2124   -0.7040 H       1  UNL1        0.0288
     38 H          -6.3685    1.9114   -0.2140 H       1  UNL1        0.0288
     39 H          -6.0732   -0.6542    1.4156 H       1  UNL1        0.0560
     40 H          -7.0076    0.8743    1.7697 H       1  UNL1        0.0560
     41 H          -3.6304    2.4239    2.1996 H       1  UNL1        0.0578
     42 H          -5.0775    2.8359    1.1764 H       1  UNL1        0.0578
     43 H          -0.8018   -1.2633    1.4186 H       1  UNL1        0.0659
     44 H           2.7532   -1.5049   -2.3223 H       1  UNL1        0.0638
     45 H           3.9801    0.5369   -2.7365 H       1  UNL1        0.0624
     46 H           5.1693    2.4319   -1.9643 H       1  UNL1        0.0624
     47 H           6.1177    3.8554   -0.1206 H       1  UNL1        0.0618
     48 H           5.7948    3.1570    2.2423 H       1  UNL1        0.0618
     49 H           4.5547    1.0913    2.6876 H       1  UNL1        0.0624
     50 H           3.3383   -0.8481    1.9127 H       1  UNL1        0.0644
@<TRIPOS>BOND
     1     1     2    2
     2     2     3   ar
     3     3     4   ar
     4     4     5   ar
     5     5     6    1
     6     6     7   ar
     7     7     8   ar
     8     8     9   ar
     9     9    10   ar
    10    10    11    1
    11    11    12    1
    12    12    13    1
    13    13    14    1
    14    14    15    1
    15    15    16    1
    16    16    17    1
    17    10    18   ar
    18     5    19   ar
    19    19    20    1
    20    20    21   ar
    21    21    22   ar
    22    22    23   ar
    23    23    24   ar
    24    24    25   ar
    25    25    26   ar
    26    26    27   ar
    27    27    28   ar
    28    28    29   ar
    29    19     2   ar
    30    29    20   ar
    31    18     6   ar
    32    28    23   ar
    33    17    12    1
    34     3    30    1
    35     7    31    1
    36     8    32    1
    37    11    33    1
    38    12    34    1
    39    13    35    1
    40    13    36    1
    41    14    37    1
    42    14    38    1
    43    15    39    1
    44    15    40    1
    45    17    41    1
    46    17    42    1
    47    18    43    1
    48    21    44    1
    49    22    45    1
    50    24    46    1
    51    25    47    1
    52    26    48    1
    53    27    49    1
    54    29    50    1
