@<TRIPOS>MOLECULE
*****
 26 25 0 0 0
SMALL
GASTEIGER

@<TRIPOS>ATOM
      1 C           3.6125    1.0453    0.0049 C.3     1  UNL1       -0.0652
      2 C           2.7483    0.0125    0.6895 C.3     1  UNL1       -0.0544
      3 C           1.5333   -0.2689   -0.1981 C.3     1  UNL1       -0.0338
      4 C           0.6951   -1.3020    0.5157 C.3     1  UNL1        0.0658
      5 S          -0.7581   -1.7486   -0.3722 S.O2    1  UNL1       -0.0305
      6 O          -1.4909   -2.7789    0.4255 O.2     1  UNL1       -0.1743
      7 O          -0.3647   -2.3110   -1.7253 O.2     1  UNL1       -0.1743
      8 C          -1.8351   -0.3831   -0.6646 C.3     1  UNL1        0.0758
      9 C          -2.3199    0.2716    0.5850 C.3     1  UNL1        0.0641
     10 C          -3.2174    1.4043    0.1623 C.2     1  UNL1        0.3063
     11 O          -3.4848    1.7065   -1.1721 O.3     1  UNL1       -0.4806
     12 O          -3.7905    2.1590    0.9747 O.2     1  UNL1       -0.2510
     13 H           3.0243    1.9942    0.0128 H       1  UNL1        0.0230
     14 H           3.7431    0.7191   -1.0418 H       1  UNL1        0.0230
     15 H           4.5659    1.1093    0.5590 H       1  UNL1        0.0230
     16 H           3.3456   -0.9249    0.8339 H       1  UNL1        0.0263
     17 H           2.4489    0.4265    1.6614 H       1  UNL1        0.0263
     18 H           0.9651    0.6855   -0.2601 H       1  UNL1        0.0281
     19 H           1.8997   -0.6294   -1.1747 H       1  UNL1        0.0281
     20 H           1.2939   -2.2132    0.6640 H       1  UNL1        0.0500
     21 H           0.4081   -0.9084    1.5014 H       1  UNL1        0.0500
     22 H          -1.4463    0.3504   -1.3742 H       1  UNL1        0.0505
     23 H          -2.7506   -0.8178   -1.1585 H       1  UNL1        0.0505
     24 H          -1.4915    0.7315    1.1574 H       1  UNL1        0.0393
     25 H          -2.9177   -0.3768    1.2246 H       1  UNL1        0.0393
     26 H          -4.4162    2.0475   -1.4236 H       1  UNL1        0.2951
@<TRIPOS>BOND
     1     1     2    1
     2     2     3    1
     3     3     4    1
     4     4     5    1
     5     5     6    2
     6     5     7    2
     7     5     8    1
     8     8     9    1
     9     9    10    1
    10    10    11    1
    11    10    12    2
    12     1    13    1
    13     1    14    1
    14     1    15    1
    15     2    16    1
    16     2    17    1
    17     3    18    1
    18     3    19    1
    19     4    20    1
    20     4    21    1
    21     8    22    1
    22     8    23    1
    23     9    24    1
    24     9    25    1
    25    11    26    1
