
     RDKit          3D

 48 51  0  0  0  0  0  0  0  0999 V2000
    5.6391   -0.6906    1.3103 C   0  0  0  0  0  0  0  0  0  0  0  0
    5.4800    0.2664    0.1755 C   0  0  0  0  0  0  0  0  0  0  0  0
    6.8104    0.5253   -0.4595 C   0  0  0  0  0  0  0  0  0  0  0  0
    4.7885    1.4400    0.5065 O   0  0  0  0  0  0  0  0  0  0  0  0
    3.6122    1.8450   -0.1070 C   0  0  0  0  0  0  0  0  0  0  0  0
    2.9259    1.2031   -1.1186 C   0  0  0  0  0  0  0  0  0  0  0  0
    1.7959    1.9367   -1.4535 C   0  0  0  0  0  0  0  0  0  0  0  0
    0.8400    1.5834   -2.4723 N   0  0  0  0  0  0  0  0  0  0  0  0
    1.0060    1.6480   -3.8016 C   0  0  0  0  0  0  0  0  0  0  0  0
   -0.0987    1.2432   -4.4342 N   0  0  0  0  0  0  0  0  0  0  0  0
   -1.0143    0.9036   -3.5153 C   0  0  0  0  0  0  0  0  0  0  0  0
   -2.3116    0.4265   -3.5643 C   0  0  0  0  0  0  0  0  0  0  0  0
   -2.9420    0.1910   -2.3666 C   0  0  0  0  0  0  0  0  0  0  0  0
   -2.3325    0.4115   -1.1237 C   0  0  0  0  0  0  0  0  0  0  0  0
   -3.0743    0.1399    0.0708 N   0  0  0  0  0  0  0  0  0  0  0  0
   -3.1279   -1.1949    0.6273 C   0  0  1  0  0  0  0  0  0  0  0  0
   -1.7695   -1.7033    1.0313 C   0  0  0  0  0  0  0  0  0  0  0  0
   -4.1502   -1.3449    1.6593 C   0  0  0  0  0  0  0  0  0  0  0  0
   -3.9151   -2.0265    2.8344 C   0  0  0  0  0  0  0  0  0  0  0  0
   -4.9186   -2.1507    3.7991 C   0  0  0  0  0  0  0  0  0  0  0  0
   -6.1270   -1.5869    3.5552 C   0  0  0  0  0  0  0  0  0  0  0  0
   -7.1489   -1.6723    4.4562 F   0  0  0  0  0  0  0  0  0  0  0  0
   -6.3673   -0.9044    2.3828 C   0  0  0  0  0  0  0  0  0  0  0  0
   -5.3653   -0.8084    1.4739 N   0  0  0  0  0  0  0  0  0  0  0  0
   -1.0764    0.8736   -1.1314 N   0  0  0  0  0  0  0  0  0  0  0  0
   -0.4235    1.1174   -2.2873 C   0  0  0  0  0  0  0  0  0  0  0  0
    1.8188    3.0066   -0.6395 N   0  0  0  0  0  0  0  0  0  0  0  0
    2.8815    2.9545    0.1495 N   0  0  0  0  0  0  0  0  0  0  0  0
    6.6869   -0.7441    1.6948 H   0  0  0  0  0  0  0  0  0  0  0  0
    4.9123   -0.5318    2.1308 H   0  0  0  0  0  0  0  0  0  0  0  0
    5.4362   -1.7425    0.9511 H   0  0  0  0  0  0  0  0  0  0  0  0
    4.8547   -0.2434   -0.6170 H   0  0  0  0  0  0  0  0  0  0  0  0
    6.9799    1.6017   -0.6714 H   0  0  0  0  0  0  0  0  0  0  0  0
    7.6029    0.2145    0.2513 H   0  0  0  0  0  0  0  0  0  0  0  0
    6.9524   -0.1141   -1.3554 H   0  0  0  0  0  0  0  0  0  0  0  0
    3.1776    0.2662   -1.6186 H   0  0  0  0  0  0  0  0  0  0  0  0
    1.9346    1.9908   -4.2665 H   0  0  0  0  0  0  0  0  0  0  0  0
   -2.7800    0.2565   -4.5235 H   0  0  0  0  0  0  0  0  0  0  0  0
   -3.9503   -0.1803   -2.3381 H   0  0  0  0  0  0  0  0  0  0  0  0
   -3.5659    0.9395    0.5116 H   0  0  0  0  0  0  0  0  0  0  0  0
   -3.4527   -1.8697   -0.2275 H   0  0  0  0  0  0  0  0  0  0  0  0
   -1.8382   -2.8207    1.0639 H   0  0  0  0  0  0  0  0  0  0  0  0
   -1.0753   -1.4810    0.1713 H   0  0  0  0  0  0  0  0  0  0  0  0
   -1.3990   -1.2634    1.9636 H   0  0  0  0  0  0  0  0  0  0  0  0
   -2.9789   -2.4766    3.0505 H   0  0  0  0  0  0  0  0  0  0  0  0
   -4.7119   -2.6882    4.7069 H   0  0  0  0  0  0  0  0  0  0  0  0
   -7.3354   -0.4343    2.1520 H   0  0  0  0  0  0  0  0  0  0  0  0
    3.1146    3.6879    0.8768 H   0  0  0  0  0  0  0  0  0  0  0  0
  1  2  1  0
  2  3  1  0
  2  4  1  0
  4  5  1  0
  5  6  2  0
  6  7  1  0
  7  8  1  0
  8  9  1  0
  9 10  2  0
 10 11  1  0
 11 12  2  0
 12 13  1  0
 13 14  2  0
 14 15  1  0
 15 16  1  0
 16 17  1  0
 16 18  1  0
 18 19  2  0
 19 20  1  0
 20 21  2  0
 21 22  1  0
 21 23  1  0
 23 24  2  0
 14 25  1  0
 25 26  2  0
  7 27  2  0
 27 28  1  0
 28  5  1  0
 26  8  1  0
 26 11  1  0
 24 18  1  0
  1 29  1  0
  1 30  1  0
  1 31  1  0
  2 32  1  0
  3 33  1  0
  3 34  1  0
  3 35  1  0
  6 36  1  0
  9 37  1  0
 12 38  1  0
 13 39  1  0
 15 40  1  0
 16 41  1  6
 17 42  1  0
 17 43  1  0
 17 44  1  0
 19 45  1  0
 20 46  1  0
 23 47  1  0
 28 48  1  0
M  END
$$$$
