@<TRIPOS>MOLECULE
*****
 48 51 0 0 0
SMALL
GASTEIGER

@<TRIPOS>ATOM
      1 C           5.6391   -0.6906    1.3103 C.3     1  UNL1       -0.0280
      2 C           5.4800    0.2664    0.1755 C.3     1  UNL1        0.0962
      3 C           6.8104    0.5253   -0.4595 C.3     1  UNL1       -0.0280
      4 O           4.7885    1.4400    0.5065 O.3     1  UNL1       -0.4739
      5 C           3.6122    1.8450   -0.1070 C.ar    1  UNL1        0.2128
      6 C           2.9259    1.2031   -1.1186 C.ar    1  UNL1        0.0440
      7 C           1.7959    1.9367   -1.4535 C.ar    1  UNL1        0.1654
      8 N           0.8400    1.5834   -2.4723 N.ar    1  UNL1       -0.2657
      9 C           1.0060    1.6480   -3.8016 C.ar    1  UNL1        0.1040
     10 N          -0.0987    1.2432   -4.4342 N.ar    1  UNL1       -0.2337
     11 C          -1.0143    0.9036   -3.5153 C.ar    1  UNL1        0.1084
     12 C          -2.3116    0.4265   -3.5643 C.ar    1  UNL1       -0.0294
     13 C          -2.9420    0.1910   -2.3666 C.ar    1  UNL1       -0.0197
     14 C          -2.3325    0.4115   -1.1237 C.ar    1  UNL1        0.1217
     15 N          -3.0743    0.1399    0.0708 N.pl3   1  UNL1       -0.3210
     16 C          -3.1279   -1.1949    0.6273 C.3     1  UNL1        0.0614
     17 C          -1.7695   -1.7033    1.0313 C.3     1  UNL1       -0.0410
     18 C          -4.1502   -1.3449    1.6593 C.ar    1  UNL1        0.0613
     19 C          -3.9151   -2.0265    2.8344 C.ar    1  UNL1       -0.0359
     20 C          -4.9186   -2.1507    3.7991 C.ar    1  UNL1       -0.0232
     21 C          -6.1270   -1.5869    3.5552 C.ar    1  UNL1        0.1414
     22 F          -7.1489   -1.6723    4.4562 F       1  UNL1       -0.2039
     23 C          -6.3673   -0.9044    2.3828 C.ar    1  UNL1        0.0631
     24 N          -5.3653   -0.8084    1.4739 N.ar    1  UNL1       -0.2552
     25 N          -1.0764    0.8736   -1.1314 N.ar    1  UNL1       -0.2125
     26 C          -0.4235    1.1174   -2.2873 C.ar    1  UNL1        0.1679
     27 N           1.8188    3.0066   -0.6395 N.ar    1  UNL1       -0.1526
     28 N           2.8815    2.9545    0.1495 N.ar    1  UNL1       -0.2449
     29 H           6.6869   -0.7441    1.6948 H       1  UNL1        0.0265
     30 H           4.9123   -0.5318    2.1308 H       1  UNL1        0.0265
     31 H           5.4362   -1.7425    0.9511 H       1  UNL1        0.0265
     32 H           4.8547   -0.2434   -0.6170 H       1  UNL1        0.0728
     33 H           6.9799    1.6017   -0.6714 H       1  UNL1        0.0265
     34 H           7.6029    0.2145    0.2513 H       1  UNL1        0.0265
     35 H           6.9524   -0.1141   -1.3554 H       1  UNL1        0.0265
     36 H           3.1776    0.2662   -1.6186 H       1  UNL1        0.0708
     37 H           1.9346    1.9908   -4.2665 H       1  UNL1        0.1033
     38 H          -2.7800    0.2565   -4.5235 H       1  UNL1        0.0641
     39 H          -3.9503   -0.1803   -2.3381 H       1  UNL1        0.0652
     40 H          -3.5659    0.9395    0.5116 H       1  UNL1        0.1481
     41 H          -3.4527   -1.8697   -0.2275 H       1  UNL1        0.0560
     42 H          -1.8382   -2.8207    1.0639 H       1  UNL1        0.0251
     43 H          -1.0753   -1.4810    0.1713 H       1  UNL1        0.0251
     44 H          -1.3990   -1.2634    1.9636 H       1  UNL1        0.0251
     45 H          -2.9789   -2.4766    3.0505 H       1  UNL1        0.0637
     46 H          -4.7119   -2.6882    4.7069 H       1  UNL1        0.0647
     47 H          -7.3354   -0.4343    2.1520 H       1  UNL1        0.0859
     48 H           3.1146    3.6879    0.8768 H       1  UNL1        0.1920
@<TRIPOS>BOND
     1     1     2    1
     2     2     3    1
     3     2     4    1
     4     4     5    1
     5     5     6   ar
     6     6     7   ar
     7     7     8    1
     8     8     9   ar
     9     9    10   ar
    10    10    11   ar
    11    11    12   ar
    12    12    13   ar
    13    13    14   ar
    14    14    15    1
    15    15    16    1
    16    16    17    1
    17    16    18    1
    18    18    19   ar
    19    19    20   ar
    20    20    21   ar
    21    21    22    1
    22    21    23   ar
    23    23    24   ar
    24    14    25   ar
    25    25    26   ar
    26     7    27   ar
    27    27    28   ar
    28    28     5   ar
    29    26     8   ar
    30    26    11   ar
    31    24    18   ar
    32     1    29    1
    33     1    30    1
    34     1    31    1
    35     2    32    1
    36     3    33    1
    37     3    34    1
    38     3    35    1
    39     6    36    1
    40     9    37    1
    41    12    38    1
    42    13    39    1
    43    15    40    1
    44    16    41    1
    45    17    42    1
    46    17    43    1
    47    17    44    1
    48    19    45    1
    49    20    46    1
    50    23    47    1
    51    28    48    1
