@<TRIPOS>MOLECULE
*****
 56 60 0 0 0
SMALL
GASTEIGER

@<TRIPOS>ATOM
      1 C          -6.1587    0.0657    1.8590 C.3     1  UNL1       -0.0464
      2 C          -5.9661    0.7938    0.5536 C.3     1  UNL1        0.0246
      3 C          -6.9047    1.9771    0.4661 C.3     1  UNL1       -0.0187
      4 C          -5.7149    2.7521    0.9596 C.3     1  UNL1        0.0167
      5 N          -4.8615    1.7026    0.4758 N.am    1  UNL1       -0.2974
      6 C          -3.5079    1.5987    0.0841 C.2     1  UNL1        0.2327
      7 O          -2.7587    2.6287    0.1279 O.2     1  UNL1       -0.2741
      8 C          -2.8808    0.3539   -0.3844 C.3     1  UNL1        0.1054
      9 C          -2.7924   -0.8461    0.4867 C.3     1  UNL1       -0.0220
     10 C          -1.5865   -0.1182    0.0963 C.3     1  UNL1        0.0134
     11 C          -0.5974   -0.5783   -0.9271 C.3     1  UNL1        0.0935
     12 C          -0.1304    0.6764   -1.6616 C.3     1  UNL1       -0.0351
     13 C           0.5925   -1.1769   -0.2712 C.ar    1  UNL1        0.0158
     14 C           1.8310   -0.5968   -0.3803 C.ar    1  UNL1       -0.0463
     15 C           2.9747   -1.1487    0.2210 C.ar    1  UNL1       -0.0217
     16 C           4.2659   -0.4935    0.0679 C.2     1  UNL1       -0.0172
     17 C           5.1727   -0.4214    1.0214 C.2     1  UNL1        0.1492
     18 F           4.9314   -0.9697    2.2153 F       1  UNL1       -0.2032
     19 C           6.4662    0.2618    0.7963 C.ar    1  UNL1        0.0990
     20 C           7.3994    0.3267    1.8039 C.ar    1  UNL1       -0.0321
     21 C           8.6209    0.9548    1.6400 C.ar    1  UNL1       -0.0398
     22 C           8.9146    1.5401    0.4156 C.ar    1  UNL1        0.0591
     23 CL         10.4321    2.3607    0.1075 Cl      1  UNL1       -0.0820
     24 C           7.9413    1.4431   -0.5553 C.ar    1  UNL1        0.0466
     25 N           6.7677    0.8308   -0.3739 N.ar    1  UNL1       -0.2512
     26 C           2.8766   -2.3104    0.9501 C.ar    1  UNL1       -0.0518
     27 C           1.6395   -2.9089    1.0718 C.ar    1  UNL1       -0.0255
     28 C           0.5266   -2.3468    0.4704 C.ar    1  UNL1        0.1289
     29 F          -0.6810   -2.9388    0.5917 F       1  UNL1       -0.2051
     30 N          -1.0880   -1.5691   -1.8526 N.2     1  UNL1       -0.2521
     31 C          -2.2000   -1.4884   -2.4775 C.2     1  UNL1        0.1485
     32 N          -2.6303   -2.4826   -3.3699 N.pl3   1  UNL1       -0.3380
     33 S          -3.1935   -0.0406   -2.1453 S.3     1  UNL1       -0.0746
     34 H          -5.9349    0.6541    2.7459 H       1  UNL1        0.0248
     35 H          -5.5988   -0.8927    1.9010 H       1  UNL1        0.0248
     36 H          -7.2466   -0.2114    1.9140 H       1  UNL1        0.0248
     37 H          -6.0620    0.0666   -0.2797 H       1  UNL1        0.0498
     38 H          -7.1441    2.1978   -0.5858 H       1  UNL1        0.0298
     39 H          -7.7658    1.9455    1.1633 H       1  UNL1        0.0298
     40 H          -5.6821    2.9488    2.0470 H       1  UNL1        0.0465
     41 H          -5.6512    3.7164    0.4143 H       1  UNL1        0.0465
     42 H          -3.0655   -1.8332    0.0658 H       1  UNL1        0.0287
     43 H          -3.1818   -0.7058    1.5165 H       1  UNL1        0.0287
     44 H          -1.0960    0.4963    0.9055 H       1  UNL1        0.0346
     45 H          -0.9950    1.2111   -2.1360 H       1  UNL1        0.0256
     46 H           0.6149    0.4851   -2.4329 H       1  UNL1        0.0256
     47 H           0.2524    1.3702   -0.8857 H       1  UNL1        0.0256
     48 H           1.9645    0.3171   -0.9442 H       1  UNL1        0.0628
     49 H           4.4854   -0.0400   -0.8960 H       1  UNL1        0.0653
     50 H           7.1472   -0.1357    2.7480 H       1  UNL1        0.0640
     51 H           9.3583    1.0092    2.4303 H       1  UNL1        0.0633
     52 H           8.1580    1.8968   -1.5160 H       1  UNL1        0.0844
     53 H           3.7507   -2.7482    1.4160 H       1  UNL1        0.0624
     54 H           1.6020   -3.8240    1.6532 H       1  UNL1        0.0646
     55 H          -3.0793   -2.2373   -4.2816 H       1  UNL1        0.1442
     56 H          -2.5309   -3.5184   -3.1822 H       1  UNL1        0.1442
@<TRIPOS>BOND
     1     1     2    1
     2     2     3    1
     3     3     4    1
     4     4     5    1
     5     5     6   am
     6     6     7    2
     7     8     6    1
     8     8     9    1
     9     9    10    1
    10    10    11    1
    11    11    12    1
    12    11    13    1
    13    13    14   ar
    14    14    15   ar
    15    15    16    1
    16    16    17    2
    17    17    18    1
    18    17    19    1
    19    19    20   ar
    20    20    21   ar
    21    21    22   ar
    22    22    23    1
    23    22    24   ar
    24    24    25   ar
    25    15    26   ar
    26    26    27   ar
    27    27    28   ar
    28    28    29    1
    29    11    30    1
    30    30    31    2
    31    31    32    1
    32    31    33    1
    33     5     2    1
    34    10     8    1
    35    28    13   ar
    36    33     8    1
    37    25    19   ar
    38     1    34    1
    39     1    35    1
    40     1    36    1
    41     2    37    1
    42     3    38    1
    43     3    39    1
    44     4    40    1
    45     4    41    1
    46     9    42    1
    47     9    43    1
    48    10    44    1
    49    12    45    1
    50    12    46    1
    51    12    47    1
    52    14    48    1
    53    16    49    1
    54    20    50    1
    55    21    51    1
    56    24    52    1
    57    26    53    1
    58    27    54    1
    59    32    55    1
    60    32    56    1
