@<TRIPOS>MOLECULE
*****
 90 92 0 0 0
SMALL
GASTEIGER

@<TRIPOS>ATOM
      1 C          -2.8208    1.0770    0.8228 C.3     1  UNL1        0.0241
      2 N          -3.8322    0.3374    0.2002 N.3     1  UNL1       -0.2969
      3 C          -3.8804   -1.0826    0.3732 C.3     1  UNL1        0.0004
      4 C          -4.2311   -1.6006    1.7398 C.3     1  UNL1       -0.0276
      5 C          -5.4377   -1.0415    2.3794 C.3     1  UNL1       -0.0029
      6 N          -6.7052   -1.1707    1.6474 N.3     1  UNL1       -0.3147
      7 C          -7.6017   -0.3161    2.3434 C.3     1  UNL1        0.0084
      8 C          -8.9111    0.0402    1.7640 C.3     1  UNL1        0.0084
      9 N          -8.9113    0.6402    0.4654 N.3     1  UNL1       -0.3147
     10 C          -8.7197   -0.2944   -0.5580 C.3     1  UNL1       -0.0029
     11 C          -8.4817    0.3086   -1.9302 C.3     1  UNL1       -0.0278
     12 C          -7.1418    0.9085   -2.0809 C.3     1  UNL1       -0.0029
     13 N          -6.8164    2.0394   -1.2887 N.3     1  UNL1       -0.3147
     14 C          -5.2897    1.9993   -1.0906 C.3     1  UNL1        0.0087
     15 C          -5.0648    0.9141   -0.1022 C.3     1  UNL1        0.0118
     16 C          -1.4410    0.6620    0.4412 C.ar    1  UNL1       -0.0333
     17 C          -0.8581    1.1612   -0.7347 C.ar    1  UNL1       -0.0570
     18 C           0.4058    0.6987   -1.0336 C.ar    1  UNL1       -0.0570
     19 C           1.1476   -0.1993   -0.2976 C.ar    1  UNL1       -0.0333
     20 C           2.4420   -0.7580   -0.6539 C.3     1  UNL1        0.0241
     21 N           3.6420   -0.1211   -0.3799 N.3     1  UNL1       -0.2969
     22 C           3.9870    1.1503   -0.9145 C.3     1  UNL1        0.0004
     23 C           5.2448    1.5683   -0.2191 C.3     1  UNL1       -0.0276
     24 C           5.9466    2.7893   -0.7621 C.3     1  UNL1       -0.0029
     25 N           7.2719    2.8752   -0.0373 N.3     1  UNL1       -0.3147
     26 C           8.0002    1.7536   -0.5881 C.3     1  UNL1        0.0084
     27 C           8.6061    0.8378    0.4525 C.3     1  UNL1        0.0084
     28 N           9.1842   -0.2562   -0.2634 N.3     1  UNL1       -0.3147
     29 C           9.4003   -1.4411    0.5038 C.3     1  UNL1       -0.0029
     30 C           8.0458   -2.0722    0.8820 C.3     1  UNL1       -0.0278
     31 C           7.3351   -2.4157   -0.3977 C.3     1  UNL1       -0.0029
     32 N           6.0445   -2.9819   -0.2481 N.3     1  UNL1       -0.3147
     33 C           5.0038   -2.1126    0.2420 C.3     1  UNL1        0.0087
     34 C           4.7361   -1.0484   -0.7607 C.3     1  UNL1        0.0118
     35 C           0.4933   -0.6283    0.8387 C.ar    1  UNL1       -0.0570
     36 C          -0.7697   -0.2377    1.2429 C.ar    1  UNL1       -0.0570
     37 H          -3.0036    2.1592    0.6095 H       1  UNL1        0.0476
     38 H          -2.9068    0.9992    1.9300 H       1  UNL1        0.0476
     39 H          -4.5067   -1.6101   -0.3462 H       1  UNL1        0.0427
     40 H          -2.8351   -1.4628    0.1819 H       1  UNL1        0.0427
     41 H          -3.4005   -1.5260    2.4832 H       1  UNL1        0.0290
     42 H          -4.3972   -2.7338    1.6927 H       1  UNL1        0.0290
     43 H          -5.6269   -1.6980    3.2967 H       1  UNL1        0.0424
     44 H          -5.3235   -0.0299    2.8313 H       1  UNL1        0.0424
     45 H          -7.0248   -2.1604    1.6248 H       1  UNL1        0.1220
     46 H          -7.0406    0.6596    2.4996 H       1  UNL1        0.0436
     47 H          -7.8017   -0.7691    3.3537 H       1  UNL1        0.0436
     48 H          -9.3626    0.8181    2.4612 H       1  UNL1        0.0436
     49 H          -9.6641   -0.8039    1.8378 H       1  UNL1        0.0436
     50 H          -9.6287    1.3669    0.3028 H       1  UNL1        0.1220
     51 H          -9.6556   -0.9350   -0.6866 H       1  UNL1        0.0424
     52 H          -7.9207   -1.0371   -0.3330 H       1  UNL1        0.0424
     53 H          -9.2367    1.1191   -2.1253 H       1  UNL1        0.0290
     54 H          -8.6569   -0.5079   -2.6695 H       1  UNL1        0.0290
     55 H          -7.1246    1.2889   -3.1772 H       1  UNL1        0.0424
     56 H          -6.3999    0.0896   -2.1343 H       1  UNL1        0.0424
     57 H          -6.9604    2.9196   -1.8164 H       1  UNL1        0.1220
     58 H          -4.8139    1.9042   -2.0618 H       1  UNL1        0.0437
     59 H          -5.0906    3.0018   -0.6981 H       1  UNL1        0.0437
     60 H          -5.4600    1.3134    0.8977 H       1  UNL1        0.0439
     61 H          -5.8435    0.1305   -0.3310 H       1  UNL1        0.0439
     62 H          -1.4111    1.8649   -1.3338 H       1  UNL1        0.0621
     63 H           0.8643    1.1014   -1.9550 H       1  UNL1        0.0621
     64 H           2.4571   -1.0882   -1.7465 H       1  UNL1        0.0476
     65 H           2.4970   -1.7912   -0.1435 H       1  UNL1        0.0476
     66 H           4.1754    1.1654   -2.0243 H       1  UNL1        0.0427
     67 H           3.1683    1.9175   -0.7822 H       1  UNL1        0.0427
     68 H           5.9717    0.8061    0.0402 H       1  UNL1        0.0290
     69 H           4.8580    1.8919    0.8379 H       1  UNL1        0.0290
     70 H           5.3793    3.6901   -0.4889 H       1  UNL1        0.0424
     71 H           6.1458    2.6788   -1.8426 H       1  UNL1        0.0424
     72 H           7.0947    2.7965    0.9821 H       1  UNL1        0.1220
     73 H           7.3572    1.1529   -1.2365 H       1  UNL1        0.0436
     74 H           8.8821    2.1519   -1.1635 H       1  UNL1        0.0436
     75 H           9.4734    1.4269    0.8974 H       1  UNL1        0.0436
     76 H           7.9315    0.5977    1.2714 H       1  UNL1        0.0436
     77 H           8.9394   -0.3969   -1.2277 H       1  UNL1        0.1220
     78 H           9.9702   -1.2458    1.4043 H       1  UNL1        0.0424
     79 H           9.8974   -2.1928   -0.1286 H       1  UNL1        0.0424
     80 H           7.4747   -1.4509    1.5634 H       1  UNL1        0.0290
     81 H           8.2854   -3.0184    1.4043 H       1  UNL1        0.0290
     82 H           7.9725   -3.1875   -0.9034 H       1  UNL1        0.0424
     83 H           7.3431   -1.5564   -1.1199 H       1  UNL1        0.0424
     84 H           5.7676   -3.4332   -1.1468 H       1  UNL1        0.1220
     85 H           5.3285   -1.6382    1.1981 H       1  UNL1        0.0437
     86 H           4.1374   -2.7684    0.4895 H       1  UNL1        0.0437
     87 H           5.5964   -0.5078   -1.0650 H       1  UNL1        0.0439
     88 H           4.3618   -1.5326   -1.7366 H       1  UNL1        0.0439
     89 H           0.9976   -1.3262    1.4912 H       1  UNL1        0.0621
     90 H          -1.2542   -0.5862    2.1330 H       1  UNL1        0.0621
@<TRIPOS>BOND
     1     1     2    1
     2     2     3    1
     3     3     4    1
     4     4     5    1
     5     5     6    1
     6     6     7    1
     7     7     8    1
     8     8     9    1
     9     9    10    1
    10    10    11    1
    11    11    12    1
    12    12    13    1
    13    13    14    1
    14    14    15    1
    15     1    16    1
    16    16    17   ar
    17    17    18   ar
    18    18    19   ar
    19    19    20    1
    20    20    21    1
    21    21    22    1
    22    22    23    1
    23    23    24    1
    24    24    25    1
    25    25    26    1
    26    26    27    1
    27    27    28    1
    28    28    29    1
    29    29    30    1
    30    30    31    1
    31    31    32    1
    32    32    33    1
    33    33    34    1
    34    19    35   ar
    35    35    36   ar
    36    15     2    1
    37    36    16   ar
    38    34    21    1
    39     1    37    1
    40     1    38    1
    41     3    39    1
    42     3    40    1
    43     4    41    1
    44     4    42    1
    45     5    43    1
    46     5    44    1
    47     6    45    1
    48     7    46    1
    49     7    47    1
    50     8    48    1
    51     8    49    1
    52     9    50    1
    53    10    51    1
    54    10    52    1
    55    11    53    1
    56    11    54    1
    57    12    55    1
    58    12    56    1
    59    13    57    1
    60    14    58    1
    61    14    59    1
    62    15    60    1
    63    15    61    1
    64    17    62    1
    65    18    63    1
    66    20    64    1
    67    20    65    1
    68    22    66    1
    69    22    67    1
    70    23    68    1
    71    23    69    1
    72    24    70    1
    73    24    71    1
    74    25    72    1
    75    26    73    1
    76    26    74    1
    77    27    75    1
    78    27    76    1
    79    28    77    1
    80    29    78    1
    81    29    79    1
    82    30    80    1
    83    30    81    1
    84    31    82    1
    85    31    83    1
    86    32    84    1
    87    33    85    1
    88    33    86    1
    89    34    87    1
    90    34    88    1
    91    35    89    1
    92    36    90    1
