
     RDKit          3D

 65 70  0  0  0  0  0  0  0  0999 V2000
   -2.5258   -0.0723   -2.2043 O   0  0  0  0  0  0  0  0  0  0  0  0
   -1.5689    0.2272   -1.4456 C   0  0  0  0  0  0  0  0  0  0  0  0
   -0.3892    0.6451   -2.0360 O   0  0  0  0  0  0  0  0  0  0  0  0
   -1.7703    0.1141    0.0207 C   0  0  2  0  0  0  0  0  0  0  0  0
   -0.8315   -0.9055    0.5937 C   0  0  0  0  0  0  0  0  0  0  0  0
    0.5924   -0.5917    0.3744 C   0  0  0  0  0  0  0  0  0  0  0  0
    1.3308   -1.0578   -0.7059 C   0  0  0  0  0  0  0  0  0  0  0  0
    2.6632   -0.7203   -0.8646 C   0  0  0  0  0  0  0  0  0  0  0  0
    3.3042    0.0883    0.0418 C   0  0  0  0  0  0  0  0  0  0  0  0
    4.6730    0.4719   -0.0661 N   0  0  0  0  0  0  0  0  0  0  0  0
    5.7191   -0.2968    0.2605 C   0  0  0  0  0  0  0  0  0  0  0  0
    5.6881   -1.6925    0.7977 C   0  0  0  0  0  0  0  0  0  0  0  0
    5.6408   -1.8444    2.3156 C   0  0  0  0  0  0  0  0  0  0  0  0
    5.6169   -3.1790    2.6405 F   0  0  0  0  0  0  0  0  0  0  0  0
    4.6047   -1.1547    2.8794 F   0  0  0  0  0  0  0  0  0  0  0  0
    6.8143   -1.3291    2.8785 F   0  0  0  0  0  0  0  0  0  0  0  0
    6.7407   -2.5950    0.1501 C   0  0  0  0  0  0  0  0  0  0  0  0
    5.2790   -2.8329   -0.0384 C   0  0  0  0  0  0  0  0  0  0  0  0
    6.8178    0.4511    0.0043 N   0  0  0  0  0  0  0  0  0  0  0  0
    6.4812    1.6595   -0.4711 C   0  0  0  0  0  0  0  0  0  0  0  0
    7.2189    2.7683   -0.8769 C   0  0  0  0  0  0  0  0  0  0  0  0
    6.5281    3.8743   -1.3230 C   0  0  0  0  0  0  0  0  0  0  0  0
    5.1413    3.8474   -1.3530 C   0  0  0  0  0  0  0  0  0  0  0  0
    4.4382    2.7579   -0.9537 N   0  0  0  0  0  0  0  0  0  0  0  0
    5.1230    1.6794   -0.5183 C   0  0  0  0  0  0  0  0  0  0  0  0
    2.5537    0.5399    1.1068 C   0  0  0  0  0  0  0  0  0  0  0  0
    1.2356    0.2222    1.2880 C   0  0  0  0  0  0  0  0  0  0  0  0
   -3.1273   -0.2975    0.3267 N   0  0  0  0  0  0  0  0  0  0  0  0
   -4.2643    0.4939   -0.0785 C   0  0  0  0  0  0  0  0  0  0  0  0
   -4.3719    1.7312   -0.4080 C   0  0  0  0  0  0  0  0  0  0  0  0
   -3.1159    3.2177   -0.5516 Br  0  0  0  0  0  0  0  0  0  0  0  0
   -5.7706    1.6185   -0.6370 C   0  0  0  0  0  0  0  0  0  0  0  0
   -6.6539    2.4381   -1.0079 O   0  0  0  0  0  0  0  0  0  0  0  0
   -5.6626    0.2245   -0.2631 C   0  0  0  0  0  0  0  0  0  0  0  0
   -6.0135   -0.7788   -1.3500 C   0  0  0  0  0  0  0  0  0  0  0  0
   -7.3487   -1.3870   -1.0082 C   0  0  0  0  0  0  0  0  0  0  0  0
   -8.3192   -0.3292   -0.5466 C   0  0  0  0  0  0  0  0  0  0  0  0
   -7.8854    0.3042    0.7550 C   0  0  0  0  0  0  0  0  0  0  0  0
   -6.4489   -0.0787    1.0060 C   0  0  0  0  0  0  0  0  0  0  0  0
   -0.3080    0.8803   -3.0154 H   0  0  0  0  0  0  0  0  0  0  0  0
   -1.5729    1.1394    0.4428 H   0  0  0  0  0  0  0  0  0  0  0  0
   -0.9986   -1.9205    0.1706 H   0  0  0  0  0  0  0  0  0  0  0  0
   -1.0055   -0.9152    1.6962 H   0  0  0  0  0  0  0  0  0  0  0  0
    0.8108   -1.6999   -1.4049 H   0  0  0  0  0  0  0  0  0  0  0  0
    3.1893   -1.0992   -1.7068 H   0  0  0  0  0  0  0  0  0  0  0  0
    7.2924   -2.2156   -0.7307 H   0  0  0  0  0  0  0  0  0  0  0  0
    7.3454   -3.2536    0.7889 H   0  0  0  0  0  0  0  0  0  0  0  0
    4.8606   -3.7137    0.5086 H   0  0  0  0  0  0  0  0  0  0  0  0
    4.8624   -2.6886   -1.0557 H   0  0  0  0  0  0  0  0  0  0  0  0
    8.3081    2.7294   -0.8302 H   0  0  0  0  0  0  0  0  0  0  0  0
    7.0612    4.7566   -1.6475 H   0  0  0  0  0  0  0  0  0  0  0  0
    4.6435    4.7314   -1.7080 H   0  0  0  0  0  0  0  0  0  0  0  0
    3.0600    1.1866    1.8351 H   0  0  0  0  0  0  0  0  0  0  0  0
    0.6765    0.5921    2.1323 H   0  0  0  0  0  0  0  0  0  0  0  0
   -3.2695   -1.1815    0.8483 H   0  0  0  0  0  0  0  0  0  0  0  0
   -5.2777   -1.6185   -1.3861 H   0  0  0  0  0  0  0  0  0  0  0  0
   -6.1054   -0.3165   -2.3438 H   0  0  0  0  0  0  0  0  0  0  0  0
   -7.8230   -1.8712   -1.8933 H   0  0  0  0  0  0  0  0  0  0  0  0
   -7.2759   -2.1612   -0.1893 H   0  0  0  0  0  0  0  0  0  0  0  0
   -8.4489    0.3995   -1.3709 H   0  0  0  0  0  0  0  0  0  0  0  0
   -9.3211   -0.7946   -0.3734 H   0  0  0  0  0  0  0  0  0  0  0  0
   -7.9411    1.4046    0.6293 H   0  0  0  0  0  0  0  0  0  0  0  0
   -8.5493    0.0047    1.5956 H   0  0  0  0  0  0  0  0  0  0  0  0
   -6.3582   -1.1323    1.2892 H   0  0  0  0  0  0  0  0  0  0  0  0
   -5.9918    0.5261    1.8208 H   0  0  0  0  0  0  0  0  0  0  0  0
  1  2  2  0
  2  3  1  0
  2  4  1  0
  4  5  1  0
  5  6  1  0
  6  7  2  0
  7  8  1  0
  8  9  2  0
  9 10  1  0
 10 11  1  0
 11 12  1  0
 12 13  1  0
 13 14  1  0
 13 15  1  0
 13 16  1  0
 12 17  1  0
 17 18  1  0
 11 19  2  0
 19 20  1  0
 20 21  2  0
 21 22  1  0
 22 23  2  0
 23 24  1  0
 24 25  2  0
  9 26  1  0
 26 27  2  0
  4 28  1  0
 28 29  1  0
 29 30  2  0
 30 31  1  0
 30 32  1  0
 32 33  2  0
 32 34  1  0
 34 35  1  0
 35 36  1  0
 36 37  1  0
 37 38  1  0
 38 39  1  0
 27  6  1  0
 34 29  1  0
 25 10  1  0
 39 34  1  0
 18 12  1  0
 25 20  1  0
  3 40  1  0
  4 41  1  1
  5 42  1  0
  5 43  1  0
  7 44  1  0
  8 45  1  0
 17 46  1  0
 17 47  1  0
 18 48  1  0
 18 49  1  0
 21 50  1  0
 22 51  1  0
 23 52  1  0
 26 53  1  0
 27 54  1  0
 28 55  1  0
 35 56  1  0
 35 57  1  0
 36 58  1  0
 36 59  1  0
 37 60  1  0
 37 61  1  0
 38 62  1  0
 38 63  1  0
 39 64  1  0
 39 65  1  0
M  END
$$$$
