@<TRIPOS>MOLECULE
*****
 65 70 0 0 0
SMALL
GASTEIGER

@<TRIPOS>ATOM
      1 O          -2.5258   -0.0723   -2.2043 O.2     1  UNL1       -0.2489
      2 C          -1.5689    0.2272   -1.4456 C.2     1  UNL1        0.3255
      3 OXT        -0.3892    0.6451   -2.0360 O.3     1  UNL1       -0.4793
      4 CA         -1.7703    0.1141    0.0207 C.3     1  UNL1        0.1221
      5 C          -0.8315   -0.9055    0.5937 C.3     1  UNL1        0.0011
      6 C           0.5924   -0.5917    0.3744 C.ar    1  UNL1       -0.0450
      7 C           1.3308   -1.0578   -0.7059 C.ar    1  UNL1       -0.0565
      8 C           2.6632   -0.7203   -0.8646 C.ar    1  UNL1       -0.0375
      9 C           3.3042    0.0883    0.0418 C.ar    1  UNL1        0.0497
     10 N           4.6730    0.4719   -0.0661 N.ar    1  UNL1       -0.2800
     11 C           5.7191   -0.2968    0.2605 C.ar    1  UNL1        0.1312
     12 C           5.6881   -1.6925    0.7977 C.3     1  UNL1        0.1237
     13 C           5.6408   -1.8444    2.3156 C.3     1  UNL1        0.4023
     14 F           5.6169   -3.1790    2.6405 F       1  UNL1       -0.1696
     15 F           4.6047   -1.1547    2.8794 F       1  UNL1       -0.1696
     16 F           6.8143   -1.3291    2.8785 F       1  UNL1       -0.1696
     17 C           6.7407   -2.5950    0.1501 C.3     1  UNL1       -0.0310
     18 C           5.2790   -2.8329   -0.0384 C.3     1  UNL1       -0.0310
     19 N           6.8178    0.4511    0.0043 N.ar    1  UNL1       -0.2294
     20 C           6.4812    1.6595   -0.4711 C.ar    1  UNL1        0.1086
     21 C           7.2189    2.7683   -0.8769 C.ar    1  UNL1       -0.0312
     22 C           6.5281    3.8743   -1.3230 C.ar    1  UNL1       -0.0414
     23 C           5.1413    3.8474   -1.3530 C.ar    1  UNL1        0.0300
     24 N           4.4382    2.7579   -0.9537 N.ar    1  UNL1       -0.2355
     25 C           5.1230    1.6794   -0.5183 C.ar    1  UNL1        0.1650
     26 C           2.5537    0.5399    1.1068 C.ar    1  UNL1       -0.0375
     27 C           1.2356    0.2222    1.2880 C.ar    1  UNL1       -0.0565
     28 N          -3.1273   -0.2975    0.3267 N.pl3   1  UNL1       -0.3328
     29 C          -4.2643    0.4939   -0.0785 C.2     1  UNL1        0.0359
     30 C          -4.3719    1.7312   -0.4080 C.2     1  UNL1        0.0788
     31 BR         -3.1159    3.2177   -0.5516 Br      1  UNL1       -0.0451
     32 C          -5.7706    1.6185   -0.6370 C.2     1  UNL1        0.1830
     33 O          -6.6539    2.4381   -1.0079 O.2     1  UNL1       -0.2905
     34 C          -5.6626    0.2245   -0.2631 C.3     1  UNL1        0.0728
     35 C          -6.0135   -0.7788   -1.3500 C.3     1  UNL1       -0.0350
     36 C          -7.3487   -1.3870   -1.0082 C.3     1  UNL1       -0.0518
     37 C          -8.3192   -0.3292   -0.5466 C.3     1  UNL1       -0.0530
     38 C          -7.8854    0.3042    0.7550 C.3     1  UNL1       -0.0518
     39 C          -6.4489   -0.0787    1.0060 C.3     1  UNL1       -0.0350
     40 HXT        -0.3080    0.8803   -3.0154 H       1  UNL1        0.2951
     41 HA         -1.5729    1.1394    0.4428 H       1  UNL1        0.0617
     42 H          -0.9986   -1.9205    0.1706 H       1  UNL1        0.0337
     43 H          -1.0055   -0.9152    1.6962 H       1  UNL1        0.0337
     44 H           0.8108   -1.6999   -1.4049 H       1  UNL1        0.0621
     45 H           3.1893   -1.0992   -1.7068 H       1  UNL1        0.0638
     46 H           7.2924   -2.2156   -0.7307 H       1  UNL1        0.0278
     47 H           7.3454   -3.2536    0.7889 H       1  UNL1        0.0278
     48 H           4.8606   -3.7137    0.5086 H       1  UNL1        0.0278
     49 H           4.8624   -2.6886   -1.0557 H       1  UNL1        0.0278
     50 H           8.3081    2.7294   -0.8302 H       1  UNL1        0.0640
     51 H           7.0612    4.7566   -1.6475 H       1  UNL1        0.0633
     52 H           4.6435    4.7314   -1.7080 H       1  UNL1        0.0830
     53 H           3.0600    1.1866    1.8351 H       1  UNL1        0.0638
     54 H           0.6765    0.5921    2.1323 H       1  UNL1        0.0621
     55 H          -3.2695   -1.1815    0.8483 H       1  UNL1        0.1466
     56 H          -5.2777   -1.6185   -1.3861 H       1  UNL1        0.0278
     57 H          -6.1054   -0.3165   -2.3438 H       1  UNL1        0.0278
     58 H          -7.8230   -1.8712   -1.8933 H       1  UNL1        0.0266
     59 H          -7.2759   -2.1612   -0.1893 H       1  UNL1        0.0266
     60 H          -8.4489    0.3995   -1.3709 H       1  UNL1        0.0265
     61 H          -9.3211   -0.7946   -0.3734 H       1  UNL1        0.0265
     62 H          -7.9411    1.4046    0.6293 H       1  UNL1        0.0266
     63 H          -8.5493    0.0047    1.5956 H       1  UNL1        0.0266
     64 H          -6.3582   -1.1323    1.2892 H       1  UNL1        0.0278
     65 H          -5.9918    0.5261    1.8208 H       1  UNL1        0.0278
@<TRIPOS>BOND
     1     1     2    2
     2     2     3    1
     3     2     4    1
     4     4     5    1
     5     5     6    1
     6     6     7   ar
     7     7     8   ar
     8     8     9   ar
     9     9    10    1
    10    10    11   ar
    11    11    12    1
    12    12    13    1
    13    13    14    1
    14    13    15    1
    15    13    16    1
    16    12    17    1
    17    17    18    1
    18    11    19   ar
    19    19    20   ar
    20    20    21   ar
    21    21    22   ar
    22    22    23   ar
    23    23    24   ar
    24    24    25   ar
    25     9    26   ar
    26    26    27   ar
    27     4    28    1
    28    28    29    1
    29    29    30    2
    30    30    31    1
    31    30    32    1
    32    32    33    2
    33    32    34    1
    34    34    35    1
    35    35    36    1
    36    36    37    1
    37    37    38    1
    38    38    39    1
    39    27     6   ar
    40    34    29    1
    41    25    10   ar
    42    39    34    1
    43    18    12    1
    44    25    20   ar
    45     3    40    1
    46     4    41    1
    47     5    42    1
    48     5    43    1
    49     7    44    1
    50     8    45    1
    51    17    46    1
    52    17    47    1
    53    18    48    1
    54    18    49    1
    55    21    50    1
    56    22    51    1
    57    23    52    1
    58    26    53    1
    59    27    54    1
    60    28    55    1
    61    35    56    1
    62    35    57    1
    63    36    58    1
    64    36    59    1
    65    37    60    1
    66    37    61    1
    67    38    62    1
    68    38    63    1
    69    39    64    1
    70    39    65    1
