
     RDKit          3D

 38 41  0  0  0  0  0  0  0  0999 V2000
   -5.9465   -0.1978    0.5620 C   0  0  0  0  0  0  0  0  0  0  0  0
   -4.7608    0.6240    0.4830 N   0  0  0  0  0  0  0  0  0  0  0  0
   -4.7024    1.9628    0.5685 C   0  0  0  0  0  0  0  0  0  0  0  0
   -3.4077    2.4048    0.4510 C   0  0  0  0  0  0  0  0  0  0  0  0
   -2.6436    1.2705    0.2856 C   0  0  0  0  0  0  0  0  0  0  0  0
   -1.2930    1.0523    0.1163 C   0  0  0  0  0  0  0  0  0  0  0  0
   -0.7855   -0.2314   -0.0301 C   0  0  0  0  0  0  0  0  0  0  0  0
   -1.6767   -1.2855   -0.0006 C   0  0  0  0  0  0  0  0  0  0  0  0
   -3.0325   -1.0822    0.1683 C   0  0  0  0  0  0  0  0  0  0  0  0
   -3.4884    0.1961    0.3083 C   0  0  0  0  0  0  0  0  0  0  0  0
   -0.8879   -2.5328   -0.1738 C   0  0  0  0  0  0  0  0  0  0  0  0
    0.3618   -2.0286   -0.8614 C   0  0  0  0  0  0  0  0  0  0  0  0
    0.5446   -0.7412   -0.2188 N   0  0  0  0  0  0  0  0  0  0  0  0
    1.7216   -0.0726    0.1655 C   0  0  0  0  0  0  0  0  0  0  0  0
    1.6983    1.0374    0.7111 O   0  0  0  0  0  0  0  0  0  0  0  0
    3.0035   -0.6644   -0.0660 N   0  0  0  0  0  0  0  0  0  0  0  0
    4.1810    0.0047    0.3186 C   0  0  0  0  0  0  0  0  0  0  0  0
    4.8176    0.8567   -0.5411 C   0  0  0  0  0  0  0  0  0  0  0  0
    5.9689    1.4822   -0.1026 C   0  0  0  0  0  0  0  0  0  0  0  0
    6.4950    1.2809    1.1585 C   0  0  0  0  0  0  0  0  0  0  0  0
    5.8337    0.4335    1.9699 N   0  0  0  0  0  0  0  0  0  0  0  0
    4.7013   -0.2052    1.5897 C   0  0  0  0  0  0  0  0  0  0  0  0
   -6.7829    0.3837    0.9893 H   0  0  0  0  0  0  0  0  0  0  0  0
   -5.7779   -1.1014    1.1949 H   0  0  0  0  0  0  0  0  0  0  0  0
   -6.2446   -0.5205   -0.4526 H   0  0  0  0  0  0  0  0  0  0  0  0
   -5.5485    2.6481    0.7123 H   0  0  0  0  0  0  0  0  0  0  0  0
   -2.9964    3.3908    0.4718 H   0  0  0  0  0  0  0  0  0  0  0  0
   -0.5812    1.8675    0.0917 H   0  0  0  0  0  0  0  0  0  0  0  0
   -3.7285   -1.9335    0.1893 H   0  0  0  0  0  0  0  0  0  0  0  0
   -0.5801   -2.9183    0.8209 H   0  0  0  0  0  0  0  0  0  0  0  0
   -1.4358   -3.2854   -0.7716 H   0  0  0  0  0  0  0  0  0  0  0  0
    1.2326   -2.6953   -0.7177 H   0  0  0  0  0  0  0  0  0  0  0  0
    0.1625   -1.8563   -1.9593 H   0  0  0  0  0  0  0  0  0  0  0  0
    3.0873   -1.6066   -0.5261 H   0  0  0  0  0  0  0  0  0  0  0  0
    4.3982    1.0084   -1.5276 H   0  0  0  0  0  0  0  0  0  0  0  0
    6.4728    2.1534   -0.7763 H   0  0  0  0  0  0  0  0  0  0  0  0
    7.4077    1.7834    1.4919 H   0  0  0  0  0  0  0  0  0  0  0  0
    4.2124   -0.8821    2.2991 H   0  0  0  0  0  0  0  0  0  0  0  0
  1  2  1  0
  2  3  1  0
  3  4  2  0
  4  5  1  0
  5  6  2  0
  6  7  1  0
  7  8  2  0
  8  9  1  0
  9 10  2  0
  8 11  1  0
 11 12  1  0
 12 13  1  0
 13 14  1  0
 14 15  2  0
 14 16  1  0
 16 17  1  0
 17 18  2  0
 18 19  1  0
 19 20  2  0
 20 21  1  0
 21 22  2  0
 10  2  1  0
 22 17  1  0
 10  5  1  0
 13  7  1  0
  1 23  1  0
  1 24  1  0
  1 25  1  0
  3 26  1  0
  4 27  1  0
  6 28  1  0
  9 29  1  0
 11 30  1  0
 11 31  1  0
 12 32  1  0
 12 33  1  0
 16 34  1  0
 18 35  1  0
 19 36  1  0
 20 37  1  0
 22 38  1  0
M  END
$$$$
