@<TRIPOS>MOLECULE
*****
 38 41 0 0 0
SMALL
GASTEIGER

@<TRIPOS>ATOM
      1 C          -5.9465   -0.1978    0.5620 C.3     1  UNL1        0.0119
      2 N          -4.7608    0.6240    0.4830 N.ar    1  UNL1       -0.3497
      3 C          -4.7024    1.9628    0.5685 C.ar    1  UNL1        0.0054
      4 C          -3.4077    2.4048    0.4510 C.ar    1  UNL1       -0.0364
      5 C          -2.6436    1.2705    0.2856 C.ar    1  UNL1        0.0016
      6 C          -1.2930    1.0523    0.1163 C.ar    1  UNL1       -0.0308
      7 C          -0.7855   -0.2314   -0.0301 C.ar    1  UNL1        0.0416
      8 C          -1.6767   -1.2855   -0.0006 C.ar    1  UNL1       -0.0224
      9 C          -3.0325   -1.0822    0.1683 C.ar    1  UNL1       -0.0326
     10 C          -3.4884    0.1961    0.3083 C.ar    1  UNL1        0.0492
     11 C          -0.8879   -2.5328   -0.1738 C.3     1  UNL1       -0.0096
     12 C           0.3618   -2.0286   -0.8614 C.3     1  UNL1        0.0253
     13 N           0.5446   -0.7412   -0.2188 N.am    1  UNL1       -0.2547
     14 C           1.7216   -0.0726    0.1655 C.2     1  UNL1        0.3108
     15 O           1.6983    1.0374    0.7111 O.2     1  UNL1       -0.2519
     16 N           3.0035   -0.6644   -0.0660 N.am    1  UNL1       -0.2677
     17 C           4.1810    0.0047    0.3186 C.ar    1  UNL1        0.0529
     18 C           4.8176    0.8567   -0.5411 C.ar    1  UNL1       -0.0375
     19 C           5.9689    1.4822   -0.1026 C.ar    1  UNL1       -0.0418
     20 C           6.4950    1.2809    1.1585 C.ar    1  UNL1        0.0277
     21 N           5.8337    0.4335    1.9699 N.ar    1  UNL1       -0.2614
     22 C           4.7013   -0.2052    1.5897 C.ar    1  UNL1        0.0488
     23 H          -6.7829    0.3837    0.9893 H       1  UNL1        0.0456
     24 H          -5.7779   -1.1014    1.1949 H       1  UNL1        0.0456
     25 H          -6.2446   -0.5205   -0.4526 H       1  UNL1        0.0456
     26 H          -5.5485    2.6481    0.7123 H       1  UNL1        0.0809
     27 H          -2.9964    3.3908    0.4718 H       1  UNL1        0.0639
     28 H          -0.5812    1.8675    0.0917 H       1  UNL1        0.0643
     29 H          -3.7285   -1.9335    0.1893 H       1  UNL1        0.0642
     30 H          -0.5801   -2.9183    0.8209 H       1  UNL1        0.0329
     31 H          -1.4358   -3.2854   -0.7716 H       1  UNL1        0.0329
     32 H           1.2326   -2.6953   -0.7177 H       1  UNL1        0.0472
     33 H           0.1625   -1.8563   -1.9593 H       1  UNL1        0.0472
     34 H           3.0873   -1.6066   -0.5261 H       1  UNL1        0.1564
     35 H           4.3982    1.0084   -1.5276 H       1  UNL1        0.0637
     36 H           6.4728    2.1534   -0.7763 H       1  UNL1        0.0633
     37 H           7.4077    1.7834    1.4919 H       1  UNL1        0.0829
     38 H           4.2124   -0.8821    2.2991 H       1  UNL1        0.0848
@<TRIPOS>BOND
     1     1     2    1
     2     2     3   ar
     3     3     4   ar
     4     4     5   ar
     5     5     6   ar
     6     6     7   ar
     7     7     8   ar
     8     8     9   ar
     9     9    10   ar
    10     8    11    1
    11    11    12    1
    12    12    13    1
    13    13    14   am
    14    14    15    2
    15    14    16   am
    16    16    17    1
    17    17    18   ar
    18    18    19   ar
    19    19    20   ar
    20    20    21   ar
    21    21    22   ar
    22    10     2   ar
    23    22    17   ar
    24    10     5   ar
    25    13     7    1
    26     1    23    1
    27     1    24    1
    28     1    25    1
    29     3    26    1
    30     4    27    1
    31     6    28    1
    32     9    29    1
    33    11    30    1
    34    11    31    1
    35    12    32    1
    36    12    33    1
    37    16    34    1
    38    18    35    1
    39    19    36    1
    40    20    37    1
    41    22    38    1
