
     RDKit          3D

 61 64  0  0  0  0  0  0  0  0999 V2000
   -4.9052    6.8313   -0.5354 O   0  0  0  0  0  0  0  0  0  0  0  0
   -4.3122    5.8880    0.2589 C   0  0  0  0  0  0  0  0  0  0  0  0
   -4.4842    6.6439    1.2480 O   0  0  0  0  0  0  0  0  0  0  0  0
   -3.6886    4.5803    0.2957 C   0  0  0  0  0  0  0  0  0  0  0  0
   -3.5590    3.8466   -0.8609 C   0  0  0  0  0  0  0  0  0  0  0  0
   -2.9688    2.6057   -0.8370 C   0  0  0  0  0  0  0  0  0  0  0  0
   -2.5271    2.1588    0.3950 C   0  0  0  0  0  0  0  0  0  0  0  0
   -1.9194    0.9193    0.5156 O   0  0  0  0  0  0  0  0  0  0  0  0
   -0.5786    0.6727    0.3993 C   0  0  0  0  0  0  0  0  0  0  0  0
   -0.1662   -0.6368    0.5532 C   0  0  0  0  0  0  0  0  0  0  0  0
   -1.1325   -1.6731    0.8237 N   0  0  0  0  0  0  0  0  0  0  0  0
   -1.6701   -2.2879   -0.3314 C   0  0  0  0  0  0  0  0  0  0  0  0
   -1.2126   -1.8258   -1.4271 O   0  0  0  0  0  0  0  0  0  0  0  0
   -2.6609   -3.3567   -0.2625 C   0  0  0  0  0  0  0  0  0  0  0  0
   -3.1930   -3.8979    0.8900 C   0  0  0  0  0  0  0  0  0  0  0  0
   -4.1300   -4.9119    0.8429 C   0  0  0  0  0  0  0  0  0  0  0  0
   -4.5635   -5.4160   -0.3731 C   0  0  0  0  0  0  0  0  0  0  0  0
   -4.0469   -4.8924   -1.5552 C   0  0  0  0  0  0  0  0  0  0  0  0
   -3.1142   -3.8817   -1.4564 C   0  0  0  0  0  0  0  0  0  0  0  0
   -4.6142   -5.3986    2.0908 N   0  0  0  0  0  4  0  0  0  0  0  0
   -4.1957   -4.9105    3.3119 O   0  0  0  0  0  1  0  0  0  0  0  0
   -5.4603   -6.3116    2.1339 O   0  0  0  0  0  0  0  0  0  0  0  0
    1.1895   -0.9353    0.4431 C   0  0  0  0  0  0  0  0  0  0  0  0
    2.0743    0.0968    0.1826 C   0  0  0  0  0  0  0  0  0  0  0  0
    3.4703   -0.1453    0.0592 N   0  0  0  0  0  0  0  0  0  0  0  0
    4.3110   -0.4663   -1.0349 C   0  0  0  0  0  0  0  0  0  0  0  0
    3.7217   -0.5633   -2.1418 O   0  0  0  0  0  0  0  0  0  0  0  0
    5.7361   -0.6461   -0.7692 C   0  0  0  0  0  0  0  0  0  0  0  0
    6.3971   -0.5454    0.4267 C   0  0  0  0  0  0  0  0  0  0  0  0
    7.7600   -0.7559    0.4556 C   0  0  0  0  0  0  0  0  0  0  0  0
    8.5206   -1.0637   -0.6376 C   0  0  0  0  0  0  0  0  0  0  0  0
    7.8316   -1.1616   -1.8433 C   0  0  0  0  0  0  0  0  0  0  0  0
    6.4648   -0.9569   -1.9093 C   0  0  0  0  0  0  0  0  0  0  0  0
    8.3867   -0.6368    1.7275 N   0  0  0  0  0  4  0  0  0  0  0  0
    9.7390   -0.8237    1.8849 O   0  0  0  0  0  1  0  0  0  0  0  0
    7.8006   -0.3645    2.7735 O   0  0  0  0  0  0  0  0  0  0  0  0
    1.6499    1.4147    0.0288 C   0  0  0  0  0  0  0  0  0  0  0  0
    0.3198    1.7002    0.1379 C   0  0  0  0  0  0  0  0  0  0  0  0
   -2.6686    2.9108    1.5338 C   0  0  0  0  0  0  0  0  0  0  0  0
   -3.2634    4.1657    1.5207 C   0  0  0  0  0  0  0  0  0  0  0  0
   -4.0110    4.2870   -2.1617 C   0  0  0  0  0  0  0  0  0  0  0  0
   -4.6348    5.3880   -2.7140 O   0  0  0  0  0  0  0  0  0  0  0  0
   -3.9107    3.6517   -3.2278 O   0  0  0  0  0  0  0  0  0  0  0  0
   -4.3757    7.5552   -1.0439 H   0  0  0  0  0  0  0  0  0  0  0  0
   -2.8254    1.9661   -1.6830 H   0  0  0  0  0  0  0  0  0  0  0  0
   -1.4416   -1.9790    1.7781 H   0  0  0  0  0  0  0  0  0  0  0  0
   -2.8346   -3.4832    1.8218 H   0  0  0  0  0  0  0  0  0  0  0  0
   -5.2994   -6.2099   -0.3214 H   0  0  0  0  0  0  0  0  0  0  0  0
   -4.4009   -5.3020   -2.4767 H   0  0  0  0  0  0  0  0  0  0  0  0
   -2.7270   -3.4906   -2.3934 H   0  0  0  0  0  0  0  0  0  0  0  0
    1.5385   -1.9535    0.5595 H   0  0  0  0  0  0  0  0  0  0  0  0
    3.7647   -0.0209    1.0541 H   0  0  0  0  0  0  0  0  0  0  0  0
    5.7741   -0.3035    1.2629 H   0  0  0  0  0  0  0  0  0  0  0  0
    9.5877   -1.2134   -0.5268 H   0  0  0  0  0  0  0  0  0  0  0  0
    8.4274   -1.4067   -2.7226 H   0  0  0  0  0  0  0  0  0  0  0  0
    6.0525   -1.0637   -2.9116 H   0  0  0  0  0  0  0  0  0  0  0  0
    2.3438    2.2048   -0.1726 H   0  0  0  0  0  0  0  0  0  0  0  0
   -0.0838    2.6974    0.0310 H   0  0  0  0  0  0  0  0  0  0  0  0
   -2.3044    2.5179    2.4880 H   0  0  0  0  0  0  0  0  0  0  0  0
   -3.3762    4.7597    2.4149 H   0  0  0  0  0  0  0  0  0  0  0  0
   -5.6013    5.4295   -2.9464 H   0  0  0  0  0  0  0  0  0  0  0  0
  1  2  1  0
  2  3  2  0
  2  4  1  0
  4  5  2  0
  5  6  1  0
  6  7  2  0
  7  8  1  0
  8  9  1  0
  9 10  1  0
 10 11  1  0
 11 12  1  0
 12 13  2  0
 12 14  1  0
 14 15  2  0
 15 16  1  0
 16 17  2  0
 17 18  1  0
 18 19  2  0
 16 20  1  0
 20 21  1  0
 20 22  2  0
 10 23  2  0
 23 24  1  0
 24 25  1  0
 25 26  1  0
 26 27  2  0
 26 28  1  0
 28 29  2  0
 29 30  1  0
 30 31  2  0
 31 32  1  0
 32 33  2  0
 30 34  1  0
 34 35  1  0
 34 36  2  0
 24 37  2  0
 37 38  1  0
  7 39  1  0
 39 40  2  0
  5 41  1  0
 41 42  1  0
 41 43  2  0
 40  4  1  0
 38  9  2  0
 19 14  1  0
 33 28  1  0
  1 44  1  0
  6 45  1  0
 11 46  1  0
 15 47  1  0
 17 48  1  0
 18 49  1  0
 19 50  1  0
 23 51  1  0
 25 52  1  0
 29 53  1  0
 31 54  1  0
 32 55  1  0
 33 56  1  0
 37 57  1  0
 38 58  1  0
 39 59  1  0
 40 60  1  0
 42 61  1  0
M  CHG  4  20   1  21  -1  34   1  35  -1
M  END
$$$$
