@<TRIPOS>MOLECULE
*****
 55 57 0 0 0
SMALL
GASTEIGER

@<TRIPOS>ATOM
      1 C           6.8159   -0.9617    0.8502 C.3     1  UNL1       -0.0638
      2 C           6.1997   -0.0548   -0.1910 C.3     1  UNL1       -0.0350
      3 C           4.7004    0.0674    0.0011 C.3     1  UNL1        0.0817
      4 S           3.9383   -1.5306   -0.1329 S.O2    1  UNL1        0.0318
      5 O           4.5055   -2.4003    0.9582 O.2     1  UNL1       -0.1580
      6 O           4.2522   -2.1100   -1.4630 O.2     1  UNL1       -0.1580
      7 N           2.2542   -1.4734    0.0728 N.3     1  UNL1       -0.1811
      8 C           1.8347   -0.9869    1.3784 C.3     1  UNL1        0.0210
      9 C           1.1627    0.3733    1.2344 C.3     1  UNL1       -0.0260
     10 C          -0.1586    0.1969    0.4404 C.3     1  UNL1        0.0308
     11 C          -1.2750   -0.0323    1.4135 C.3     1  UNL1        0.0230
     12 N          -2.5927   -0.1706    0.9602 N.am    1  UNL1       -0.3104
     13 C          -3.2143   -1.1248    0.1482 C.2     1  UNL1        0.2455
     14 O          -2.5806   -2.0823   -0.3089 O.2     1  UNL1       -0.2702
     15 C          -4.6485   -1.0648   -0.2194 C.ar    1  UNL1        0.0550
     16 C          -5.0741   -0.9619   -1.5074 C.ar    1  UNL1       -0.0482
     17 C          -6.4340   -0.9137   -1.7329 C.ar    1  UNL1       -0.0610
     18 C          -7.3372   -0.9678   -0.6901 C.ar    1  UNL1       -0.0603
     19 C          -6.8879   -1.0716    0.6008 C.ar    1  UNL1       -0.0427
     20 C          -5.5299   -1.1208    0.8421 C.ar    1  UNL1        0.0531
     21 CL         -4.9952   -1.2531    2.5041 Cl      1  UNL1       -0.0828
     22 C          -0.4399    1.4800   -0.2329 C.ar    1  UNL1        0.0490
     23 C           0.1691    2.6262    0.1846 C.ar    1  UNL1       -0.0398
     24 C          -0.0800    3.8231   -0.4596 C.ar    1  UNL1       -0.0586
     25 C          -0.9391    3.8899   -1.5257 C.ar    1  UNL1       -0.0436
     26 C          -1.5384    2.7167   -1.9224 C.ar    1  UNL1        0.0279
     27 N          -1.2867    1.5585   -1.2868 N.ar    1  UNL1       -0.2593
     28 C           0.0489   -0.8788   -0.5839 C.3     1  UNL1       -0.0260
     29 C           1.5485   -0.7614   -0.9856 C.3     1  UNL1        0.0210
     30 H           6.2706   -0.9218    1.8179 H       1  UNL1        0.0230
     31 H           7.8790   -0.7153    1.0602 H       1  UNL1        0.0230
     32 H           6.7726   -2.0295    0.5285 H       1  UNL1        0.0230
     33 H           6.4344   -0.4741   -1.2086 H       1  UNL1        0.0279
     34 H           6.6679    0.9341   -0.0956 H       1  UNL1        0.0279
     35 H           4.5342    0.5209    0.9987 H       1  UNL1        0.0515
     36 H           4.3269    0.7654   -0.7823 H       1  UNL1        0.0515
     37 H           1.1466   -1.7178    1.8119 H       1  UNL1        0.0444
     38 H           2.7368   -0.8348    1.9823 H       1  UNL1        0.0444
     39 H           0.8765    0.7056    2.2334 H       1  UNL1        0.0288
     40 H           1.8452    1.0725    0.7621 H       1  UNL1        0.0288
     41 H          -0.9287   -0.9519    2.0158 H       1  UNL1        0.0471
     42 H          -1.2622    0.7524    2.2312 H       1  UNL1        0.0471
     43 H          -3.3053    0.6019    1.2822 H       1  UNL1        0.1490
     44 H          -4.3635   -0.9208   -2.3081 H       1  UNL1        0.0625
     45 H          -6.8410   -0.8323   -2.7280 H       1  UNL1        0.0618
     46 H          -8.4230   -0.9298   -0.8636 H       1  UNL1        0.0618
     47 H          -7.5783   -1.1162    1.4449 H       1  UNL1        0.0632
     48 H           0.8634    2.6774    1.0463 H       1  UNL1        0.0636
     49 H           0.4268    4.7332   -0.1002 H       1  UNL1        0.0619
     50 H          -1.1385    4.8434   -2.0399 H       1  UNL1        0.0633
     51 H          -2.2301    2.7352   -2.7706 H       1  UNL1        0.0829
     52 H          -0.5724   -0.7336   -1.4705 H       1  UNL1        0.0288
     53 H          -0.0408   -1.8911   -0.1665 H       1  UNL1        0.0288
     54 H           1.6327   -1.3580   -1.9144 H       1  UNL1        0.0444
     55 H           1.8524    0.2746   -1.1136 H       1  UNL1        0.0444
@<TRIPOS>BOND
     1     1     2    1
     2     2     3    1
     3     3     4    1
     4     4     5    2
     5     4     6    2
     6     4     7    1
     7     7     8    1
     8     8     9    1
     9     9    10    1
    10    10    11    1
    11    11    12    1
    12    12    13   am
    13    13    14    2
    14    13    15    1
    15    15    16   ar
    16    16    17   ar
    17    17    18   ar
    18    18    19   ar
    19    19    20   ar
    20    20    21    1
    21    10    22    1
    22    22    23   ar
    23    23    24   ar
    24    24    25   ar
    25    25    26   ar
    26    26    27   ar
    27    10    28    1
    28    28    29    1
    29    29     7    1
    30    20    15   ar
    31    27    22   ar
    32     1    30    1
    33     1    31    1
    34     1    32    1
    35     2    33    1
    36     2    34    1
    37     3    35    1
    38     3    36    1
    39     8    37    1
    40     8    38    1
    41     9    39    1
    42     9    40    1
    43    11    41    1
    44    11    42    1
    45    12    43    1
    46    16    44    1
    47    17    45    1
    48    18    46    1
    49    19    47    1
    50    23    48    1
    51    24    49    1
    52    25    50    1
    53    26    51    1
    54    28    52    1
    55    28    53    1
    56    29    54    1
    57    29    55    1
