
     RDKit          3D

 55 57  0  0  0  0  0  0  0  0999 V2000
    6.8159   -0.9617    0.8502 C   0  0  0  0  0  0  0  0  0  0  0  0
    6.1997   -0.0548   -0.1910 C   0  0  0  0  0  0  0  0  0  0  0  0
    4.7004    0.0674    0.0011 C   0  0  0  0  0  0  0  0  0  0  0  0
    3.9383   -1.5306   -0.1329 S   0  0  0  0  0  6  0  0  0  0  0  0
    4.5055   -2.4003    0.9582 O   0  0  0  0  0  0  0  0  0  0  0  0
    4.2522   -2.1100   -1.4630 O   0  0  0  0  0  0  0  0  0  0  0  0
    2.2542   -1.4734    0.0728 N   0  0  0  0  0  0  0  0  0  0  0  0
    1.8347   -0.9869    1.3784 C   0  0  0  0  0  0  0  0  0  0  0  0
    1.1627    0.3733    1.2344 C   0  0  0  0  0  0  0  0  0  0  0  0
   -0.1586    0.1969    0.4404 C   0  0  0  0  0  0  0  0  0  0  0  0
   -1.2750   -0.0323    1.4135 C   0  0  0  0  0  0  0  0  0  0  0  0
   -2.5927   -0.1706    0.9602 N   0  0  0  0  0  0  0  0  0  0  0  0
   -3.2143   -1.1248    0.1482 C   0  0  0  0  0  0  0  0  0  0  0  0
   -2.5806   -2.0823   -0.3089 O   0  0  0  0  0  0  0  0  0  0  0  0
   -4.6485   -1.0648   -0.2194 C   0  0  0  0  0  0  0  0  0  0  0  0
   -5.0741   -0.9619   -1.5074 C   0  0  0  0  0  0  0  0  0  0  0  0
   -6.4340   -0.9137   -1.7329 C   0  0  0  0  0  0  0  0  0  0  0  0
   -7.3372   -0.9678   -0.6901 C   0  0  0  0  0  0  0  0  0  0  0  0
   -6.8879   -1.0716    0.6008 C   0  0  0  0  0  0  0  0  0  0  0  0
   -5.5299   -1.1208    0.8421 C   0  0  0  0  0  0  0  0  0  0  0  0
   -4.9952   -1.2531    2.5041 Cl  0  0  0  0  0  0  0  0  0  0  0  0
   -0.4399    1.4800   -0.2329 C   0  0  0  0  0  0  0  0  0  0  0  0
    0.1691    2.6262    0.1846 C   0  0  0  0  0  0  0  0  0  0  0  0
   -0.0800    3.8231   -0.4596 C   0  0  0  0  0  0  0  0  0  0  0  0
   -0.9391    3.8899   -1.5257 C   0  0  0  0  0  0  0  0  0  0  0  0
   -1.5384    2.7167   -1.9224 C   0  0  0  0  0  0  0  0  0  0  0  0
   -1.2867    1.5585   -1.2868 N   0  0  0  0  0  0  0  0  0  0  0  0
    0.0489   -0.8788   -0.5839 C   0  0  0  0  0  0  0  0  0  0  0  0
    1.5485   -0.7614   -0.9856 C   0  0  0  0  0  0  0  0  0  0  0  0
    6.2706   -0.9218    1.8179 H   0  0  0  0  0  0  0  0  0  0  0  0
    7.8790   -0.7153    1.0602 H   0  0  0  0  0  0  0  0  0  0  0  0
    6.7726   -2.0295    0.5285 H   0  0  0  0  0  0  0  0  0  0  0  0
    6.4344   -0.4741   -1.2086 H   0  0  0  0  0  0  0  0  0  0  0  0
    6.6679    0.9341   -0.0956 H   0  0  0  0  0  0  0  0  0  0  0  0
    4.5342    0.5209    0.9987 H   0  0  0  0  0  0  0  0  0  0  0  0
    4.3269    0.7654   -0.7823 H   0  0  0  0  0  0  0  0  0  0  0  0
    1.1466   -1.7178    1.8119 H   0  0  0  0  0  0  0  0  0  0  0  0
    2.7368   -0.8348    1.9823 H   0  0  0  0  0  0  0  0  0  0  0  0
    0.8765    0.7056    2.2334 H   0  0  0  0  0  0  0  0  0  0  0  0
    1.8452    1.0725    0.7621 H   0  0  0  0  0  0  0  0  0  0  0  0
   -0.9287   -0.9519    2.0158 H   0  0  0  0  0  0  0  0  0  0  0  0
   -1.2622    0.7524    2.2312 H   0  0  0  0  0  0  0  0  0  0  0  0
   -3.3053    0.6019    1.2822 H   0  0  0  0  0  0  0  0  0  0  0  0
   -4.3635   -0.9208   -2.3081 H   0  0  0  0  0  0  0  0  0  0  0  0
   -6.8410   -0.8323   -2.7280 H   0  0  0  0  0  0  0  0  0  0  0  0
   -8.4230   -0.9298   -0.8636 H   0  0  0  0  0  0  0  0  0  0  0  0
   -7.5783   -1.1162    1.4449 H   0  0  0  0  0  0  0  0  0  0  0  0
    0.8634    2.6774    1.0463 H   0  0  0  0  0  0  0  0  0  0  0  0
    0.4268    4.7332   -0.1002 H   0  0  0  0  0  0  0  0  0  0  0  0
   -1.1385    4.8434   -2.0399 H   0  0  0  0  0  0  0  0  0  0  0  0
   -2.2301    2.7352   -2.7706 H   0  0  0  0  0  0  0  0  0  0  0  0
   -0.5724   -0.7336   -1.4705 H   0  0  0  0  0  0  0  0  0  0  0  0
   -0.0408   -1.8911   -0.1665 H   0  0  0  0  0  0  0  0  0  0  0  0
    1.6327   -1.3580   -1.9144 H   0  0  0  0  0  0  0  0  0  0  0  0
    1.8524    0.2746   -1.1136 H   0  0  0  0  0  0  0  0  0  0  0  0
  1  2  1  0
  2  3  1  0
  3  4  1  0
  4  5  2  0
  4  6  2  0
  4  7  1  0
  7  8  1  0
  8  9  1  0
  9 10  1  0
 10 11  1  0
 11 12  1  0
 12 13  1  0
 13 14  2  0
 13 15  1  0
 15 16  2  0
 16 17  1  0
 17 18  2  0
 18 19  1  0
 19 20  2  0
 20 21  1  0
 10 22  1  0
 22 23  2  0
 23 24  1  0
 24 25  2  0
 25 26  1  0
 26 27  2  0
 10 28  1  0
 28 29  1  0
 29  7  1  0
 20 15  1  0
 27 22  1  0
  1 30  1  0
  1 31  1  0
  1 32  1  0
  2 33  1  0
  2 34  1  0
  3 35  1  0
  3 36  1  0
  8 37  1  0
  8 38  1  0
  9 39  1  0
  9 40  1  0
 11 41  1  0
 11 42  1  0
 12 43  1  0
 16 44  1  0
 17 45  1  0
 18 46  1  0
 19 47  1  0
 23 48  1  0
 24 49  1  0
 25 50  1  0
 26 51  1  0
 28 52  1  0
 28 53  1  0
 29 54  1  0
 29 55  1  0
M  END
$$$$
