@<TRIPOS>MOLECULE
*****
 33 33 0 0 0
SMALL
GASTEIGER

@<TRIPOS>ATOM
      1 C          -4.6487   -0.6248    0.4410 C.3     1  UNL1       -0.0624
      2 C          -3.2659   -0.0690    0.1662 C.3     1  UNL1       -0.0427
      3 C          -2.9776    1.1405    0.9702 C.3     1  UNL1       -0.0624
      4 C          -2.2594   -1.1700    0.2995 C.3     1  UNL1       -0.0253
      5 C          -0.8601   -0.7787    0.0595 C.ar    1  UNL1       -0.0471
      6 C          -0.0108   -0.3248    1.0760 C.ar    1  UNL1       -0.0583
      7 C           1.2918    0.0281    0.7906 C.ar    1  UNL1       -0.0575
      8 C           1.8253   -0.0415   -0.4767 C.ar    1  UNL1       -0.0339
      9 C           0.9774   -0.4895   -1.4641 C.ar    1  UNL1       -0.0575
     10 C          -0.3346   -0.8562   -1.2374 C.ar    1  UNL1       -0.0583
     11 C           3.2113    0.3207   -0.8519 C.3     1  UNL1        0.0784
     12 C           3.3973    1.7947   -0.6063 C.3     1  UNL1       -0.0482
     13 C           4.1965   -0.4951   -0.0990 C.2     1  UNL1        0.3119
     14 O           5.5180   -0.1569   -0.4502 O.3     1  UNL1       -0.4802
     15 O           4.0859   -1.4021    0.7653 O.2     1  UNL1       -0.2503
     16 H          -5.3775    0.2273    0.4895 H       1  UNL1        0.0232
     17 H          -4.6492   -1.1402    1.4234 H       1  UNL1        0.0232
     18 H          -4.9570   -1.3335   -0.3543 H       1  UNL1        0.0232
     19 H          -3.3070    0.2557   -0.9105 H       1  UNL1        0.0299
     20 H          -1.9232    1.3429    1.1683 H       1  UNL1        0.0232
     21 H          -3.4885    1.0636    1.9523 H       1  UNL1        0.0232
     22 H          -3.4130    2.0662    0.4994 H       1  UNL1        0.0232
     23 H          -2.3605   -1.6731    1.2908 H       1  UNL1        0.0316
     24 H          -2.4895   -1.9638   -0.4411 H       1  UNL1        0.0316
     25 H          -0.3842   -0.2536    2.0843 H       1  UNL1        0.0620
     26 H           1.9658    0.3834    1.5709 H       1  UNL1        0.0621
     27 H           1.3433   -0.5642   -2.4783 H       1  UNL1        0.0621
     28 H          -0.9513   -1.2046   -2.0766 H       1  UNL1        0.0620
     29 H           3.3974    0.1733   -1.9559 H       1  UNL1        0.0459
     30 H           2.9202    2.3340   -1.4574 H       1  UNL1        0.0241
     31 H           4.4496    2.0727   -0.4353 H       1  UNL1        0.0241
     32 H           2.7736    2.0420    0.2895 H       1  UNL1        0.0241
     33 H           6.3047   -0.7034   -0.0710 H       1  UNL1        0.2951
@<TRIPOS>BOND
     1     1     2    1
     2     2     3    1
     3     2     4    1
     4     4     5    1
     5     5     6   ar
     6     6     7   ar
     7     7     8   ar
     8     8     9   ar
     9     9    10   ar
    10     8    11    1
    11    11    12    1
    12    11    13    1
    13    13    14    1
    14    13    15    2
    15    10     5   ar
    16     1    16    1
    17     1    17    1
    18     1    18    1
    19     2    19    1
    20     3    20    1
    21     3    21    1
    22     3    22    1
    23     4    23    1
    24     4    24    1
    25     6    25    1
    26     7    26    1
    27     9    27    1
    28    10    28    1
    29    11    29    1
    30    12    30    1
    31    12    31    1
    32    12    32    1
    33    14    33    1
