@<TRIPOS>MOLECULE
*****
 48 51 0 0 0
SMALL
GASTEIGER

@<TRIPOS>ATOM
      1 C           5.6245   -1.1476   -2.5738 C.3     1  UNL1       -0.0222
      2 C           5.0794   -0.4882   -1.3474 C.ar    1  UNL1        0.0441
      3 C           5.8619   -0.0066   -0.3475 C.ar    1  UNL1       -0.0081
      4 CA          5.2560    0.5829    0.7385 C.ar    1  UNL1        0.1527
      5 C           6.0919    1.1006    1.8129 C.2     1  UNL1        0.3555
      6 O           7.3339    0.9954    1.7193 O.2     1  UNL1       -0.2434
      7 OXT         5.5544    1.7074    2.9382 O.3     1  UNL1       -0.4761
      8 N           3.9011    0.6739    0.7947 N.ar    1  UNL1       -0.2077
      9 C           3.1117    0.2002   -0.1906 C.ar    1  UNL1        0.2188
     10 N           1.7071    0.2863   -0.1483 N.pl3   1  UNL1       -0.2991
     11 C           0.8932    0.8575    0.8821 C.3     1  UNL1        0.0180
     12 C          -0.2787   -0.0679    0.9237 C.3     1  UNL1       -0.0204
     13 C          -1.6163    0.6819    0.8058 C.3     1  UNL1       -0.0416
     14 C          -2.4714   -0.4016    0.2375 C.3     1  UNL1       -0.0147
     15 C          -3.8273   -0.0670   -0.1253 C.ar    1  UNL1       -0.0326
     16 C          -4.1015    0.5863   -1.3071 C.ar    1  UNL1       -0.0578
     17 C          -5.4120    0.9230   -1.6634 C.ar    1  UNL1       -0.0615
     18 C          -6.4526    0.6090   -0.8422 C.ar    1  UNL1       -0.0612
     19 C          -6.1960   -0.0391    0.3331 C.ar    1  UNL1       -0.0498
     20 C          -4.8832   -0.3740    0.6853 C.ar    1  UNL1        0.0582
     21 C          -4.6943   -1.0731    1.9505 C.3     1  UNL1        0.4177
     22 F          -3.8906   -0.3322    2.7847 F       1  UNL1       -0.1659
     23 F          -4.2381   -2.3685    1.8037 F       1  UNL1       -0.1659
     24 F          -5.9039   -1.2073    2.6533 F       1  UNL1       -0.1659
     25 C          -1.6129   -0.8076   -0.9734 C.3     1  UNL1       -0.0416
     26 C          -0.2337   -0.9120   -0.3236 C.3     1  UNL1       -0.0204
     27 C           0.8097   -0.1951   -1.1561 C.3     1  UNL1        0.0180
     28 N           3.7593   -0.3755   -1.2461 N.ar    1  UNL1       -0.2196
     29 H           4.9872   -0.8739   -3.4426 H       1  UNL1        0.0293
     30 H           6.6556   -0.8464   -2.7822 H       1  UNL1        0.0293
     31 H           5.5246   -2.2638   -2.4520 H       1  UNL1        0.0293
     32 H           6.9333   -0.1068   -0.4466 H       1  UNL1        0.0659
     33 HXT         6.0961    2.3692    3.4997 H       1  UNL1        0.2955
     34 H           0.5403    1.8932    0.6055 H       1  UNL1        0.0467
     35 H           1.4147    0.9498    1.8512 H       1  UNL1        0.0467
     36 H          -0.2988   -0.6875    1.8422 H       1  UNL1        0.0319
     37 H          -1.4942    1.4968    0.0574 H       1  UNL1        0.0274
     38 H          -1.8471    1.0414    1.7955 H       1  UNL1        0.0274
     39 H          -2.3821   -1.2853    0.9191 H       1  UNL1        0.0349
     40 H          -3.3516    0.8797   -2.0261 H       1  UNL1        0.0620
     41 H          -5.6239    1.4417   -2.6029 H       1  UNL1        0.0618
     42 H          -7.4921    0.8695   -1.1123 H       1  UNL1        0.0618
     43 H          -7.0215   -0.2881    0.9846 H       1  UNL1        0.0623
     44 H          -1.5350    0.0168   -1.7052 H       1  UNL1        0.0274
     45 H          -1.9363   -1.7633   -1.3973 H       1  UNL1        0.0274
     46 H           0.0488   -1.9657   -0.1291 H       1  UNL1        0.0319
     47 H           1.2936   -0.8730   -1.8860 H       1  UNL1        0.0467
     48 H           0.3169    0.6544   -1.6735 H       1  UNL1        0.0467
@<TRIPOS>BOND
     1     1     2    1
     2     2     3   ar
     3     3     4   ar
     4     4     5    1
     5     5     6    2
     6     5     7    1
     7     4     8   ar
     8     8     9   ar
     9     9    10    1
    10    10    11    1
    11    11    12    1
    12    12    13    1
    13    13    14    1
    14    14    15    1
    15    15    16   ar
    16    16    17   ar
    17    17    18   ar
    18    18    19   ar
    19    19    20   ar
    20    20    21    1
    21    21    22    1
    22    21    23    1
    23    21    24    1
    24    14    25    1
    25    25    26    1
    26    26    27    1
    27     9    28   ar
    28    28     2   ar
    29    27    10    1
    30    26    12    1
    31    20    15   ar
    32     1    29    1
    33     1    30    1
    34     1    31    1
    35     3    32    1
    36     7    33    1
    37    11    34    1
    38    11    35    1
    39    12    36    1
    40    13    37    1
    41    13    38    1
    42    14    39    1
    43    16    40    1
    44    17    41    1
    45    18    42    1
    46    19    43    1
    47    25    44    1
    48    25    45    1
    49    26    46    1
    50    27    47    1
    51    27    48    1
