@<TRIPOS>MOLECULE
*****
 48 51 0 0 0
SMALL
GASTEIGER

@<TRIPOS>ATOM
      1 O           6.6974    1.1240    2.7563 O.2     1  UNL1       -0.2681
      2 C           6.7608    0.6481    1.5994 C.2     1  UNL1        0.2665
      3 N           8.0415    0.4306    1.0531 N.am    1  UNL1       -0.1935
      4 O           9.1853    0.7159    1.7297 O.3     1  UNL1       -0.2949
      5 C           5.5235    0.3519    0.8975 C.ar    1  UNL1        0.0390
      6 C           5.4805   -0.1673   -0.3768 C.ar    1  UNL1       -0.0493
      7 C           4.2981   -0.4430   -1.0276 C.ar    1  UNL1       -0.0575
      8 C           3.0816   -0.2068   -0.4209 C.ar    1  UNL1       -0.0417
      9 C           3.0893    0.3117    0.8525 C.ar    1  UNL1       -0.0294
     10 C           4.2889    0.5825    1.4908 C.ar    1  UNL1       -0.0449
     11 C           1.8231    0.5982    1.5852 C.3     1  UNL1        0.0248
     12 N           0.6493    0.3359    0.8355 N.3     1  UNL1       -0.2907
     13 C          -0.1271   -0.7675    1.2956 C.3     1  UNL1        0.0574
     14 C          -1.3564   -0.9293    0.4410 C.ar    1  UNL1        0.1197
     15 C          -1.5159   -1.6997   -0.6901 C.ar    1  UNL1       -0.0188
     16 C          -2.8228   -1.4941   -1.0851 C.ar    1  UNL1       -0.0156
     17 C          -3.4156   -0.6180   -0.1985 C.ar    1  UNL1        0.1355
     18 C          -4.8014   -0.1560   -0.2850 C.ar    1  UNL1        0.0237
     19 C          -5.3324    0.7227    0.6356 C.ar    1  UNL1       -0.0507
     20 C          -6.6524    1.1595    0.5499 C.ar    1  UNL1       -0.0547
     21 C          -7.4806    0.7214   -0.4716 C.ar    1  UNL1        0.0156
     22 C          -6.9510   -0.1573   -1.3928 C.ar    1  UNL1        0.2738
     23 N          -7.8087   -0.6008   -2.4368 N.pl3   1  UNL1        0.0796
     24 O          -7.3505   -1.3988   -3.2861 O.2     1  UNL1        0.0414
     25 O          -9.0971   -0.2093   -2.5674 O.co2   1  UNL1       -0.5760
     26 C          -5.6438   -0.5810   -1.2957 C.ar    1  UNL1        0.0262
     27 O          -2.4994   -0.3231    0.6760 O.2     1  UNL1       -0.4584
     28 C           0.7731    0.4565   -0.5793 C.3     1  UNL1        0.0036
     29 C           1.7994   -0.5139   -1.1466 C.3     1  UNL1       -0.0145
     30 H           8.1225    0.0363    0.0957 H       1  UNL1        0.1825
     31 H           9.8818    0.9310    1.0603 H       1  UNL1        0.2414
     32 H           6.4404   -0.3642   -0.8818 H       1  UNL1        0.0625
     33 H           4.3154   -0.8504   -2.0288 H       1  UNL1        0.0621
     34 H           4.3187    0.9969    2.5080 H       1  UNL1        0.0628
     35 H           1.8333   -0.0621    2.4921 H       1  UNL1        0.0476
     36 H           1.8181    1.6541    1.9374 H       1  UNL1        0.0476
     37 H           0.4117   -1.7396    1.2620 H       1  UNL1        0.0507
     38 H          -0.4906   -0.6512    2.3347 H       1  UNL1        0.0507
     39 H          -0.7549   -2.3199   -1.1400 H       1  UNL1        0.0652
     40 H          -3.3098   -1.9391   -1.9425 H       1  UNL1        0.0655
     41 H          -4.6988    1.0820    1.4498 H       1  UNL1        0.0625
     42 H          -7.0884    1.8482    1.2611 H       1  UNL1        0.0620
     43 H          -8.5110    1.0559   -0.5473 H       1  UNL1        0.0685
     44 H          -5.2402   -1.2711   -2.0256 H       1  UNL1        0.0692
     45 H           1.1679    1.4737   -0.7943 H       1  UNL1        0.0430
     46 H          -0.2231    0.3476   -1.0429 H       1  UNL1        0.0430
     47 H           1.4866   -1.5304   -0.9088 H       1  UNL1        0.0326
     48 H           1.8837   -0.3198   -2.2272 H       1  UNL1        0.0326
@<TRIPOS>UNITY_ATOM_ATTR
23 1
charge 1
25 1
charge -1
@<TRIPOS>BOND
     1     1     2    2
     2     2     3   am
     3     3     4    1
     4     2     5    1
     5     5     6   ar
     6     6     7   ar
     7     7     8   ar
     8     8     9   ar
     9     9    10   ar
    10     9    11    1
    11    11    12    1
    12    12    13    1
    13    13    14    1
    14    14    15   ar
    15    15    16   ar
    16    16    17   ar
    17    17    18    1
    18    18    19   ar
    19    19    20   ar
    20    20    21   ar
    21    21    22   ar
    22    22    23    1
    23    23    24    2
    24    23    25    1
    25    22    26   ar
    26    17    27   ar
    27    12    28    1
    28    28    29    1
    29    10     5   ar
    30    27    14   ar
    31    29     8    1
    32    26    18   ar
    33     3    30    1
    34     4    31    1
    35     6    32    1
    36     7    33    1
    37    10    34    1
    38    11    35    1
    39    11    36    1
    40    13    37    1
    41    13    38    1
    42    15    39    1
    43    16    40    1
    44    19    41    1
    45    20    42    1
    46    21    43    1
    47    26    44    1
    48    28    45    1
    49    28    46    1
    50    29    47    1
    51    29    48    1
