@<TRIPOS>MOLECULE
*****
 56 59 0 0 0
SMALL
GASTEIGER

@<TRIPOS>ATOM
      1 C          -0.7097    5.0408    1.4792 C.3     1  UNL1        0.0015
      2 N          -0.7951    3.7504    0.7479 N.am    1  UNL1       -0.3019
      3 C           0.2587    2.8237    0.8116 C.2     1  UNL1        0.3103
      4 O           1.2594    3.1694    1.5366 O.2     1  UNL1       -0.2521
      5 N           0.3106    1.5614    0.1514 N.am    1  UNL1       -0.1973
      6 C           1.4888    0.8003    0.3908 C.2     1  UNL1        0.3216
      7 O           2.2980    1.1210    1.3328 O.2     1  UNL1       -0.2512
      8 N           1.8232   -0.3263   -0.3806 N.am    1  UNL1       -0.2271
      9 C           3.0064   -1.0563   -0.1732 C.ar    1  UNL1        0.0430
     10 C           4.1573   -0.6995   -0.8266 C.ar    1  UNL1       -0.0399
     11 C           5.3432   -1.3857   -0.6734 C.ar    1  UNL1       -0.0595
     12 C           5.3819   -2.4928    0.1816 C.ar    1  UNL1       -0.0500
     13 C           4.2418   -2.8638    0.8430 C.ar    1  UNL1        0.0566
     14 C           4.3395   -4.0423    1.7416 C.3     1  UNL1        0.4175
     15 F           3.1382   -4.6965    1.8737 F       1  UNL1       -0.1659
     16 F           4.8608   -3.5883    2.9371 F       1  UNL1       -0.1659
     17 F           5.2917   -4.9178    1.2070 F       1  UNL1       -0.1659
     18 C           3.0577   -2.1559    0.6728 C.ar    1  UNL1       -0.0283
     19 C           0.8804   -0.6495   -1.3969 C.2     1  UNL1        0.0290
     20 C          -0.2236    0.0048   -1.5964 C.2     1  UNL1        0.0380
     21 C          -0.9143   -0.6153   -2.7713 C.2     1  UNL1        0.1632
     22 O          -1.6593   -0.1615   -3.6274 O.2     1  UNL1       -0.2923
     23 C          -0.4780   -2.0658   -2.7125 C.3     1  UNL1        0.0154
     24 C           0.9958   -1.8110   -2.3703 C.3     1  UNL1       -0.0064
     25 C          -0.7886    1.0794   -0.7266 C.3     1  UNL1        0.0932
     26 C          -1.7944    0.5874    0.2666 C.ar    1  UNL1        0.0029
     27 C          -1.3563   -0.1935    1.3086 C.ar    1  UNL1       -0.0534
     28 C          -2.1407   -0.5443    2.4059 C.ar    1  UNL1       -0.0439
     29 C          -3.4376   -0.0710    2.4350 C.ar    1  UNL1        0.0536
     30 C          -4.3207   -0.3703    3.5491 C.1     1  UNL1        0.0992
     31 N          -5.0378   -0.6154    4.4319 N.1     1  UNL1       -0.1909
     32 C          -3.8988    0.6911    1.4287 C.ar    1  UNL1       -0.0192
     33 C          -3.0753    1.0322    0.3155 C.ar    1  UNL1        0.0944
     34 S          -3.8539    1.7904   -1.0152 S.O2    1  UNL1       -0.0055
     35 C          -4.3233    0.5871   -2.2688 C.3     1  UNL1        0.0596
     36 O          -3.1414    2.9312   -1.6535 O.2     1  UNL1       -0.1696
     37 O          -5.1820    2.3911   -0.5521 O.2     1  UNL1       -0.1696
     38 H          -1.7090    5.4970    1.5936 H       1  UNL1        0.0426
     39 H          -0.0686    5.7343    0.8916 H       1  UNL1        0.0426
     40 H          -0.2962    4.7995    2.4654 H       1  UNL1        0.0426
     41 H          -1.6264    3.5144    0.2008 H       1  UNL1        0.1499
     42 H           4.1917    0.1607   -1.5182 H       1  UNL1        0.0636
     43 H           6.2445   -1.0934   -1.1906 H       1  UNL1        0.0618
     44 H           6.3067   -3.0361    0.3070 H       1  UNL1        0.0623
     45 H           2.2013   -2.4963    1.2162 H       1  UNL1        0.0642
     46 H          -0.6292   -2.5436   -3.6722 H       1  UNL1        0.0349
     47 H          -1.0019   -2.5920   -1.9181 H       1  UNL1        0.0349
     48 H           1.4964   -1.5143   -3.2868 H       1  UNL1        0.0330
     49 H           1.3665   -2.7120   -1.8675 H       1  UNL1        0.0330
     50 H          -1.0903    1.9569   -1.2864 H       1  UNL1        0.0608
     51 H          -0.3428   -0.5815    1.2954 H       1  UNL1        0.0622
     52 H          -1.7641   -1.1626    3.2062 H       1  UNL1        0.0630
     53 H          -4.9191    1.0621    1.4393 H       1  UNL1        0.0649
     54 H          -5.4131    0.3741   -2.2538 H       1  UNL1        0.0468
     55 H          -4.1168    0.9679   -3.2868 H       1  UNL1        0.0468
     56 H          -3.8320   -0.3739   -2.0285 H       1  UNL1        0.0468
@<TRIPOS>BOND
     1     1     2    1
     2     2     3   am
     3     3     4    2
     4     3     5   am
     5     5     6   am
     6     6     7    2
     7     6     8   am
     8     8     9    1
     9     9    10   ar
    10    10    11   ar
    11    11    12   ar
    12    12    13   ar
    13    13    14    1
    14    14    15    1
    15    14    16    1
    16    14    17    1
    17    13    18   ar
    18     8    19    1
    19    19    20    2
    20    20    21    1
    21    21    22    2
    22    21    23    1
    23    23    24    1
    24    20    25    1
    25    25    26    1
    26    26    27   ar
    27    27    28   ar
    28    28    29   ar
    29    29    30    1
    30    30    31    3
    31    29    32   ar
    32    32    33   ar
    33    33    34    1
    34    34    35    1
    35    34    36    2
    36    34    37    2
    37    25     5    1
    38    33    26   ar
    39    18     9   ar
    40    24    19    1
    41     1    38    1
    42     1    39    1
    43     1    40    1
    44     2    41    1
    45    10    42    1
    46    11    43    1
    47    12    44    1
    48    18    45    1
    49    23    46    1
    50    23    47    1
    51    24    48    1
    52    24    49    1
    53    25    50    1
    54    27    51    1
    55    28    52    1
    56    32    53    1
    57    35    54    1
    58    35    55    1
    59    35    56    1
