
     RDKit          3D

 56 59  0  0  0  0  0  0  0  0999 V2000
   -0.7097    5.0408    1.4792 C   0  0  0  0  0  0  0  0  0  0  0  0
   -0.7951    3.7504    0.7479 N   0  0  0  0  0  0  0  0  0  0  0  0
    0.2587    2.8237    0.8116 C   0  0  0  0  0  0  0  0  0  0  0  0
    1.2594    3.1694    1.5366 O   0  0  0  0  0  0  0  0  0  0  0  0
    0.3106    1.5614    0.1514 N   0  0  0  0  0  0  0  0  0  0  0  0
    1.4888    0.8003    0.3908 C   0  0  0  0  0  0  0  0  0  0  0  0
    2.2980    1.1210    1.3328 O   0  0  0  0  0  0  0  0  0  0  0  0
    1.8232   -0.3263   -0.3806 N   0  0  0  0  0  0  0  0  0  0  0  0
    3.0064   -1.0563   -0.1732 C   0  0  0  0  0  0  0  0  0  0  0  0
    4.1573   -0.6995   -0.8266 C   0  0  0  0  0  0  0  0  0  0  0  0
    5.3432   -1.3857   -0.6734 C   0  0  0  0  0  0  0  0  0  0  0  0
    5.3819   -2.4928    0.1816 C   0  0  0  0  0  0  0  0  0  0  0  0
    4.2418   -2.8638    0.8430 C   0  0  0  0  0  0  0  0  0  0  0  0
    4.3395   -4.0423    1.7416 C   0  0  0  0  0  0  0  0  0  0  0  0
    3.1382   -4.6965    1.8737 F   0  0  0  0  0  0  0  0  0  0  0  0
    4.8608   -3.5883    2.9371 F   0  0  0  0  0  0  0  0  0  0  0  0
    5.2917   -4.9178    1.2070 F   0  0  0  0  0  0  0  0  0  0  0  0
    3.0577   -2.1559    0.6728 C   0  0  0  0  0  0  0  0  0  0  0  0
    0.8804   -0.6495   -1.3969 C   0  0  0  0  0  0  0  0  0  0  0  0
   -0.2236    0.0048   -1.5964 C   0  0  0  0  0  0  0  0  0  0  0  0
   -0.9143   -0.6153   -2.7713 C   0  0  0  0  0  0  0  0  0  0  0  0
   -1.6593   -0.1615   -3.6274 O   0  0  0  0  0  0  0  0  0  0  0  0
   -0.4780   -2.0658   -2.7125 C   0  0  0  0  0  0  0  0  0  0  0  0
    0.9958   -1.8110   -2.3703 C   0  0  0  0  0  0  0  0  0  0  0  0
   -0.7886    1.0794   -0.7266 C   0  0  1  0  0  0  0  0  0  0  0  0
   -1.7944    0.5874    0.2666 C   0  0  0  0  0  0  0  0  0  0  0  0
   -1.3563   -0.1935    1.3086 C   0  0  0  0  0  0  0  0  0  0  0  0
   -2.1407   -0.5443    2.4059 C   0  0  0  0  0  0  0  0  0  0  0  0
   -3.4376   -0.0710    2.4350 C   0  0  0  0  0  0  0  0  0  0  0  0
   -4.3207   -0.3703    3.5491 C   0  0  0  0  0  0  0  0  0  0  0  0
   -5.0378   -0.6154    4.4319 N   0  0  0  0  0  0  0  0  0  0  0  0
   -3.8988    0.6911    1.4287 C   0  0  0  0  0  0  0  0  0  0  0  0
   -3.0753    1.0322    0.3155 C   0  0  0  0  0  0  0  0  0  0  0  0
   -3.8539    1.7904   -1.0152 S   0  0  0  0  0  6  0  0  0  0  0  0
   -4.3233    0.5871   -2.2688 C   0  0  0  0  0  0  0  0  0  0  0  0
   -3.1414    2.9312   -1.6535 O   0  0  0  0  0  0  0  0  0  0  0  0
   -5.1820    2.3911   -0.5521 O   0  0  0  0  0  0  0  0  0  0  0  0
   -1.7090    5.4970    1.5936 H   0  0  0  0  0  0  0  0  0  0  0  0
   -0.0686    5.7343    0.8916 H   0  0  0  0  0  0  0  0  0  0  0  0
   -0.2962    4.7995    2.4654 H   0  0  0  0  0  0  0  0  0  0  0  0
   -1.6264    3.5144    0.2008 H   0  0  0  0  0  0  0  0  0  0  0  0
    4.1917    0.1607   -1.5182 H   0  0  0  0  0  0  0  0  0  0  0  0
    6.2445   -1.0934   -1.1906 H   0  0  0  0  0  0  0  0  0  0  0  0
    6.3067   -3.0361    0.3070 H   0  0  0  0  0  0  0  0  0  0  0  0
    2.2013   -2.4963    1.2162 H   0  0  0  0  0  0  0  0  0  0  0  0
   -0.6292   -2.5436   -3.6722 H   0  0  0  0  0  0  0  0  0  0  0  0
   -1.0019   -2.5920   -1.9181 H   0  0  0  0  0  0  0  0  0  0  0  0
    1.4964   -1.5143   -3.2868 H   0  0  0  0  0  0  0  0  0  0  0  0
    1.3665   -2.7120   -1.8675 H   0  0  0  0  0  0  0  0  0  0  0  0
   -1.0903    1.9569   -1.2864 H   0  0  0  0  0  0  0  0  0  0  0  0
   -0.3428   -0.5815    1.2954 H   0  0  0  0  0  0  0  0  0  0  0  0
   -1.7641   -1.1626    3.2062 H   0  0  0  0  0  0  0  0  0  0  0  0
   -4.9191    1.0621    1.4393 H   0  0  0  0  0  0  0  0  0  0  0  0
   -5.4131    0.3741   -2.2538 H   0  0  0  0  0  0  0  0  0  0  0  0
   -4.1168    0.9679   -3.2868 H   0  0  0  0  0  0  0  0  0  0  0  0
   -3.8320   -0.3739   -2.0285 H   0  0  0  0  0  0  0  0  0  0  0  0
  1  2  1  0
  2  3  1  0
  3  4  2  0
  3  5  1  0
  5  6  1  0
  6  7  2  0
  6  8  1  0
  8  9  1  0
  9 10  2  0
 10 11  1  0
 11 12  2  0
 12 13  1  0
 13 14  1  0
 14 15  1  0
 14 16  1  0
 14 17  1  0
 13 18  2  0
  8 19  1  0
 19 20  2  0
 20 21  1  0
 21 22  2  0
 21 23  1  0
 23 24  1  0
 20 25  1  0
 25 26  1  0
 26 27  2  0
 27 28  1  0
 28 29  2  0
 29 30  1  0
 30 31  3  0
 29 32  1  0
 32 33  2  0
 33 34  1  0
 34 35  1  0
 34 36  2  0
 34 37  2  0
 25  5  1  0
 33 26  1  0
 18  9  1  0
 24 19  1  0
  1 38  1  0
  1 39  1  0
  1 40  1  0
  2 41  1  0
 10 42  1  0
 11 43  1  0
 12 44  1  0
 18 45  1  0
 23 46  1  0
 23 47  1  0
 24 48  1  0
 24 49  1  0
 25 50  1  6
 27 51  1  0
 28 52  1  0
 32 53  1  0
 35 54  1  0
 35 55  1  0
 35 56  1  0
M  END
$$$$
