@<TRIPOS>MOLECULE
*****
 15 14 0 0 0
SMALL
GASTEIGER

@<TRIPOS>ATOM
      1 N1         -1.1859   -1.4265    0.3201 N.3     1  <1>        -0.3177
      2 C1         -0.2317   -0.3543    0.3127 C.3     1  <1>         0.1131
      3 C2          0.7204   -0.4644   -0.8745 C.3     1  <1>         0.0293
      4 S1          1.8582    0.9507   -0.7508 S.3     1  <1>        -0.0943
      5 S2          3.0118    0.6103    1.0273 S.3     1  <1>        -0.1104
      6 C3         -0.9423    0.9578    0.2991 C.2     1  <1>         0.3226
      7 O1         -2.3080    1.2323    0.2854 O.3     1  <1>        -0.4795
      8 O2         -0.4889    2.1390    0.2965 O.2     1  <1>        -0.2492
      9 H1         -1.4485   -1.7584   -0.6350 H       1  <1>         0.1190
     10 H2         -2.0437   -1.2152    0.8627 H       1  <1>         0.1190
     11 H3          0.3423   -0.4150    1.2662 H       1  <1>         0.0582
     12 H4          0.1500   -0.3804   -1.8076 H       1  <1>         0.0405
     13 H5          1.2236   -1.4358   -0.7788 H       1  <1>         0.0405
     14 H6          4.1531   -0.1375    0.6078 H       1  <1>         0.1140
     15 H7         -2.8105    1.6975   -0.4310 H       1  <1>         0.2951
@<TRIPOS>BOND
     1     1     2    1
     2     2     3    1
     3     3     4    1
     4     4     5    1
     5     2     6    1
     6     6     7    1
     7     6     8    2
     8     1     9    1
     9     1    10    1
    10     2    11    1
    11     3    12    1
    12     3    13    1
    13     5    14    1
    14     7    15    1
