@<TRIPOS>MOLECULE
*****
 50 50 0 0 0
SMALL
GASTEIGER

@<TRIPOS>ATOM
      1 C          -7.5658    1.1052   -0.5291 C.3     1  UNL1        0.0788
      2 O          -6.7367   -0.0187   -0.3046 O.3     1  UNL1       -0.4948
      3 C          -5.3587    0.0691   -0.2424 C.ar    1  UNL1        0.1235
      4 C          -4.6297   -1.0594   -0.0228 C.ar    1  UNL1       -0.0053
      5 C          -5.3377   -2.3506    0.1427 C.3     1  UNL1       -0.0360
      6 C          -3.2552   -0.9583    0.0370 C.ar    1  UNL1       -0.0367
      7 C          -2.4973   -2.1994    0.2905 C.3     1  UNL1       -0.0388
      8 C          -2.6310    0.2478   -0.1210 C.ar    1  UNL1       -0.0187
      9 C          -1.2148    0.5013   -0.1094 C.2     1  UNL1       -0.0538
     10 C          -0.0608   -0.1009   -0.0152 C.2     1  UNL1       -0.0583
     11 C           1.3149    0.3696   -0.0264 C.2     1  UNL1       -0.0504
     12 C           1.7808    1.7716   -0.1593 C.3     1  UNL1       -0.0397
     13 C           2.2625   -0.5418    0.0943 C.2     1  UNL1       -0.0588
     14 C           3.6603   -0.1552    0.0924 C.2     1  UNL1       -0.0613
     15 C           4.6180   -1.0593    0.2128 C.2     1  UNL1       -0.0586
     16 C           6.0314   -0.6811    0.2122 C.2     1  UNL1       -0.0437
     17 C           6.3908    0.7537    0.0739 C.3     1  UNL1       -0.0395
     18 C           6.9119   -1.6576    0.3377 C.2     1  UNL1        0.0252
     19 C           8.3288   -1.3305    0.3424 C.2     1  UNL1        0.3298
     20 O           9.5353   -0.6532    0.3048 O.3     1  UNL1       -0.4775
     21 O           9.2786   -2.1435    0.4537 O.2     1  UNL1       -0.2458
     22 C          -3.4145    1.3909   -0.3455 C.ar    1  UNL1       -0.0396
     23 C          -2.8317    2.7652   -0.5311 C.3     1  UNL1       -0.0390
     24 C          -4.7771    1.2937   -0.4050 C.ar    1  UNL1       -0.0162
     25 H          -7.4390    1.5105   -1.5680 H       1  UNL1        0.0660
     26 H          -8.6213    0.7430   -0.4979 H       1  UNL1        0.0660
     27 H          -7.3884    1.9300    0.1674 H       1  UNL1        0.0660
     28 H          -5.1779   -2.7314    1.1722 H       1  UNL1        0.0279
     29 H          -6.4025   -2.2484   -0.0939 H       1  UNL1        0.0279
     30 H          -4.9043   -3.0550   -0.6224 H       1  UNL1        0.0279
     31 H          -1.8922   -2.5495   -0.5515 H       1  UNL1        0.0278
     32 H          -3.2517   -2.9959    0.5656 H       1  UNL1        0.0278
     33 H          -1.8673   -2.1640    1.2215 H       1  UNL1        0.0278
     34 H          -0.8597    1.5330   -0.2025 H       1  UNL1        0.0624
     35 H          -0.2484   -1.1468    0.0784 H       1  UNL1        0.0620
     36 H           2.4751    1.8650   -1.0194 H       1  UNL1        0.0278
     37 H           0.9333    2.4375   -0.2809 H       1  UNL1        0.0278
     38 H           2.3770    1.9894    0.7732 H       1  UNL1        0.0278
     39 H           2.0171   -1.6038    0.1981 H       1  UNL1        0.0620
     40 H           3.9497    0.8821   -0.0079 H       1  UNL1        0.0618
     41 H           4.2883   -2.0845    0.3105 H       1  UNL1        0.0620
     42 H           7.4626    0.9007    0.3267 H       1  UNL1        0.0278
     43 H           6.1119    1.1408   -0.9263 H       1  UNL1        0.0278
     44 H           5.7581    1.3079    0.8268 H       1  UNL1        0.0278
     45 H           6.7270   -2.7003    0.4410 H       1  UNL1        0.0691
     46 H           9.6570    0.1691   -0.2975 H       1  UNL1        0.2954
     47 H          -2.3071    2.8665   -1.4827 H       1  UNL1        0.0278
     48 H          -3.6441    3.5115   -0.4826 H       1  UNL1        0.0278
     49 H          -2.1784    2.9751    0.3496 H       1  UNL1        0.0278
     50 H          -5.3769    2.1590   -0.5756 H       1  UNL1        0.0657
@<TRIPOS>BOND
     1     1     2    1
     2     2     3    1
     3     3     4   ar
     4     4     5    1
     5     4     6   ar
     6     6     7    1
     7     6     8   ar
     8     8     9    1
     9     9    10    2
    10    10    11    1
    11    11    12    1
    12    11    13    2
    13    13    14    1
    14    14    15    2
    15    15    16    1
    16    16    17    1
    17    16    18    2
    18    18    19    1
    19    19    20    1
    20    19    21    2
    21     8    22   ar
    22    22    23    1
    23    22    24   ar
    24    24     3   ar
    25     1    25    1
    26     1    26    1
    27     1    27    1
    28     5    28    1
    29     5    29    1
    30     5    30    1
    31     7    31    1
    32     7    32    1
    33     7    33    1
    34     9    34    1
    35    10    35    1
    36    12    36    1
    37    12    37    1
    38    12    38    1
    39    13    39    1
    40    14    40    1
    41    15    41    1
    42    17    42    1
    43    17    43    1
    44    17    44    1
    45    18    45    1
    46    20    46    1
    47    23    47    1
    48    23    48    1
    49    23    49    1
    50    24    50    1
