@<TRIPOS>MOLECULE
*****
 53 56 0 0 0
SMALL
GASTEIGER

@<TRIPOS>ATOM
      1 C          -1.8930   -3.8395   -0.3365 C.3     1  UNL1        0.0820
      2 O          -1.9528   -2.4328   -0.2582 O.3     1  UNL1       -0.4634
      3 C          -0.9221   -1.6558   -0.7906 C.2     1  UNL1        0.3563
      4 O           0.0024   -2.3022   -1.3120 O.2     1  UNL1       -0.2433
      5 C          -0.9322   -0.2142   -0.7377 C.ar    1  UNL1        0.1383
      6 C          -2.0841    0.3551   -0.1621 C.ar    1  UNL1        0.0206
      7 C          -3.1430   -0.4965    0.3691 C.ar    1  UNL1       -0.0151
      8 C          -3.1487   -0.9272    1.6785 C.ar    1  UNL1       -0.0539
      9 C          -4.1910   -1.7342    2.1486 C.ar    1  UNL1       -0.0612
     10 C          -5.2165   -2.1023    1.3056 C.ar    1  UNL1       -0.0617
     11 C          -5.2228   -1.6788   -0.0049 C.ar    1  UNL1       -0.0612
     12 C          -4.1855   -0.8855   -0.4425 C.ar    1  UNL1       -0.0539
     13 C          -2.1785    1.7255   -0.1185 C.ar    1  UNL1       -0.0018
     14 C          -3.3282    2.2824    0.4552 C.ar    1  UNL1       -0.0392
     15 C          -3.4771    3.6538    0.5252 C.ar    1  UNL1        0.0185
     16 BR         -5.0397    4.4212    1.3050 Br      1  UNL1       -0.0503
     17 C          -2.4651    4.4789    0.0159 C.ar    1  UNL1       -0.0470
     18 C          -1.3324    3.9439   -0.5494 C.ar    1  UNL1       -0.0478
     19 C          -1.2116    2.5704   -0.6053 C.ar    1  UNL1        0.0474
     20 C          -0.1028    1.9766   -1.1576 C.ar    1  UNL1        0.2600
     21 O           0.8244    2.6854   -1.6244 O.2     1  UNL1       -0.2670
     22 N           0.0178    0.6061   -1.2127 N.ar    1  UNL1       -0.2973
     23 C           1.2373    0.1122   -1.8197 C.3     1  UNL1        0.0519
     24 C           2.3895    0.0932   -0.8839 C.ar    1  UNL1       -0.0275
     25 C           2.4771   -0.7645    0.1653 C.ar    1  UNL1       -0.0551
     26 C           3.6187   -0.7294    0.9943 C.ar    1  UNL1       -0.0366
     27 C           4.6497    0.1564    0.7658 C.ar    1  UNL1        0.0879
     28 S           6.0675    0.2068    1.7879 S.O2    1  UNL1       -0.0059
     29 C           7.2642   -0.9272    1.0949 C.3     1  UNL1        0.0596
     30 O           6.6312    1.5972    1.7576 O.2     1  UNL1       -0.1696
     31 O           5.7560   -0.2326    3.1928 O.2     1  UNL1       -0.1696
     32 C           4.5004    1.0002   -0.3136 C.ar    1  UNL1       -0.0366
     33 C           3.4212    1.0026   -1.1388 C.ar    1  UNL1       -0.0551
     34 H          -2.7829   -4.2630   -0.8793 H       1  UNL1        0.0661
     35 H          -1.9005   -4.2809    0.6927 H       1  UNL1        0.0661
     36 H          -1.0010   -4.1663   -0.9105 H       1  UNL1        0.0661
     37 H          -2.3669   -0.6546    2.3458 H       1  UNL1        0.0624
     38 H          -4.2289   -2.0897    3.1654 H       1  UNL1        0.0618
     39 H          -6.0274   -2.7267    1.6605 H       1  UNL1        0.0618
     40 H          -6.0310   -1.9770   -0.6443 H       1  UNL1        0.0618
     41 H          -4.2024   -0.5599   -1.4732 H       1  UNL1        0.0624
     42 H          -4.0897    1.6126    0.8386 H       1  UNL1        0.0635
     43 H          -2.6321    5.5522    0.0960 H       1  UNL1        0.0629
     44 H          -0.5853    4.6160   -0.9256 H       1  UNL1        0.0626
     45 H           1.1323   -0.8489   -2.3021 H       1  UNL1        0.0542
     46 H           1.4802    0.8175   -2.6789 H       1  UNL1        0.0542
     47 H           1.7024   -1.4744    0.4079 H       1  UNL1        0.0621
     48 H           3.6716   -1.4180    1.8226 H       1  UNL1        0.0637
     49 H           8.3000   -0.6549    1.3816 H       1  UNL1        0.0468
     50 H           7.1367   -0.8711   -0.0096 H       1  UNL1        0.0468
     51 H           6.9700   -1.9417    1.4508 H       1  UNL1        0.0468
     52 H           5.2998    1.7036   -0.5095 H       1  UNL1        0.0637
     53 H           3.3251    1.6795   -1.9929 H       1  UNL1        0.0621
@<TRIPOS>BOND
     1     1     2    1
     2     2     3    1
     3     3     4    2
     4     3     5    1
     5     5     6   ar
     6     6     7    1
     7     7     8   ar
     8     8     9   ar
     9     9    10   ar
    10    10    11   ar
    11    11    12   ar
    12     6    13   ar
    13    13    14   ar
    14    14    15   ar
    15    15    16    1
    16    15    17   ar
    17    17    18   ar
    18    18    19   ar
    19    19    20   ar
    20    20    21    2
    21    20    22   ar
    22    22    23    1
    23    23    24    1
    24    24    25   ar
    25    25    26   ar
    26    26    27   ar
    27    27    28    1
    28    28    29    1
    29    28    30    2
    30    28    31    2
    31    27    32   ar
    32    32    33   ar
    33    22     5   ar
    34    33    24   ar
    35    12     7   ar
    36    19    13   ar
    37     1    34    1
    38     1    35    1
    39     1    36    1
    40     8    37    1
    41     9    38    1
    42    10    39    1
    43    11    40    1
    44    12    41    1
    45    14    42    1
    46    17    43    1
    47    18    44    1
    48    23    45    1
    49    23    46    1
    50    25    47    1
    51    26    48    1
    52    29    49    1
    53    29    50    1
    54    29    51    1
    55    32    52    1
    56    33    53    1
