
     RDKit          3D

 53 56  0  0  0  0  0  0  0  0999 V2000
   -1.8930   -3.8395   -0.3365 C   0  0  0  0  0  0  0  0  0  0  0  0
   -1.9528   -2.4328   -0.2582 O   0  0  0  0  0  0  0  0  0  0  0  0
   -0.9221   -1.6558   -0.7906 C   0  0  0  0  0  0  0  0  0  0  0  0
    0.0024   -2.3022   -1.3120 O   0  0  0  0  0  0  0  0  0  0  0  0
   -0.9322   -0.2142   -0.7377 C   0  0  0  0  0  0  0  0  0  0  0  0
   -2.0841    0.3551   -0.1621 C   0  0  0  0  0  0  0  0  0  0  0  0
   -3.1430   -0.4965    0.3691 C   0  0  0  0  0  0  0  0  0  0  0  0
   -3.1487   -0.9272    1.6785 C   0  0  0  0  0  0  0  0  0  0  0  0
   -4.1910   -1.7342    2.1486 C   0  0  0  0  0  0  0  0  0  0  0  0
   -5.2165   -2.1023    1.3056 C   0  0  0  0  0  0  0  0  0  0  0  0
   -5.2228   -1.6788   -0.0049 C   0  0  0  0  0  0  0  0  0  0  0  0
   -4.1855   -0.8855   -0.4425 C   0  0  0  0  0  0  0  0  0  0  0  0
   -2.1785    1.7255   -0.1185 C   0  0  0  0  0  0  0  0  0  0  0  0
   -3.3282    2.2824    0.4552 C   0  0  0  0  0  0  0  0  0  0  0  0
   -3.4771    3.6538    0.5252 C   0  0  0  0  0  0  0  0  0  0  0  0
   -5.0397    4.4212    1.3050 Br  0  0  0  0  0  0  0  0  0  0  0  0
   -2.4651    4.4789    0.0159 C   0  0  0  0  0  0  0  0  0  0  0  0
   -1.3324    3.9439   -0.5494 C   0  0  0  0  0  0  0  0  0  0  0  0
   -1.2116    2.5704   -0.6053 C   0  0  0  0  0  0  0  0  0  0  0  0
   -0.1028    1.9766   -1.1576 C   0  0  0  0  0  0  0  0  0  0  0  0
    0.8244    2.6854   -1.6244 O   0  0  0  0  0  0  0  0  0  0  0  0
    0.0178    0.6061   -1.2127 N   0  0  0  0  0  0  0  0  0  0  0  0
    1.2373    0.1122   -1.8197 C   0  0  0  0  0  0  0  0  0  0  0  0
    2.3895    0.0932   -0.8839 C   0  0  0  0  0  0  0  0  0  0  0  0
    2.4771   -0.7645    0.1653 C   0  0  0  0  0  0  0  0  0  0  0  0
    3.6187   -0.7294    0.9943 C   0  0  0  0  0  0  0  0  0  0  0  0
    4.6497    0.1564    0.7658 C   0  0  0  0  0  0  0  0  0  0  0  0
    6.0675    0.2068    1.7879 S   0  0  0  0  0  6  0  0  0  0  0  0
    7.2642   -0.9272    1.0949 C   0  0  0  0  0  0  0  0  0  0  0  0
    6.6312    1.5972    1.7576 O   0  0  0  0  0  0  0  0  0  0  0  0
    5.7560   -0.2326    3.1928 O   0  0  0  0  0  0  0  0  0  0  0  0
    4.5004    1.0002   -0.3136 C   0  0  0  0  0  0  0  0  0  0  0  0
    3.4212    1.0026   -1.1388 C   0  0  0  0  0  0  0  0  0  0  0  0
   -2.7829   -4.2630   -0.8793 H   0  0  0  0  0  0  0  0  0  0  0  0
   -1.9005   -4.2809    0.6927 H   0  0  0  0  0  0  0  0  0  0  0  0
   -1.0010   -4.1663   -0.9105 H   0  0  0  0  0  0  0  0  0  0  0  0
   -2.3669   -0.6546    2.3458 H   0  0  0  0  0  0  0  0  0  0  0  0
   -4.2289   -2.0897    3.1654 H   0  0  0  0  0  0  0  0  0  0  0  0
   -6.0274   -2.7267    1.6605 H   0  0  0  0  0  0  0  0  0  0  0  0
   -6.0310   -1.9770   -0.6443 H   0  0  0  0  0  0  0  0  0  0  0  0
   -4.2024   -0.5599   -1.4732 H   0  0  0  0  0  0  0  0  0  0  0  0
   -4.0897    1.6126    0.8386 H   0  0  0  0  0  0  0  0  0  0  0  0
   -2.6321    5.5522    0.0960 H   0  0  0  0  0  0  0  0  0  0  0  0
   -0.5853    4.6160   -0.9256 H   0  0  0  0  0  0  0  0  0  0  0  0
    1.1323   -0.8489   -2.3021 H   0  0  0  0  0  0  0  0  0  0  0  0
    1.4802    0.8175   -2.6789 H   0  0  0  0  0  0  0  0  0  0  0  0
    1.7024   -1.4744    0.4079 H   0  0  0  0  0  0  0  0  0  0  0  0
    3.6716   -1.4180    1.8226 H   0  0  0  0  0  0  0  0  0  0  0  0
    8.3000   -0.6549    1.3816 H   0  0  0  0  0  0  0  0  0  0  0  0
    7.1367   -0.8711   -0.0096 H   0  0  0  0  0  0  0  0  0  0  0  0
    6.9700   -1.9417    1.4508 H   0  0  0  0  0  0  0  0  0  0  0  0
    5.2998    1.7036   -0.5095 H   0  0  0  0  0  0  0  0  0  0  0  0
    3.3251    1.6795   -1.9929 H   0  0  0  0  0  0  0  0  0  0  0  0
  1  2  1  0
  2  3  1  0
  3  4  2  0
  3  5  1  0
  5  6  2  0
  6  7  1  0
  7  8  2  0
  8  9  1  0
  9 10  2  0
 10 11  1  0
 11 12  2  0
  6 13  1  0
 13 14  2  0
 14 15  1  0
 15 16  1  0
 15 17  2  0
 17 18  1  0
 18 19  2  0
 19 20  1  0
 20 21  2  0
 20 22  1  0
 22 23  1  0
 23 24  1  0
 24 25  2  0
 25 26  1  0
 26 27  2  0
 27 28  1  0
 28 29  1  0
 28 30  2  0
 28 31  2  0
 27 32  1  0
 32 33  2  0
 22  5  1  0
 33 24  1  0
 12  7  1  0
 19 13  1  0
  1 34  1  0
  1 35  1  0
  1 36  1  0
  8 37  1  0
  9 38  1  0
 10 39  1  0
 11 40  1  0
 12 41  1  0
 14 42  1  0
 17 43  1  0
 18 44  1  0
 23 45  1  0
 23 46  1  0
 25 47  1  0
 26 48  1  0
 29 49  1  0
 29 50  1  0
 29 51  1  0
 32 52  1  0
 33 53  1  0
M  END
$$$$
