@<TRIPOS>MOLECULE
*****
 55 59 0 0 0
SMALL
GASTEIGER

@<TRIPOS>ATOM
      1 C          -6.7831    0.8452    1.3424 C.3     1  UNL1       -0.0217
      2 C          -6.2697    0.4905    0.0062 C.ar    1  UNL1        0.0494
      3 N          -7.0661    0.3004   -1.0849 N.ar    1  UNL1       -0.2594
      4 C          -6.5660   -0.0163   -2.2973 C.ar    1  UNL1        0.0298
      5 C          -5.1898   -0.1664   -2.4929 C.ar    1  UNL1       -0.0194
      6 C          -4.3919    0.0267   -1.3840 C.ar    1  UNL1        0.0546
      7 C          -4.9096    0.3477   -0.1619 C.ar    1  UNL1        0.0470
      8 C          -3.8489    0.4668    0.7143 C.ar    1  UNL1        0.1032
      9 N          -3.7743    0.7707    2.0237 N.ar    1  UNL1       -0.2331
     10 C          -2.6019    0.8358    2.6697 C.ar    1  UNL1        0.1189
     11 N          -1.4572    0.6017    2.0416 N.ar    1  UNL1       -0.2186
     12 C          -1.4952    0.2888    0.7058 C.ar    1  UNL1        0.1489
     13 N          -0.2656    0.0055    0.0628 N.pl3   1  UNL1       -0.3110
     14 C           0.1598   -1.3315   -0.1446 C.3     1  UNL1        0.0264
     15 C           1.6750   -1.3913   -0.3043 C.3     1  UNL1        0.0147
     16 N           2.3527   -0.3705    0.4100 N.3     1  UNL1       -0.2990
     17 C           3.0149   -0.7869    1.5888 C.3     1  UNL1        0.0030
     18 C           4.2377   -1.6225    1.1851 C.3     1  UNL1       -0.0148
     19 C           5.0852   -0.7047    0.4026 C.ar    1  UNL1       -0.0433
     20 C           4.9702   -0.6222   -0.9571 C.ar    1  UNL1       -0.0556
     21 C           5.7731    0.2781   -1.6825 C.ar    1  UNL1       -0.0233
     22 C           6.6756    1.0746   -1.0122 C.ar    1  UNL1        0.1584
     23 F           7.4588    1.9539   -1.7217 F       1  UNL1       -0.2025
     24 C           6.7678    0.9689    0.3507 C.ar    1  UNL1        0.1587
     25 F           7.6411    1.7325    1.0580 F       1  UNL1       -0.2025
     26 C           5.9872    0.0911    1.0738 C.ar    1  UNL1       -0.0204
     27 C           1.9143    0.9462    0.3368 C.3     1  UNL1        0.0147
     28 C           0.5726    1.1384   -0.3323 C.3     1  UNL1        0.0264
     29 C          -2.6788    0.2128    0.0094 C.ar    1  UNL1        0.1089
     30 N          -3.0281   -0.0533   -1.2743 N.ar    1  UNL1       -0.3389
     31 C          -2.1550   -0.3496   -2.3687 C.3     1  UNL1        0.0126
     32 H          -7.7748    1.3421    1.2815 H       1  UNL1        0.0293
     33 H          -6.8491   -0.0848    1.9433 H       1  UNL1        0.0293
     34 H          -6.0334    1.5021    1.8743 H       1  UNL1        0.0293
     35 H          -7.1959   -0.1698   -3.1583 H       1  UNL1        0.0830
     36 H          -4.7723   -0.4173   -3.4429 H       1  UNL1        0.0653
     37 H          -2.5578    1.0834    3.7455 H       1  UNL1        0.1048
     38 H          -0.2997   -1.8400   -0.9868 H       1  UNL1        0.0477
     39 H          -0.0962   -1.9508    0.7642 H       1  UNL1        0.0477
     40 H           1.9981   -2.3695    0.0828 H       1  UNL1        0.0442
     41 H           1.9089   -1.3537   -1.3828 H       1  UNL1        0.0442
     42 H           2.3367   -1.3887    2.2365 H       1  UNL1        0.0430
     43 H           3.3065    0.0977    2.1552 H       1  UNL1        0.0430
     44 H           3.9427   -2.5124    0.6046 H       1  UNL1        0.0326
     45 H           4.6931   -1.9795    2.1281 H       1  UNL1        0.0326
     46 H           4.2851   -1.2190   -1.5371 H       1  UNL1        0.0621
     47 H           5.7150    0.3830   -2.7514 H       1  UNL1        0.0647
     48 H           6.0564    0.0013    2.1748 H       1  UNL1        0.0650
     49 H           1.7998    1.3714    1.3525 H       1  UNL1        0.0442
     50 H           2.6535    1.5704   -0.1905 H       1  UNL1        0.0442
     51 H           0.7465    1.1778   -1.4234 H       1  UNL1        0.0477
     52 H           0.1514    2.1092   -0.0381 H       1  UNL1        0.0477
     53 H          -2.0603   -1.4656   -2.5464 H       1  UNL1        0.0456
     54 H          -2.6105    0.1122   -3.3008 H       1  UNL1        0.0456
     55 H          -1.1488    0.0396   -2.3281 H       1  UNL1        0.0456
@<TRIPOS>BOND
     1     1     2    1
     2     2     3   ar
     3     3     4   ar
     4     4     5   ar
     5     5     6   ar
     6     6     7   ar
     7     7     8   ar
     8     8     9   ar
     9     9    10   ar
    10    10    11   ar
    11    11    12   ar
    12    12    13    1
    13    13    14    1
    14    14    15    1
    15    15    16    1
    16    16    17    1
    17    17    18    1
    18    18    19    1
    19    19    20   ar
    20    20    21   ar
    21    21    22   ar
    22    22    23    1
    23    22    24   ar
    24    24    25    1
    25    24    26   ar
    26    16    27    1
    27    27    28    1
    28    12    29   ar
    29    29    30   ar
    30    30    31    1
    31     7     2   ar
    32    29     8   ar
    33    30     6   ar
    34    28    13    1
    35    26    19   ar
    36     1    32    1
    37     1    33    1
    38     1    34    1
    39     4    35    1
    40     5    36    1
    41    10    37    1
    42    14    38    1
    43    14    39    1
    44    15    40    1
    45    15    41    1
    46    17    42    1
    47    17    43    1
    48    18    44    1
    49    18    45    1
    50    20    46    1
    51    21    47    1
    52    26    48    1
    53    27    49    1
    54    27    50    1
    55    28    51    1
    56    28    52    1
    57    31    53    1
    58    31    54    1
    59    31    55    1
