@<TRIPOS>MOLECULE
*****
 57 59 0 0 0
SMALL
GASTEIGER

@<TRIPOS>ATOM
      1 C          -6.7553    0.5247    2.3082 C.3     1  UNL1       -0.0607
      2 C          -6.6932    0.9867    0.8789 C.3     1  UNL1       -0.0194
      3 C          -7.2551    2.3758    0.6987 C.3     1  UNL1       -0.0607
      4 C          -5.2924    0.9798    0.3060 C.3     1  UNL1        0.1276
      5 N          -5.4393    1.4344   -1.0836 N.3     1  UNL1       -0.1759
      6 S          -4.8935    0.1567   -2.1100 S.O2    1  UNL1        0.0591
      7 O          -5.6125   -1.1189   -1.7387 O.2     1  UNL1       -0.1530
      8 O          -5.0633    0.4762   -3.5594 O.2     1  UNL1       -0.1530
      9 C          -3.1822   -0.0898   -1.7484 C.ar    1  UNL1        0.1053
     10 C          -2.2850    0.7272   -2.4931 C.ar    1  UNL1       -0.0348
     11 C          -0.9514    0.5632   -2.2551 C.ar    1  UNL1       -0.0522
     12 C          -0.3958   -0.3153   -1.3654 C.ar    1  UNL1       -0.0178
     13 C           1.0309   -0.4865   -1.2033 C.ar    1  UNL1       -0.0177
     14 C           1.6107   -1.6950   -0.7873 C.ar    1  UNL1       -0.0506
     15 C           2.9592   -1.8319   -0.7254 C.ar    1  UNL1       -0.0194
     16 C           3.8302   -0.8086   -1.0640 C.ar    1  UNL1        0.1210
     17 O           5.1164   -0.9458   -1.0104 O.3     1  UNL1       -0.4873
     18 C           6.3901   -1.0862   -0.9555 C.3     1  UNL1        0.1158
     19 C           6.9903   -1.2418    0.4226 C.ar    1  UNL1        0.0069
     20 C           7.7218   -0.1368    0.8774 C.ar    1  UNL1       -0.0541
     21 C           8.3414   -0.2133    2.1032 C.ar    1  UNL1       -0.0613
     22 C           8.2334   -1.3524    2.8465 C.ar    1  UNL1       -0.0605
     23 C           7.5154   -2.4348    2.4023 C.ar    1  UNL1       -0.0440
     24 C           6.8775   -2.3740    1.1562 C.ar    1  UNL1        0.0582
     25 C           6.0833   -3.4900    0.7290 C.1     1  UNL1        0.0995
     26 N           5.4441   -4.4128    0.3778 N.1     1  UNL1       -0.1909
     27 C           3.2469    0.4111   -1.4817 C.ar    1  UNL1       -0.0194
     28 C           1.8866    0.5273   -1.5358 C.ar    1  UNL1       -0.0506
     29 C          -1.3238   -1.1056   -0.6476 C.ar    1  UNL1       -0.0522
     30 C          -2.6705   -0.9558   -0.8752 C.ar    1  UNL1       -0.0348
     31 C          -4.3395    1.8146    1.0474 C.2     1  UNL1        0.3238
     32 O          -3.7842    2.7926    0.4336 O.2     1  UNL1       -0.2492
     33 O          -3.9531    1.6727    2.3604 O.3     1  UNL1       -0.4795
     34 H          -6.5249   -0.5834    2.3009 H       1  UNL1        0.0233
     35 H          -7.8155    0.5941    2.6449 H       1  UNL1        0.0233
     36 H          -6.0512    1.0239    2.9600 H       1  UNL1        0.0233
     37 H          -7.3627    0.2975    0.2837 H       1  UNL1        0.0316
     38 H          -6.4406    3.0758    0.9399 H       1  UNL1        0.0233
     39 H          -7.6084    2.4724   -0.3694 H       1  UNL1        0.0233
     40 H          -8.0968    2.4976    1.3809 H       1  UNL1        0.0233
     41 H          -4.9225   -0.0587    0.3743 H       1  UNL1        0.0595
     42 H          -4.7532    2.2282   -1.1933 H       1  UNL1        0.1489
     43 H          -2.7051    1.4229   -3.1901 H       1  UNL1        0.0637
     44 H          -0.2404    1.1832   -2.8284 H       1  UNL1        0.0624
     45 H           0.9236   -2.4901   -0.5324 H       1  UNL1        0.0625
     46 H           3.4348   -2.7780   -0.4017 H       1  UNL1        0.0654
     47 H           6.7545   -2.0628   -1.5172 H       1  UNL1        0.0748
     48 H           7.0290   -0.2754   -1.4842 H       1  UNL1        0.0748
     49 H           7.7928    0.7616    0.2665 H       1  UNL1        0.0622
     50 H           8.9019    0.6724    2.4162 H       1  UNL1        0.0618
     51 H           8.7507   -1.3482    3.8193 H       1  UNL1        0.0618
     52 H           7.4295   -3.3363    2.9896 H       1  UNL1        0.0630
     53 H           3.9168    1.1966   -1.7338 H       1  UNL1        0.0654
     54 H           1.5070    1.4964   -1.8608 H       1  UNL1        0.0625
     55 H          -0.9209   -1.8073    0.0568 H       1  UNL1        0.0624
     56 H          -3.3791   -1.6035   -0.3143 H       1  UNL1        0.0637
     57 H          -3.0077    1.8552    2.6846 H       1  UNL1        0.2951
@<TRIPOS>BOND
     1     1     2    1
     2     2     3    1
     3     2     4    1
     4     4     5    1
     5     5     6    1
     6     6     7    2
     7     6     8    2
     8     6     9    1
     9     9    10   ar
    10    10    11   ar
    11    11    12   ar
    12    12    13    1
    13    13    14   ar
    14    14    15   ar
    15    15    16   ar
    16    16    17    1
    17    17    18    1
    18    18    19    1
    19    19    20   ar
    20    20    21   ar
    21    21    22   ar
    22    22    23   ar
    23    23    24   ar
    24    24    25    1
    25    25    26    3
    26    16    27   ar
    27    27    28   ar
    28    12    29   ar
    29    29    30   ar
    30     4    31    1
    31    31    32    2
    32    31    33    1
    33    30     9   ar
    34    28    13   ar
    35    24    19   ar
    36     1    34    1
    37     1    35    1
    38     1    36    1
    39     2    37    1
    40     3    38    1
    41     3    39    1
    42     3    40    1
    43     4    41    1
    44     5    42    1
    45    10    43    1
    46    11    44    1
    47    14    45    1
    48    15    46    1
    49    18    47    1
    50    18    48    1
    51    20    49    1
    52    21    50    1
    53    22    51    1
    54    23    52    1
    55    27    53    1
    56    28    54    1
    57    29    55    1
    58    30    56    1
    59    33    57    1
