
     RDKit          3D

 40 43  0  0  0  0  0  0  0  0999 V2000
   -0.5290   -0.9526   -0.8069 C   0  0  2  0  0  0  0  0  0  0  0  0
   -0.8103   -2.1435   -0.0085 C   0  0  0  0  0  0  0  0  0  0  0  0
   -1.0402   -3.0760    0.6282 N   0  0  0  0  0  0  0  0  0  0  0  0
    0.7679   -0.3264   -0.4798 C   0  0  0  0  0  0  0  0  0  0  0  0
    0.9875    1.0341   -0.6010 C   0  0  0  0  0  0  0  0  0  0  0  0
    2.2289    1.3879   -0.2533 N   0  0  0  0  0  0  0  0  0  0  0  0
    2.8148    2.7140   -0.2524 C   0  0  0  0  0  0  0  0  0  0  0  0
    2.8773    0.2495    0.1147 C   0  0  0  0  0  0  0  0  0  0  0  0
    4.1839    0.0387    0.5629 C   0  0  0  0  0  0  0  0  0  0  0  0
    4.5768   -1.2510    0.8704 C   0  0  0  0  0  0  0  0  0  0  0  0
    6.2177   -1.5275    1.4348 Cl  0  0  0  0  0  0  0  0  0  0  0  0
    3.7047   -2.3331    0.7435 C   0  0  0  0  0  0  0  0  0  0  0  0
    2.4133   -2.0869    0.2952 C   0  0  0  0  0  0  0  0  0  0  0  0
    1.9774   -0.8101   -0.0243 C   0  0  0  0  0  0  0  0  0  0  0  0
   -0.1259    1.8811   -1.0769 C   0  0  0  0  0  0  0  0  0  0  0  0
   -0.0439    3.1398   -1.2279 O   0  0  0  0  0  0  0  0  0  0  0  0
   -1.3401    1.2132   -1.3717 N   0  0  0  0  0  0  0  0  0  0  0  0
   -1.6918    0.0063   -0.6186 C   0  0  0  0  0  0  0  0  0  0  0  0
   -1.7198    0.3590    0.8401 C   0  0  0  0  0  0  0  0  0  0  0  0
   -3.0676    0.7995    1.3005 C   0  0  0  0  0  0  0  0  0  0  0  0
   -4.1225   -0.1155    1.0219 N   0  0  0  0  0  0  0  0  0  0  0  0
   -3.9494   -0.9867   -0.0709 C   0  0  0  0  0  0  0  0  0  0  0  0
   -2.9531   -0.6059   -1.1129 C   0  0  0  0  0  0  0  0  0  0  0  0
   -0.5564   -1.2280   -1.8971 H   0  0  0  0  0  0  0  0  0  0  0  0
    2.7517    3.1956    0.7444 H   0  0  0  0  0  0  0  0  0  0  0  0
    2.3306    3.3688   -1.0155 H   0  0  0  0  0  0  0  0  0  0  0  0
    3.8978    2.6839   -0.5379 H   0  0  0  0  0  0  0  0  0  0  0  0
    4.8645    0.8497    0.6666 H   0  0  0  0  0  0  0  0  0  0  0  0
    4.0343   -3.3401    0.9909 H   0  0  0  0  0  0  0  0  0  0  0  0
    1.7506   -2.9424    0.2034 H   0  0  0  0  0  0  0  0  0  0  0  0
   -1.9789    1.5857   -2.1257 H   0  0  0  0  0  0  0  0  0  0  0  0
   -1.3193   -0.4728    1.4344 H   0  0  0  0  0  0  0  0  0  0  0  0
   -1.0157    1.2193    1.0043 H   0  0  0  0  0  0  0  0  0  0  0  0
   -3.0012    0.9229    2.4073 H   0  0  0  0  0  0  0  0  0  0  0  0
   -3.2886    1.8296    0.9058 H   0  0  0  0  0  0  0  0  0  0  0  0
   -5.0392    0.3132    1.1701 H   0  0  0  0  0  0  0  0  0  0  0  0
   -4.9510   -1.0621   -0.5892 H   0  0  0  0  0  0  0  0  0  0  0  0
   -3.7439   -2.0163    0.3052 H   0  0  0  0  0  0  0  0  0  0  0  0
   -2.7094   -1.5618   -1.6625 H   0  0  0  0  0  0  0  0  0  0  0  0
   -3.3821    0.0467   -1.9116 H   0  0  0  0  0  0  0  0  0  0  0  0
  1  2  1  0
  2  3  3  0
  1  4  1  0
  4  5  2  0
  5  6  1  0
  6  7  1  0
  6  8  1  0
  8  9  2  0
  9 10  1  0
 10 11  1  0
 10 12  2  0
 12 13  1  0
 13 14  2  0
  5 15  1  0
 15 16  2  0
 15 17  1  0
 17 18  1  0
 18 19  1  0
 19 20  1  0
 20 21  1  0
 21 22  1  0
 22 23  1  0
 18  1  1  0
 23 18  1  0
 14  4  1  0
 14  8  1  0
  1 24  1  6
  7 25  1  0
  7 26  1  0
  7 27  1  0
  9 28  1  0
 12 29  1  0
 13 30  1  0
 17 31  1  0
 19 32  1  0
 19 33  1  0
 20 34  1  0
 20 35  1  0
 21 36  1  0
 22 37  1  0
 22 38  1  0
 23 39  1  0
 23 40  1  0
M  END
$$$$
