@<TRIPOS>MOLECULE
*****
 44 47 0 0 0
SMALL
GASTEIGER

@<TRIPOS>ATOM
      1 F          -3.9064   -4.5836   -0.7867 F       1  UNL1       -0.2055
      2 C          -3.5050   -3.3215   -0.5100 C.ar    1  UNL1        0.1234
      3 C          -3.8655   -2.6442    0.6324 C.ar    1  UNL1       -0.0262
      4 C          -3.4248   -1.3466    0.8684 C.ar    1  UNL1       -0.0556
      5 C          -2.6123   -0.6947   -0.0331 C.ar    1  UNL1       -0.0436
      6 C          -2.1715    0.6631    0.2488 C.3     1  UNL1       -0.0076
      7 C          -2.7248    1.5885   -0.8420 C.3     1  UNL1       -0.0332
      8 C          -2.6950    2.9830   -0.2419 C.3     1  UNL1       -0.0035
      9 N          -1.6109    3.0659    0.7176 N.3     1  UNL1       -0.3156
     10 C          -0.4296    2.3582    0.2552 C.3     1  UNL1        0.0024
     11 C          -0.6752    0.8307    0.2906 C.3     1  UNL1        0.0125
     12 C          -0.1097    0.3741    1.6139 C.3     1  UNL1        0.0941
     13 O           1.2432    0.5117    1.6623 O.3     1  UNL1       -0.4915
     14 C           2.2769   -0.0525    0.9799 C.ar    1  UNL1        0.1242
     15 C           2.1113   -1.0083    0.0119 C.ar    1  UNL1       -0.0162
     16 C           3.2006   -1.5652   -0.6750 C.ar    1  UNL1       -0.0127
     17 C           4.4855   -1.1681   -0.3974 C.ar    1  UNL1        0.1665
     18 C           4.6724   -0.2084    0.5737 C.ar    1  UNL1        0.1697
     19 C           3.6051    0.3349    1.2437 C.ar    1  UNL1        0.0256
     20 O           6.0620   -0.0169    0.6291 O.3     1  UNL1       -0.4525
     21 C           6.6013   -0.4459   -0.6245 C.3     1  UNL1        0.2332
     22 O           5.7440   -1.5372   -0.9079 O.3     1  UNL1       -0.4526
     23 C          -2.2509   -1.3729   -1.1778 C.ar    1  UNL1       -0.0556
     24 C          -2.6857   -2.6770   -1.4291 C.ar    1  UNL1       -0.0262
     25 H          -4.5059   -3.1698    1.3341 H       1  UNL1        0.0646
     26 H          -3.7521   -0.8778    1.7934 H       1  UNL1        0.0621
     27 H          -2.5727    1.0136    1.2100 H       1  UNL1        0.0353
     28 H          -3.7781    1.3283   -1.0872 H       1  UNL1        0.0283
     29 H          -2.0592    1.5141   -1.7329 H       1  UNL1        0.0283
     30 H          -3.6472    3.1139    0.3142 H       1  UNL1        0.0424
     31 H          -2.6545    3.7737   -1.0087 H       1  UNL1        0.0424
     32 H          -1.3372    4.0701    0.7804 H       1  UNL1        0.1219
     33 H          -0.2171    2.6956   -0.7797 H       1  UNL1        0.0428
     34 H           0.4039    2.6347    0.9084 H       1  UNL1        0.0428
     35 H          -0.1379    0.4550   -0.5667 H       1  UNL1        0.0352
     36 H          -0.5748    1.0273    2.4152 H       1  UNL1        0.0700
     37 H          -0.4800   -0.6492    1.8811 H       1  UNL1        0.0700
     38 H           1.1235   -1.3907   -0.2493 H       1  UNL1        0.0655
     39 H           3.0565   -2.3182   -1.4372 H       1  UNL1        0.0656
     40 H           3.7449    1.0829    2.0013 H       1  UNL1        0.0692
     41 H           6.3856    0.3618   -1.3467 H       1  UNL1        0.1166
     42 H           7.6530   -0.7167   -0.5532 H       1  UNL1        0.1166
     43 H          -1.6161   -0.8491   -1.8712 H       1  UNL1        0.0621
     44 H          -2.3698   -3.1670   -2.3506 H       1  UNL1        0.0646
@<TRIPOS>BOND
     1     1     2    1
     2     2     3   ar
     3     3     4   ar
     4     4     5   ar
     5     5     6    1
     6     6     7    1
     7     7     8    1
     8     8     9    1
     9     9    10    1
    10    10    11    1
    11    11    12    1
    12    12    13    1
    13    13    14    1
    14    14    15   ar
    15    15    16   ar
    16    16    17   ar
    17    17    18   ar
    18    18    19   ar
    19    18    20    1
    20    20    21    1
    21    21    22    1
    22     5    23   ar
    23    23    24   ar
    24    24     2   ar
    25    11     6    1
    26    19    14   ar
    27    22    17    1
    28     3    25    1
    29     4    26    1
    30     6    27    1
    31     7    28    1
    32     7    29    1
    33     8    30    1
    34     8    31    1
    35     9    32    1
    36    10    33    1
    37    10    34    1
    38    11    35    1
    39    12    36    1
    40    12    37    1
    41    15    38    1
    42    16    39    1
    43    19    40    1
    44    21    41    1
    45    21    42    1
    46    23    43    1
    47    24    44    1
