@<TRIPOS>MOLECULE
*****
 30 30 0 0 0
SMALL
GASTEIGER

@<TRIPOS>ATOM
      1 C          -1.0353   -0.8924   -0.3005 C.3     1  UNL1        0.1126
      2 C          -1.5089   -1.9257   -1.2915 C.3     1  UNL1        0.0730
      3 O          -2.7970   -2.3468   -0.9284 O.3     1  UNL1       -0.3924
      4 O           0.2553   -0.4404   -0.6255 O.3     1  UNL1       -0.3443
      5 C           0.7453    0.3251    0.4288 C.3     1  UNL1        0.1815
      6 N           2.1502    0.6172    0.2040 N.2     1  UNL1       -0.2209
      7 C           2.9630   -0.3391   -0.0370 C.2     1  UNL1        0.1817
      8 C           4.4022   -0.0488   -0.2682 C.3     1  UNL1        0.0113
      9 O           2.5152   -1.6609   -0.0866 O.2     1  UNL1       -0.4958
     10 C          -0.0590    1.6080    0.5352 C.3     1  UNL1        0.1299
     11 O           0.4364    2.4365    1.5104 O.3     1  UNL1       -0.3846
     12 C          -1.4927    1.1807    0.8647 C.3     1  UNL1        0.1136
     13 O          -2.3251    2.2503    1.0862 O.3     1  UNL1       -0.3864
     14 C          -1.9289    0.3303   -0.3231 C.3     1  UNL1        0.1119
     15 O          -3.2698    0.0504   -0.3058 O.3     1  UNL1       -0.3865
     16 H          -1.0125   -1.2953    0.7176 H       1  UNL1        0.0647
     17 H          -1.5907   -1.4754   -2.2990 H       1  UNL1        0.0584
     18 H          -0.8240   -2.7746   -1.3056 H       1  UNL1        0.0584
     19 H          -2.8457   -2.2705    0.0663 H       1  UNL1        0.2095
     20 H           0.5701   -0.2430    1.3607 H       1  UNL1        0.0880
     21 H           4.5624    1.0289   -0.4071 H       1  UNL1        0.0324
     22 H           4.7302   -0.5904   -1.1877 H       1  UNL1        0.0324
     23 H           4.9965   -0.4487    0.5822 H       1  UNL1        0.0324
     24 H           1.6895   -1.9414    0.4483 H       1  UNL1        0.2934
     25 H          -0.1332    2.0853   -0.4805 H       1  UNL1        0.0666
     26 H           0.5520    3.3449    1.1093 H       1  UNL1        0.2101
     27 H          -1.4516    0.5431    1.7833 H       1  UNL1        0.0647
     28 H          -3.0691    1.9305    1.6494 H       1  UNL1        0.2100
     29 H          -1.6478    0.9287   -1.2336 H       1  UNL1        0.0647
     30 H          -3.5770    0.0334   -1.2662 H       1  UNL1        0.2100
@<TRIPOS>BOND
     1     1     2    1
     2     2     3    1
     3     1     4    1
     4     4     5    1
     5     5     6    1
     6     6     7    2
     7     7     8    1
     8     7     9    1
     9     5    10    1
    10    10    11    1
    11    10    12    1
    12    12    13    1
    13    12    14    1
    14    14    15    1
    15    14     1    1
    16     1    16    1
    17     2    17    1
    18     2    18    1
    19     3    19    1
    20     5    20    1
    21     8    21    1
    22     8    22    1
    23     8    23    1
    24     9    24    1
    25    10    25    1
    26    11    26    1
    27    12    27    1
    28    13    28    1
    29    14    29    1
    30    15    30    1
