@<TRIPOS>MOLECULE
*****
 62 64 0 0 0
SMALL
GASTEIGER

@<TRIPOS>ATOM
      1 C          -0.1924    3.9868   -1.5492 C.3     1  UNL1       -0.0645
      2 C           0.0765    2.6967   -2.2403 C.3     1  UNL1       -0.0465
      3 C           1.3791    2.0463   -1.8483 C.3     1  UNL1       -0.0005
      4 S           1.5029    1.6591   -0.1081 S.3     1  UNL1       -0.1051
      5 C           0.2930    0.3881    0.3095 C.ar    1  UNL1        0.1111
      6 N          -0.9376    0.6945    0.6969 N.ar    1  UNL1       -0.2251
      7 C          -1.8803   -0.2459    1.0195 C.ar    1  UNL1        0.1225
      8 N          -3.1691    0.1208    1.4257 N.pl3   1  UNL1       -0.3149
      9 C          -3.4751    1.5598    1.4839 C.3     1  UNL1        0.0135
     10 C          -4.9545    1.7192    1.5643 C.3     1  UNL1       -0.0369
     11 C          -5.5928    0.8651    0.4693 C.3     1  UNL1       -0.0469
     12 C          -5.4558   -0.5686    0.8989 C.3     1  UNL1       -0.0152
     13 C          -5.3774   -1.5119   -0.2706 C.3     1  UNL1        0.0490
     14 C          -6.6145   -1.3998   -1.0866 C.2     1  UNL1        0.3050
     15 O          -7.5643   -0.6168   -0.7919 O.2     1  UNL1       -0.2510
     16 O          -6.8017   -2.1597   -2.2368 O.3     1  UNL1       -0.4806
     17 C          -4.2336   -0.7628    1.7960 C.3     1  UNL1        0.0168
     18 C          -1.5027   -1.5587    0.9289 C.ar    1  UNL1       -0.0209
     19 C          -0.2172   -1.9357    0.5261 C.ar    1  UNL1       -0.0438
     20 C           0.6744   -0.9319    0.2177 C.ar    1  UNL1        0.0686
     21 C           2.0509   -1.2361   -0.2147 C.2     1  UNL1        0.2469
     22 O           2.3048   -1.9725   -1.1992 O.2     1  UNL1       -0.2701
     23 N           3.1740   -0.6959    0.4812 N.am    1  UNL1       -0.3084
     24 C           4.5361   -0.9299    0.1445 C.3     1  UNL1        0.0234
     25 C           5.3192    0.2806   -0.2281 C.3     1  UNL1       -0.0345
     26 C           6.5923   -0.2078   -0.9330 C.3     1  UNL1       -0.0514
     27 C           7.3895   -1.1261   -0.0582 C.3     1  UNL1       -0.0529
     28 C           6.5749   -2.1789    0.6179 C.3     1  UNL1       -0.0514
     29 C           5.2951   -1.6787    1.2211 C.3     1  UNL1       -0.0345
     30 H          -1.2944    4.1402   -1.3963 H       1  UNL1        0.0230
     31 H           0.1238    4.8213   -2.2139 H       1  UNL1        0.0230
     32 H           0.3687    4.1209   -0.6058 H       1  UNL1        0.0230
     33 H          -0.7752    2.0043   -2.0976 H       1  UNL1        0.0271
     34 H           0.1546    2.8712   -3.3537 H       1  UNL1        0.0271
     35 H           1.4504    1.1060   -2.4632 H       1  UNL1        0.0380
     36 H           2.2564    2.6523   -2.1459 H       1  UNL1        0.0380
     37 H          -2.9468    1.9973    2.3538 H       1  UNL1        0.0464
     38 H          -3.1270    2.0221    0.5196 H       1  UNL1        0.0464
     39 H          -5.3283    1.3963    2.5726 H       1  UNL1        0.0280
     40 H          -5.2807    2.7690    1.4404 H       1  UNL1        0.0280
     41 H          -6.6174    1.2036    0.2995 H       1  UNL1        0.0269
     42 H          -4.9526    1.0024   -0.4246 H       1  UNL1        0.0269
     43 H          -6.3360   -0.8735    1.5002 H       1  UNL1        0.0321
     44 H          -4.5145   -1.1667   -0.9050 H       1  UNL1        0.0381
     45 H          -5.2191   -2.5399    0.1063 H       1  UNL1        0.0381
     46 H          -7.7184   -2.5868   -2.4308 H       1  UNL1        0.2951
     47 H          -4.5805   -0.5178    2.8448 H       1  UNL1        0.0467
     48 H          -4.0128   -1.8338    1.7567 H       1  UNL1        0.0467
     49 H          -2.1903   -2.3497    1.1672 H       1  UNL1        0.0652
     50 H           0.0570   -2.9741    0.4604 H       1  UNL1        0.0627
     51 H           2.9601   -0.0792    1.3069 H       1  UNL1        0.1493
     52 H           4.5399   -1.6103   -0.7590 H       1  UNL1        0.0498
     53 H           4.8008    0.9200   -0.9840 H       1  UNL1        0.0283
     54 H           5.5962    0.8366    0.6725 H       1  UNL1        0.0283
     55 H           6.2325   -0.8049   -1.8166 H       1  UNL1        0.0266
     56 H           7.1987    0.6456   -1.2412 H       1  UNL1        0.0266
     57 H           8.0559   -0.5574    0.6415 H       1  UNL1        0.0265
     58 H           8.1079   -1.6671   -0.7427 H       1  UNL1        0.0265
     59 H           6.3694   -2.9842   -0.1157 H       1  UNL1        0.0266
     60 H           7.2171   -2.6418    1.4112 H       1  UNL1        0.0266
     61 H           5.5114   -1.0583    2.0908 H       1  UNL1        0.0283
     62 H           4.6993   -2.5629    1.5152 H       1  UNL1        0.0283
@<TRIPOS>BOND
     1     1     2    1
     2     2     3    1
     3     3     4    1
     4     4     5    1
     5     5     6   ar
     6     6     7   ar
     7     7     8    1
     8     8     9    1
     9     9    10    1
    10    10    11    1
    11    11    12    1
    12    12    13    1
    13    13    14    1
    14    14    15    2
    15    14    16    1
    16    12    17    1
    17     7    18   ar
    18    18    19   ar
    19    19    20   ar
    20    20    21    1
    21    21    22    2
    22    21    23   am
    23    23    24    1
    24    24    25    1
    25    25    26    1
    26    26    27    1
    27    27    28    1
    28    28    29    1
    29    20     5   ar
    30    29    24    1
    31    17     8    1
    32     1    30    1
    33     1    31    1
    34     1    32    1
    35     2    33    1
    36     2    34    1
    37     3    35    1
    38     3    36    1
    39     9    37    1
    40     9    38    1
    41    10    39    1
    42    10    40    1
    43    11    41    1
    44    11    42    1
    45    12    43    1
    46    13    44    1
    47    13    45    1
    48    16    46    1
    49    17    47    1
    50    17    48    1
    51    18    49    1
    52    19    50    1
    53    23    51    1
    54    24    52    1
    55    25    53    1
    56    25    54    1
    57    26    55    1
    58    26    56    1
    59    27    57    1
    60    27    58    1
    61    28    59    1
    62    28    60    1
    63    29    61    1
    64    29    62    1
