
     RDKit          3D

 62 64  0  0  0  0  0  0  0  0999 V2000
   -0.1924    3.9868   -1.5492 C   0  0  0  0  0  0  0  0  0  0  0  0
    0.0765    2.6967   -2.2403 C   0  0  0  0  0  0  0  0  0  0  0  0
    1.3791    2.0463   -1.8483 C   0  0  0  0  0  0  0  0  0  0  0  0
    1.5029    1.6591   -0.1081 S   0  0  0  0  0  0  0  0  0  0  0  0
    0.2930    0.3881    0.3095 C   0  0  0  0  0  0  0  0  0  0  0  0
   -0.9376    0.6945    0.6969 N   0  0  0  0  0  0  0  0  0  0  0  0
   -1.8803   -0.2459    1.0195 C   0  0  0  0  0  0  0  0  0  0  0  0
   -3.1691    0.1208    1.4257 N   0  0  0  0  0  0  0  0  0  0  0  0
   -3.4751    1.5598    1.4839 C   0  0  0  0  0  0  0  0  0  0  0  0
   -4.9545    1.7192    1.5643 C   0  0  0  0  0  0  0  0  0  0  0  0
   -5.5928    0.8651    0.4693 C   0  0  0  0  0  0  0  0  0  0  0  0
   -5.4558   -0.5686    0.8989 C   0  0  1  0  0  0  0  0  0  0  0  0
   -5.3774   -1.5119   -0.2706 C   0  0  0  0  0  0  0  0  0  0  0  0
   -6.6145   -1.3998   -1.0866 C   0  0  0  0  0  0  0  0  0  0  0  0
   -7.5643   -0.6168   -0.7919 O   0  0  0  0  0  0  0  0  0  0  0  0
   -6.8017   -2.1597   -2.2368 O   0  0  0  0  0  0  0  0  0  0  0  0
   -4.2336   -0.7628    1.7960 C   0  0  0  0  0  0  0  0  0  0  0  0
   -1.5027   -1.5587    0.9289 C   0  0  0  0  0  0  0  0  0  0  0  0
   -0.2172   -1.9357    0.5261 C   0  0  0  0  0  0  0  0  0  0  0  0
    0.6744   -0.9319    0.2177 C   0  0  0  0  0  0  0  0  0  0  0  0
    2.0509   -1.2361   -0.2147 C   0  0  0  0  0  0  0  0  0  0  0  0
    2.3048   -1.9725   -1.1992 O   0  0  0  0  0  0  0  0  0  0  0  0
    3.1740   -0.6959    0.4812 N   0  0  0  0  0  0  0  0  0  0  0  0
    4.5361   -0.9299    0.1445 C   0  0  0  0  0  0  0  0  0  0  0  0
    5.3192    0.2806   -0.2281 C   0  0  0  0  0  0  0  0  0  0  0  0
    6.5923   -0.2078   -0.9330 C   0  0  0  0  0  0  0  0  0  0  0  0
    7.3895   -1.1261   -0.0582 C   0  0  0  0  0  0  0  0  0  0  0  0
    6.5749   -2.1789    0.6179 C   0  0  0  0  0  0  0  0  0  0  0  0
    5.2951   -1.6787    1.2211 C   0  0  0  0  0  0  0  0  0  0  0  0
   -1.2944    4.1402   -1.3963 H   0  0  0  0  0  0  0  0  0  0  0  0
    0.1238    4.8213   -2.2139 H   0  0  0  0  0  0  0  0  0  0  0  0
    0.3687    4.1209   -0.6058 H   0  0  0  0  0  0  0  0  0  0  0  0
   -0.7752    2.0043   -2.0976 H   0  0  0  0  0  0  0  0  0  0  0  0
    0.1546    2.8712   -3.3537 H   0  0  0  0  0  0  0  0  0  0  0  0
    1.4504    1.1060   -2.4632 H   0  0  0  0  0  0  0  0  0  0  0  0
    2.2564    2.6523   -2.1459 H   0  0  0  0  0  0  0  0  0  0  0  0
   -2.9468    1.9973    2.3538 H   0  0  0  0  0  0  0  0  0  0  0  0
   -3.1270    2.0221    0.5196 H   0  0  0  0  0  0  0  0  0  0  0  0
   -5.3283    1.3963    2.5726 H   0  0  0  0  0  0  0  0  0  0  0  0
   -5.2807    2.7690    1.4404 H   0  0  0  0  0  0  0  0  0  0  0  0
   -6.6174    1.2036    0.2995 H   0  0  0  0  0  0  0  0  0  0  0  0
   -4.9526    1.0024   -0.4246 H   0  0  0  0  0  0  0  0  0  0  0  0
   -6.3360   -0.8735    1.5002 H   0  0  0  0  0  0  0  0  0  0  0  0
   -4.5145   -1.1667   -0.9050 H   0  0  0  0  0  0  0  0  0  0  0  0
   -5.2191   -2.5399    0.1063 H   0  0  0  0  0  0  0  0  0  0  0  0
   -7.7184   -2.5868   -2.4308 H   0  0  0  0  0  0  0  0  0  0  0  0
   -4.5805   -0.5178    2.8448 H   0  0  0  0  0  0  0  0  0  0  0  0
   -4.0128   -1.8338    1.7567 H   0  0  0  0  0  0  0  0  0  0  0  0
   -2.1903   -2.3497    1.1672 H   0  0  0  0  0  0  0  0  0  0  0  0
    0.0570   -2.9741    0.4604 H   0  0  0  0  0  0  0  0  0  0  0  0
    2.9601   -0.0792    1.3069 H   0  0  0  0  0  0  0  0  0  0  0  0
    4.5399   -1.6103   -0.7590 H   0  0  0  0  0  0  0  0  0  0  0  0
    4.8008    0.9200   -0.9840 H   0  0  0  0  0  0  0  0  0  0  0  0
    5.5962    0.8366    0.6725 H   0  0  0  0  0  0  0  0  0  0  0  0
    6.2325   -0.8049   -1.8166 H   0  0  0  0  0  0  0  0  0  0  0  0
    7.1987    0.6456   -1.2412 H   0  0  0  0  0  0  0  0  0  0  0  0
    8.0559   -0.5574    0.6415 H   0  0  0  0  0  0  0  0  0  0  0  0
    8.1079   -1.6671   -0.7427 H   0  0  0  0  0  0  0  0  0  0  0  0
    6.3694   -2.9842   -0.1157 H   0  0  0  0  0  0  0  0  0  0  0  0
    7.2171   -2.6418    1.4112 H   0  0  0  0  0  0  0  0  0  0  0  0
    5.5114   -1.0583    2.0908 H   0  0  0  0  0  0  0  0  0  0  0  0
    4.6993   -2.5629    1.5152 H   0  0  0  0  0  0  0  0  0  0  0  0
  1  2  1  0
  2  3  1  0
  3  4  1  0
  4  5  1  0
  5  6  2  0
  6  7  1  0
  7  8  1  0
  8  9  1  0
  9 10  1  0
 10 11  1  0
 11 12  1  0
 12 13  1  0
 13 14  1  0
 14 15  2  0
 14 16  1  0
 12 17  1  0
  7 18  2  0
 18 19  1  0
 19 20  2  0
 20 21  1  0
 21 22  2  0
 21 23  1  0
 23 24  1  0
 24 25  1  0
 25 26  1  0
 26 27  1  0
 27 28  1  0
 28 29  1  0
 20  5  1  0
 29 24  1  0
 17  8  1  0
  1 30  1  0
  1 31  1  0
  1 32  1  0
  2 33  1  0
  2 34  1  0
  3 35  1  0
  3 36  1  0
  9 37  1  0
  9 38  1  0
 10 39  1  0
 10 40  1  0
 11 41  1  0
 11 42  1  0
 12 43  1  1
 13 44  1  0
 13 45  1  0
 16 46  1  0
 17 47  1  0
 17 48  1  0
 18 49  1  0
 19 50  1  0
 23 51  1  0
 24 52  1  0
 25 53  1  0
 25 54  1  0
 26 55  1  0
 26 56  1  0
 27 57  1  0
 27 58  1  0
 28 59  1  0
 28 60  1  0
 29 61  1  0
 29 62  1  0
M  END
$$$$
