@<TRIPOS>MOLECULE
*****
 28 29 0 0 0
SMALL
GASTEIGER

@<TRIPOS>ATOM
      1 C           4.2971    1.8273    0.1569 C.3     1  UNL1       -0.0029
      2 C           4.1596    0.3779    0.3871 C.ar    1  UNL1        0.1463
      3 C           2.9999   -0.3508    0.3147 C.ar    1  UNL1        0.0984
      4 C           3.3237   -1.6718    0.6040 C.ar    1  UNL1        0.0825
      5 N           4.6322   -1.6792    0.8316 N.ar    1  UNL1       -0.0857
      6 O           5.0890   -0.4887    0.7004 O.2     1  UNL1       -0.3592
      7 C           1.6464    0.0833    0.0052 C.2     1  UNL1        0.2531
      8 O           1.4570    1.1382   -0.6435 O.2     1  UNL1       -0.2697
      9 N           0.5010   -0.6492    0.4133 N.am    1  UNL1       -0.2814
     10 C          -0.8766   -0.3979    0.2156 C.ar    1  UNL1        0.0337
     11 C          -1.8003   -1.2798    0.7246 C.ar    1  UNL1       -0.0399
     12 C          -3.1543   -1.0917    0.5692 C.ar    1  UNL1       -0.0484
     13 C          -3.6583   -0.0106   -0.1039 C.ar    1  UNL1        0.0549
     14 C          -2.7767    0.8841   -0.6212 C.ar    1  UNL1       -0.0484
     15 C          -1.4160    0.6746   -0.4529 C.ar    1  UNL1       -0.0399
     16 C          -5.1374    0.1611   -0.2511 C.3     1  UNL1        0.4174
     17 F          -5.5422    1.0020    0.7681 F       1  UNL1       -0.1659
     18 F          -5.7115   -1.0850   -0.2009 F       1  UNL1       -0.1659
     19 F          -5.3679    0.7496   -1.4884 F       1  UNL1       -0.1659
     20 H           5.2724    2.0062   -0.3696 H       1  UNL1        0.0309
     21 H           4.3661    2.3693    1.1088 H       1  UNL1        0.0309
     22 H           3.5079    2.2452   -0.4800 H       1  UNL1        0.0309
     23 H           2.6297   -2.4961    0.6284 H       1  UNL1        0.0872
     24 H           0.7613   -1.5153    0.9505 H       1  UNL1        0.1551
     25 H          -1.4642   -2.1593    1.2709 H       1  UNL1        0.0636
     26 H          -3.8198   -1.8208    0.9945 H       1  UNL1        0.0624
     27 H          -3.1382    1.7649   -1.1685 H       1  UNL1        0.0624
     28 H          -0.7801    1.4125   -0.8863 H       1  UNL1        0.0636
@<TRIPOS>BOND
     1     1     2    1
     2     2     3   ar
     3     3     4   ar
     4     4     5   ar
     5     5     6   ar
     6     3     7    1
     7     7     8    2
     8     7     9   am
     9     9    10    1
    10    10    11   ar
    11    11    12   ar
    12    12    13   ar
    13    13    14   ar
    14    14    15   ar
    15    13    16    1
    16    16    17    1
    17    16    18    1
    18    16    19    1
    19     6     2   ar
    20    15    10   ar
    21     1    20    1
    22     1    21    1
    23     1    22    1
    24     4    23    1
    25     9    24    1
    26    11    25    1
    27    12    26    1
    28    14    27    1
    29    15    28    1
