
     RDKit          3D

 53 56  0  0  0  0  0  0  0  0999 V2000
    4.9955   -3.0418    0.0615 C   0  0  0  0  0  0  0  0  0  0  0  0
    4.1954   -1.9963    0.6473 N   0  0  0  0  0  0  0  0  0  0  0  0
    5.0189   -1.2130    1.5203 C   0  0  0  0  0  0  0  0  0  0  0  0
    3.5516   -1.2476   -0.3835 C   0  0  0  0  0  0  0  0  0  0  0  0
    2.6869   -0.1272    0.0954 C   0  0  0  0  0  0  0  0  0  0  0  0
    1.5603   -0.6175    0.9999 C   0  0  0  0  0  0  0  0  0  0  0  0
    0.7883    0.5422    1.4034 N   0  0  0  0  0  0  0  0  0  0  0  0
    1.0184    1.3104    2.4917 C   0  0  0  0  0  0  0  0  0  0  0  0
    0.1029    2.2989    2.5427 N   0  0  0  0  0  0  0  0  0  0  0  0
   -0.7095    2.1306    1.4556 C   0  0  0  0  0  0  0  0  0  0  0  0
   -1.8419    2.9656    1.0966 C   0  0  0  0  0  0  0  0  0  0  0  0
   -3.0287    2.7945    1.7748 C   0  0  0  0  0  0  0  0  0  0  0  0
   -4.1342    3.5824    1.4622 C   0  0  0  0  0  0  0  0  0  0  0  0
   -4.0470    4.5376    0.4727 C   0  0  0  0  0  0  0  0  0  0  0  0
   -5.1063    5.3018    0.1634 F   0  0  0  0  0  0  0  0  0  0  0  0
   -2.8655    4.7240   -0.2187 C   0  0  0  0  0  0  0  0  0  0  0  0
   -1.8012    3.9266    0.1212 C   0  0  0  0  0  0  0  0  0  0  0  0
   -0.2783    1.0348    0.7493 C   0  0  0  0  0  0  0  0  0  0  0  0
   -0.8470    0.4997   -0.4578 C   0  0  0  0  0  0  0  0  0  0  0  0
   -0.8136    1.2058   -1.6577 C   0  0  0  0  0  0  0  0  0  0  0  0
   -1.3698    0.6738   -2.7940 C   0  0  0  0  0  0  0  0  0  0  0  0
   -1.9850   -0.5813   -2.7979 C   0  0  0  0  0  0  0  0  0  0  0  0
   -2.5883   -1.3033   -3.7543 N   0  0  0  0  0  0  0  0  0  0  0  0
   -3.0202   -2.4588   -3.2382 C   0  0  0  0  0  0  0  0  0  0  0  0
   -2.6585   -2.4357   -1.8947 C   0  0  0  0  0  0  0  0  0  0  0  0
   -2.9414   -3.5034   -0.9672 C   0  0  0  0  0  0  0  0  0  0  0  0
   -2.5175   -3.4197    0.3773 N   0  0  0  0  0  0  0  0  0  0  0  0
   -3.5681   -4.5126   -1.3592 O   0  0  0  0  0  0  0  0  0  0  0  0
   -2.0134   -1.2619   -1.6272 N   0  0  0  0  0  0  0  0  0  0  0  0
   -1.4674   -0.7319   -0.5259 C   0  0  0  0  0  0  0  0  0  0  0  0
    4.7358   -3.1523   -1.0001 H   0  0  0  0  0  0  0  0  0  0  0  0
    6.0829   -2.8586    0.1516 H   0  0  0  0  0  0  0  0  0  0  0  0
    4.8021   -4.0301    0.5359 H   0  0  0  0  0  0  0  0  0  0  0  0
    6.0766   -1.2336    1.1431 H   0  0  0  0  0  0  0  0  0  0  0  0
    4.9923   -1.7093    2.5231 H   0  0  0  0  0  0  0  0  0  0  0  0
    4.7209   -0.1704    1.6333 H   0  0  0  0  0  0  0  0  0  0  0  0
    4.3773   -0.7623   -0.9823 H   0  0  0  0  0  0  0  0  0  0  0  0
    3.0151   -1.9216   -1.0568 H   0  0  0  0  0  0  0  0  0  0  0  0
    3.2441    0.7048    0.5354 H   0  0  0  0  0  0  0  0  0  0  0  0
    2.1769    0.2891   -0.8238 H   0  0  0  0  0  0  0  0  0  0  0  0
    2.0179   -1.1489    1.8398 H   0  0  0  0  0  0  0  0  0  0  0  0
    0.9597   -1.3200    0.3839 H   0  0  0  0  0  0  0  0  0  0  0  0
    1.8164    1.1507    3.2065 H   0  0  0  0  0  0  0  0  0  0  0  0
   -3.1546    2.0654    2.5560 H   0  0  0  0  0  0  0  0  0  0  0  0
   -5.0443    3.4312    2.0026 H   0  0  0  0  0  0  0  0  0  0  0  0
   -2.7987    5.4771   -0.9973 H   0  0  0  0  0  0  0  0  0  0  0  0
   -0.8782    4.0698   -0.4090 H   0  0  0  0  0  0  0  0  0  0  0  0
   -0.3613    2.1616   -1.7303 H   0  0  0  0  0  0  0  0  0  0  0  0
   -1.3394    1.2310   -3.7238 H   0  0  0  0  0  0  0  0  0  0  0  0
   -3.5495   -3.2712   -3.7405 H   0  0  0  0  0  0  0  0  0  0  0  0
   -3.1572   -3.0947    1.1292 H   0  0  0  0  0  0  0  0  0  0  0  0
   -1.5397   -3.6809    0.6788 H   0  0  0  0  0  0  0  0  0  0  0  0
   -1.5108   -1.3034    0.3853 H   0  0  0  0  0  0  0  0  0  0  0  0
  1  2  1  0
  2  3  1  0
  2  4  1  0
  4  5  1  0
  5  6  1  0
  6  7  1  0
  7  8  1  0
  8  9  2  0
  9 10  1  0
 10 11  1  0
 11 12  2  0
 12 13  1  0
 13 14  2  0
 14 15  1  0
 14 16  1  0
 16 17  2  0
 10 18  2  0
 18 19  1  0
 19 20  1  0
 20 21  2  0
 21 22  1  0
 22 23  2  0
 23 24  1  0
 24 25  2  0
 25 26  1  0
 26 27  1  0
 26 28  2  0
 25 29  1  0
 29 30  1  0
 18  7  1  0
 30 19  2  0
 17 11  1  0
 29 22  1  0
  1 31  1  0
  1 32  1  0
  1 33  1  0
  3 34  1  0
  3 35  1  0
  3 36  1  0
  4 37  1  0
  4 38  1  0
  5 39  1  0
  5 40  1  0
  6 41  1  0
  6 42  1  0
  8 43  1  0
 12 44  1  0
 13 45  1  0
 16 46  1  0
 17 47  1  0
 20 48  1  0
 21 49  1  0
 24 50  1  0
 27 51  1  0
 27 52  1  0
 30 53  1  0
M  END
$$$$
