@<TRIPOS>MOLECULE
*****
 53 56 0 0 0
SMALL
GASTEIGER

@<TRIPOS>ATOM
      1 C           4.9955   -3.0418    0.0615 C.3     1  UNL1       -0.0130
      2 N           4.1954   -1.9963    0.6473 N.3     1  UNL1       -0.3083
      3 C           5.0189   -1.2130    1.5203 C.3     1  UNL1       -0.0130
      4 C           3.5516   -1.2476   -0.3835 C.3     1  UNL1       -0.0001
      5 C           2.6869   -0.1272    0.0954 C.3     1  UNL1       -0.0221
      6 C           1.5603   -0.6175    0.9999 C.3     1  UNL1        0.0259
      7 N           0.7883    0.5422    1.4034 N.ar    1  UNL1       -0.3295
      8 C           1.0184    1.3104    2.4917 C.ar    1  UNL1        0.0971
      9 N           0.1029    2.2989    2.5427 N.ar    1  UNL1       -0.2351
     10 C          -0.7095    2.1306    1.4556 C.ar    1  UNL1        0.0967
     11 C          -1.8419    2.9656    1.0966 C.ar    1  UNL1        0.0026
     12 C          -3.0287    2.7945    1.7748 C.ar    1  UNL1       -0.0498
     13 C          -4.1342    3.5824    1.4622 C.ar    1  UNL1       -0.0258
     14 C          -4.0470    4.5376    0.4727 C.ar    1  UNL1        0.1234
     15 F          -5.1063    5.3018    0.1634 F       1  UNL1       -0.2055
     16 C          -2.8655    4.7240   -0.2187 C.ar    1  UNL1       -0.0258
     17 C          -1.8012    3.9266    0.1212 C.ar    1  UNL1       -0.0498
     18 C          -0.2783    1.0348    0.7493 C.ar    1  UNL1        0.0778
     19 C          -0.8470    0.4997   -0.4578 C.ar    1  UNL1        0.0173
     20 C          -0.8136    1.2058   -1.6577 C.ar    1  UNL1       -0.0477
     21 C          -1.3698    0.6738   -2.7940 C.ar    1  UNL1       -0.0182
     22 C          -1.9850   -0.5813   -2.7979 C.ar    1  UNL1        0.1381
     23 N          -2.5883   -1.3033   -3.7543 N.ar    1  UNL1       -0.2353
     24 C          -3.0202   -2.4588   -3.2382 C.ar    1  UNL1        0.0588
     25 C          -2.6585   -2.4357   -1.8947 C.ar    1  UNL1        0.1280
     26 C          -2.9414   -3.5034   -0.9672 C.2     1  UNL1        0.2599
     27 N          -2.5175   -3.4197    0.3773 N.am    1  UNL1       -0.3241
     28 O          -3.5681   -4.5126   -1.3592 O.2     1  UNL1       -0.2687
     29 N          -2.0134   -1.2619   -1.6272 N.ar    1  UNL1       -0.2949
     30 C          -1.4674   -0.7319   -0.5259 C.ar    1  UNL1        0.0211
     31 H           4.7358   -3.1523   -1.0001 H       1  UNL1        0.0391
     32 H           6.0829   -2.8586    0.1516 H       1  UNL1        0.0391
     33 H           4.8021   -4.0301    0.5359 H       1  UNL1        0.0391
     34 H           6.0766   -1.2336    1.1431 H       1  UNL1        0.0391
     35 H           4.9923   -1.7093    2.5231 H       1  UNL1        0.0391
     36 H           4.7209   -0.1704    1.6333 H       1  UNL1        0.0391
     37 H           4.3773   -0.7623   -0.9823 H       1  UNL1        0.0427
     38 H           3.0151   -1.9216   -1.0568 H       1  UNL1        0.0427
     39 H           3.2441    0.7048    0.5354 H       1  UNL1        0.0295
     40 H           2.1769    0.2891   -0.8238 H       1  UNL1        0.0295
     41 H           2.0179   -1.1489    1.8398 H       1  UNL1        0.0492
     42 H           0.9597   -1.3200    0.3839 H       1  UNL1        0.0492
     43 H           1.8164    1.1507    3.2065 H       1  UNL1        0.1029
     44 H          -3.1546    2.0654    2.5560 H       1  UNL1        0.0625
     45 H          -5.0443    3.4312    2.0026 H       1  UNL1        0.0646
     46 H          -2.7987    5.4771   -0.9973 H       1  UNL1        0.0646
     47 H          -0.8782    4.0698   -0.4090 H       1  UNL1        0.0625
     48 H          -0.3613    2.1616   -1.7303 H       1  UNL1        0.0626
     49 H          -1.3394    1.2310   -3.7238 H       1  UNL1        0.0654
     50 H          -3.5495   -3.2712   -3.7405 H       1  UNL1        0.0853
     51 H          -3.1572   -3.0947    1.1292 H       1  UNL1        0.1453
     52 H          -1.5397   -3.6809    0.6788 H       1  UNL1        0.1453
     53 H          -1.5108   -1.3034    0.3853 H       1  UNL1        0.0820
@<TRIPOS>BOND
     1     1     2    1
     2     2     3    1
     3     2     4    1
     4     4     5    1
     5     5     6    1
     6     6     7    1
     7     7     8   ar
     8     8     9   ar
     9     9    10   ar
    10    10    11    1
    11    11    12   ar
    12    12    13   ar
    13    13    14   ar
    14    14    15    1
    15    14    16   ar
    16    16    17   ar
    17    10    18   ar
    18    18    19    1
    19    19    20   ar
    20    20    21   ar
    21    21    22   ar
    22    22    23   ar
    23    23    24   ar
    24    24    25   ar
    25    25    26    1
    26    26    27   am
    27    26    28    2
    28    25    29   ar
    29    29    30   ar
    30    18     7   ar
    31    30    19   ar
    32    17    11   ar
    33    29    22   ar
    34     1    31    1
    35     1    32    1
    36     1    33    1
    37     3    34    1
    38     3    35    1
    39     3    36    1
    40     4    37    1
    41     4    38    1
    42     5    39    1
    43     5    40    1
    44     6    41    1
    45     6    42    1
    46     8    43    1
    47    12    44    1
    48    13    45    1
    49    16    46    1
    50    17    47    1
    51    20    48    1
    52    21    49    1
    53    24    50    1
    54    27    51    1
    55    27    52    1
    56    30    53    1
