@<TRIPOS>MOLECULE
*****
 83 87 0 0 0
SMALL
GASTEIGER

@<TRIPOS>ATOM
      1 C          -2.2916    0.1015   -2.0667 C.3     1  UNL1       -0.0469
      2 C          -2.2948    1.6038   -1.8384 C.3     1  UNL1        0.0264
      3 N          -3.2515    1.8745   -0.7919 N.ar    1  UNL1       -0.2795
      4 C          -2.9879    2.0310    0.4870 C.ar    1  UNL1        0.1341
      5 C          -1.8827    2.0832    1.3954 C.3     1  UNL1        0.0078
      6 C          -0.4914    1.9289    1.1208 C.3     1  UNL1       -0.0422
      7 C           0.0750    0.6167    0.6525 C.3     1  UNL1       -0.0273
      8 C           1.5689    0.7813    0.4796 C.ar    1  UNL1       -0.0473
      9 C           2.4339    0.5362    1.5148 C.ar    1  UNL1       -0.0580
     10 C           3.8186    0.6894    1.3545 C.ar    1  UNL1       -0.0523
     11 C           4.3526    1.0903    0.1552 C.ar    1  UNL1        0.0004
     12 C           5.8021    1.2666   -0.0591 C.ar    1  UNL1        0.0711
     13 C           6.7430    1.0511    0.9150 C.ar    1  UNL1       -0.0339
     14 C           8.1089    1.2341    0.6600 C.ar    1  UNL1       -0.0358
     15 C           8.5369    1.6368   -0.5847 C.ar    1  UNL1        0.0661
     16 N           9.9026    1.8407   -0.9296 N.pl3   1  UNL1       -0.2148
     17 S          11.1026    0.7142   -0.4174 S.O2    1  UNL1        0.0724
     18 O          12.4750    1.2227   -0.7894 O.2     1  UNL1       -0.1500
     19 O          11.1036    0.6063    1.0998 O.2     1  UNL1       -0.1500
     20 C          10.8311   -0.8789   -1.0556 C.ar    1  UNL1        0.1085
     21 C          11.3481   -1.2549   -2.2667 C.ar    1  UNL1       -0.0351
     22 C          11.1048   -2.5321   -2.7336 C.ar    1  UNL1       -0.0599
     23 C          10.3561   -3.4371   -2.0139 C.ar    1  UNL1       -0.0616
     24 C           9.8505   -3.0255   -0.7985 C.ar    1  UNL1       -0.0599
     25 C          10.0776   -1.7585   -0.3089 C.ar    1  UNL1       -0.0351
     26 C           7.5577    1.8451   -1.5451 C.ar    1  UNL1        0.0506
     27 N           6.2568    1.6616   -1.2698 N.ar    1  UNL1       -0.2531
     28 C           3.4729    1.3381   -0.8924 C.ar    1  UNL1       -0.0523
     29 C           2.1060    1.1819   -0.7179 C.ar    1  UNL1       -0.0580
     30 N          -4.2576    2.2382    1.0416 N.ar    1  UNL1       -0.1534
     31 N          -5.1626    2.1986    0.1204 N.ar    1  UNL1       -0.2085
     32 C          -6.6106    2.3714    0.3057 C.3     1  UNL1        0.0717
     33 C          -7.2311    1.0488    0.5607 C.ar    1  UNL1       -0.0259
     34 C          -7.3989    0.5227    1.8285 C.ar    1  UNL1       -0.0565
     35 C          -7.9823   -0.7165    2.0055 C.ar    1  UNL1       -0.0578
     36 C          -8.4250   -1.4910    0.9553 C.ar    1  UNL1       -0.0420
     37 C          -9.0539   -2.8287    1.1201 C.3     1  UNL1       -0.0127
     38 C          -7.9756   -3.9205    1.0873 C.3     1  UNL1       -0.0560
     39 C         -10.0557   -3.1070    0.0163 C.3     1  UNL1       -0.0560
     40 C          -9.7262   -2.9162    2.4598 C.3     1  UNL1       -0.0560
     41 C          -8.2599   -0.9683   -0.3197 C.ar    1  UNL1       -0.0578
     42 C          -7.6778    0.2677   -0.4973 C.ar    1  UNL1       -0.0565
     43 C          -4.5929    1.9719   -1.0650 C.ar    1  UNL1        0.3470
     44 O          -5.1227    1.8631   -2.2057 O.2     1  UNL1       -0.2448
     45 H          -2.4498   -0.4032   -1.0702 H       1  UNL1        0.0247
     46 H          -1.3204   -0.2615   -2.4401 H       1  UNL1        0.0247
     47 H          -3.1328   -0.2193   -2.7145 H       1  UNL1        0.0247
     48 H          -2.6592    2.0287   -2.8245 H       1  UNL1        0.0491
     49 H          -1.2678    1.8861   -1.6290 H       1  UNL1        0.0491
     50 H          -1.9723    3.0151    2.0960 H       1  UNL1        0.0344
     51 H          -2.1277    1.2782    2.2055 H       1  UNL1        0.0344
     52 H           0.0487    2.0747    2.1306 H       1  UNL1        0.0272
     53 H          -0.0076    2.7855    0.5516 H       1  UNL1        0.0272
     54 H          -0.2829    0.2514   -0.2890 H       1  UNL1        0.0313
     55 H          -0.0192   -0.1299    1.4833 H       1  UNL1        0.0313
     56 H           2.0184    0.2195    2.4605 H       1  UNL1        0.0620
     57 H           4.4881    0.4917    2.1836 H       1  UNL1        0.0624
     58 H           6.4478    0.7354    1.8968 H       1  UNL1        0.0639
     59 H           8.8362    1.0625    1.4288 H       1  UNL1        0.0638
     60 H          10.2057    2.6757   -1.4999 H       1  UNL1        0.1737
     61 H          11.9454   -0.5875   -2.8818 H       1  UNL1        0.0637
     62 H          11.4926   -2.8816   -3.6906 H       1  UNL1        0.0618
     63 H          10.1579   -4.4402   -2.3705 H       1  UNL1        0.0618
     64 H           9.2628   -3.7238   -0.2240 H       1  UNL1        0.0618
     65 H           9.6574   -1.4673    0.6681 H       1  UNL1        0.0637
     66 H           7.8653    2.1599   -2.5244 H       1  UNL1        0.0849
     67 H           3.9006    1.6515   -1.8266 H       1  UNL1        0.0624
     68 H           1.4094    1.3730   -1.5323 H       1  UNL1        0.0620
     69 H          -6.8201    3.0921    1.1222 H       1  UNL1        0.0560
     70 H          -7.0029    2.7681   -0.6312 H       1  UNL1        0.0560
     71 H          -7.0502    1.1350    2.6501 H       1  UNL1        0.0621
     72 H          -8.1016   -1.1067    2.9914 H       1  UNL1        0.0621
     73 H          -7.0707   -3.4582    0.6464 H       1  UNL1        0.0238
     74 H          -7.6834   -4.1727    2.1439 H       1  UNL1        0.0238
     75 H          -8.3140   -4.8008    0.5346 H       1  UNL1        0.0238
     76 H         -10.8249   -3.8300    0.3293 H       1  UNL1        0.0238
     77 H          -9.4789   -3.6112   -0.8021 H       1  UNL1        0.0238
     78 H         -10.4548   -2.1772   -0.4261 H       1  UNL1        0.0238
     79 H          -9.9724   -1.9230    2.8903 H       1  UNL1        0.0238
     80 H         -10.6901   -3.4789    2.3245 H       1  UNL1        0.0238
     81 H          -9.1374   -3.5397    3.1615 H       1  UNL1        0.0238
     82 H          -8.5986   -1.5453   -1.1896 H       1  UNL1        0.0621
     83 H          -7.5496    0.6722   -1.5013 H       1  UNL1        0.0621
@<TRIPOS>BOND
     1     1     2    1
     2     2     3    1
     3     3     4   ar
     4     4     5    1
     5     5     6    1
     6     6     7    1
     7     7     8    1
     8     8     9   ar
     9     9    10   ar
    10    10    11   ar
    11    11    12    1
    12    12    13   ar
    13    13    14   ar
    14    14    15   ar
    15    15    16    1
    16    16    17    1
    17    17    18    2
    18    17    19    2
    19    17    20    1
    20    20    21   ar
    21    21    22   ar
    22    22    23   ar
    23    23    24   ar
    24    24    25   ar
    25    15    26   ar
    26    26    27   ar
    27    11    28   ar
    28    28    29   ar
    29     4    30   ar
    30    30    31   ar
    31    31    32    1
    32    32    33    1
    33    33    34   ar
    34    34    35   ar
    35    35    36   ar
    36    36    37    1
    37    37    38    1
    38    37    39    1
    39    37    40    1
    40    36    41   ar
    41    41    42   ar
    42    31    43   ar
    43    43    44    2
    44    43     3   ar
    45    29     8   ar
    46    42    33   ar
    47    27    12   ar
    48    25    20   ar
    49     1    45    1
    50     1    46    1
    51     1    47    1
    52     2    48    1
    53     2    49    1
    54     5    50    1
    55     5    51    1
    56     6    52    1
    57     6    53    1
    58     7    54    1
    59     7    55    1
    60     9    56    1
    61    10    57    1
    62    13    58    1
    63    14    59    1
    64    16    60    1
    65    21    61    1
    66    22    62    1
    67    23    63    1
    68    24    64    1
    69    25    65    1
    70    26    66    1
    71    28    67    1
    72    29    68    1
    73    32    69    1
    74    32    70    1
    75    34    71    1
    76    35    72    1
    77    38    73    1
    78    38    74    1
    79    38    75    1
    80    39    76    1
    81    39    77    1
    82    39    78    1
    83    40    79    1
    84    40    80    1
    85    40    81    1
    86    41    82    1
    87    42    83    1
