@<TRIPOS>MOLECULE
*****
 68 71 0 0 0
SMALL
GASTEIGER

@<TRIPOS>ATOM
      1 C           5.7457    2.1681    1.8079 C.3     1  UNL1       -0.0613
      2 C           5.7745    0.6549    2.0207 C.3     1  UNL1       -0.0302
      3 C           5.3472   -0.0747    0.7935 C.ar    1  UNL1       -0.0410
      4 C           4.0722   -0.6395    0.7456 C.ar    1  UNL1       -0.0159
      5 C           3.5710   -1.3194   -0.3432 C.ar    1  UNL1        0.1287
      6 O           2.3132   -1.8549   -0.3442 O.3     1  UNL1       -0.4559
      7 C           1.2035   -1.2717   -0.9205 C.ar    1  UNL1        0.1315
      8 C           0.8817   -1.6801   -2.2238 C.ar    1  UNL1        0.0159
      9 C          -0.2093   -1.1439   -2.8706 C.ar    1  UNL1        0.1272
     10 F          -0.5351   -1.5349   -4.1467 F       1  UNL1       -0.2054
     11 C          -1.0147   -0.1987   -2.2681 C.ar    1  UNL1       -0.0213
     12 C          -0.7062    0.2073   -0.9895 C.ar    1  UNL1       -0.0213
     13 C          -1.5900    1.2397   -0.3350 C.3     1  UNL1        0.0461
     14 C          -1.4526    2.5667   -1.0809 C.3     1  UNL1       -0.0424
     15 N          -2.9709    0.8210   -0.4798 N.am    1  UNL1       -0.3036
     16 C          -3.7999    0.7974    0.6560 C.2     1  UNL1        0.2613
     17 O          -3.2830    1.1668    1.7826 O.2     1  UNL1       -0.2686
     18 C          -5.1809    0.3893    0.6232 C.ar    1  UNL1        0.1081
     19 C          -5.8480   -0.3443   -0.3202 C.ar    1  UNL1       -0.0127
     20 C          -5.2716   -0.9755   -1.5649 C.3     1  UNL1       -0.0370
     21 C          -7.1941   -0.4535    0.0528 C.ar    1  UNL1        0.0049
     22 C          -8.2403   -1.0842   -0.5670 C.ar    1  UNL1       -0.0339
     23 C          -9.5056   -1.0328    0.0359 C.ar    1  UNL1        0.0417
     24 CL        -10.8605   -1.8302   -0.7290 Cl      1  UNL1       -0.0835
     25 C          -9.6695   -0.3554    1.2293 C.ar    1  UNL1       -0.0414
     26 C          -8.5782    0.2714    1.8241 C.ar    1  UNL1       -0.0362
     27 C          -7.3091    0.2271    1.2310 C.ar    1  UNL1        0.0497
     28 N          -6.1062    0.7321    1.5734 N.ar    1  UNL1       -0.3391
     29 C          -5.9316    1.5101    2.7685 C.3     1  UNL1        0.0126
     30 C           0.3858   -0.3350   -0.3535 C.ar    1  UNL1       -0.0142
     31 C           4.3978   -1.4349   -1.4380 C.ar    1  UNL1       -0.0191
     32 C           5.6646   -0.8905   -1.4329 C.ar    1  UNL1       -0.0548
     33 C           6.1682   -0.1999   -0.3173 C.ar    1  UNL1       -0.0435
     34 C           7.5284    0.3636   -0.3674 C.3     1  UNL1       -0.0174
     35 C           8.6016   -0.3634    0.3468 C.3     1  UNL1        0.0487
     36 C           8.8157   -1.7514   -0.0994 C.2     1  UNL1        0.3050
     37 O           8.1873   -2.2732   -1.0183 O.2     1  UNL1       -0.2510
     38 O           9.7985   -2.4755    0.5910 O.3     1  UNL1       -0.4806
     39 H           5.2461    2.4029    0.8530 H       1  UNL1        0.0233
     40 H           5.1418    2.6746    2.6076 H       1  UNL1        0.0233
     41 H           6.7561    2.6101    1.8761 H       1  UNL1        0.0233
     42 H           4.9645    0.4629    2.7958 H       1  UNL1        0.0311
     43 H           6.6882    0.2943    2.4819 H       1  UNL1        0.0311
     44 H           3.4556   -0.5142    1.6544 H       1  UNL1        0.0657
     45 H           1.4627   -2.4169   -2.7642 H       1  UNL1        0.0683
     46 H          -1.8787    0.2261   -2.7865 H       1  UNL1        0.0649
     47 H          -1.3612    1.4022    0.7135 H       1  UNL1        0.0546
     48 H          -2.4497    2.9521   -1.2905 H       1  UNL1        0.0251
     49 H          -0.9346    3.3165   -0.4060 H       1  UNL1        0.0251
     50 H          -0.7844    2.4456   -1.9406 H       1  UNL1        0.0251
     51 H          -3.3118    0.5674   -1.4043 H       1  UNL1        0.1496
     52 H          -4.3287   -1.4969   -1.3672 H       1  UNL1        0.0278
     53 H          -5.2162   -0.2766   -2.4048 H       1  UNL1        0.0278
     54 H          -6.0159   -1.7650   -1.9091 H       1  UNL1        0.0278
     55 H          -8.0907   -1.6103   -1.5008 H       1  UNL1        0.0639
     56 H         -10.6343   -0.2888    1.7336 H       1  UNL1        0.0633
     57 H          -8.7047    0.7990    2.7514 H       1  UNL1        0.0639
     58 H          -5.0547    2.1496    2.7935 H       1  UNL1        0.0456
     59 H          -6.8570    2.1566    2.8710 H       1  UNL1        0.0456
     60 H          -6.0066    0.8070    3.6405 H       1  UNL1        0.0456
     61 H           0.6245   -0.0154    0.6499 H       1  UNL1        0.0658
     62 H           4.0479   -1.9582   -2.3131 H       1  UNL1        0.0654
     63 H           6.2972   -0.9691   -2.3064 H       1  UNL1        0.0622
     64 H           7.5177    1.4564   -0.0808 H       1  UNL1        0.0318
     65 H           7.8422    0.4124   -1.4565 H       1  UNL1        0.0318
     66 H           9.6005    0.1569    0.0748 H       1  UNL1        0.0381
     67 H           8.6075   -0.2761    1.4514 H       1  UNL1        0.0381
     68 H          10.1770   -3.3031    0.1284 H       1  UNL1        0.2951
@<TRIPOS>BOND
     1     1     2    1
     2     2     3    1
     3     3     4   ar
     4     4     5   ar
     5     5     6    1
     6     6     7    1
     7     7     8   ar
     8     8     9   ar
     9     9    10    1
    10     9    11   ar
    11    11    12   ar
    12    12    13    1
    13    13    14    1
    14    13    15    1
    15    15    16   am
    16    16    17    2
    17    16    18    1
    18    18    19   ar
    19    19    20    1
    20    19    21   ar
    21    21    22   ar
    22    22    23   ar
    23    23    24    1
    24    23    25   ar
    25    25    26   ar
    26    26    27   ar
    27    27    28   ar
    28    28    29    1
    29    12    30   ar
    30     5    31   ar
    31    31    32   ar
    32    32    33   ar
    33    33    34    1
    34    34    35    1
    35    35    36    1
    36    36    37    2
    37    36    38    1
    38    33     3   ar
    39    30     7   ar
    40    28    18   ar
    41    27    21   ar
    42     1    39    1
    43     1    40    1
    44     1    41    1
    45     2    42    1
    46     2    43    1
    47     4    44    1
    48     8    45    1
    49    11    46    1
    50    13    47    1
    51    14    48    1
    52    14    49    1
    53    14    50    1
    54    15    51    1
    55    20    52    1
    56    20    53    1
    57    20    54    1
    58    22    55    1
    59    25    56    1
    60    26    57    1
    61    29    58    1
    62    29    59    1
    63    29    60    1
    64    30    61    1
    65    31    62    1
    66    32    63    1
    67    34    64    1
    68    34    65    1
    69    35    66    1
    70    35    67    1
    71    38    68    1
