@<TRIPOS>MOLECULE
*****
 62 69 0 0 0
SMALL
GASTEIGER

@<TRIPOS>ATOM
      1 C          -4.2759   -1.6898    0.9169 C.3     1  UNL1        0.1775
      2 O          -4.1969   -1.8375    2.3127 O.3     1  UNL1       -0.3668
      3 N          -5.2407   -0.6238    0.6940 N.2     1  UNL1       -0.2147
      4 C          -4.7002    0.4085    0.1580 C.2     1  UNL1        0.2189
      5 O          -5.5866    1.4195   -0.0585 O.2     1  UNL1       -0.4921
      6 C          -3.3054    0.1836   -0.0565 C.ar    1  UNL1        0.0540
      7 C          -2.3083    0.9449   -0.5832 C.ar    1  UNL1        0.0223
      8 C          -2.3341    2.1995   -1.0734 C.ar    1  UNL1        0.0085
      9 C          -3.1681    3.2497   -1.3077 C.ar    1  UNL1       -0.0520
     10 C          -2.8496    4.4692   -1.8582 C.ar    1  UNL1       -0.0611
     11 C          -1.5116    4.6612   -2.2234 C.ar    1  UNL1       -0.0598
     12 C          -0.6074    3.6402   -2.0159 C.ar    1  UNL1       -0.0375
     13 C          -1.0373    2.4652   -1.4588 C.ar    1  UNL1        0.0524
     14 N          -0.2699    1.4065   -1.2067 N.ar    1  UNL1       -0.3115
     15 C          -1.0467    0.4276   -0.6529 C.ar    1  UNL1        0.0774
     16 C          -0.7341   -0.8470   -0.2086 C.ar    1  UNL1        0.0773
     17 N           0.4772   -1.4880   -0.2146 N.ar    1  UNL1       -0.3070
     18 C           0.1791   -2.6591    0.3298 C.ar    1  UNL1        0.0527
     19 C           0.9474   -3.7459    0.6128 C.ar    1  UNL1       -0.0375
     20 C           0.4615   -4.8969    1.1945 C.ar    1  UNL1       -0.0598
     21 C          -0.8743   -4.9972    1.5264 C.ar    1  UNL1       -0.0611
     22 C          -1.6797   -3.9104    1.2521 C.ar    1  UNL1       -0.0520
     23 C          -1.1497   -2.7801    0.6694 C.ar    1  UNL1        0.0082
     24 C          -1.7462   -1.5959    0.3175 C.ar    1  UNL1        0.0179
     25 C          -3.0242   -1.0854    0.3938 C.ar    1  UNL1        0.0256
     26 C           1.7378   -0.9898   -0.7180 C.3     1  UNL1        0.1741
     27 C           2.5629   -2.0857   -1.4150 C.3     1  UNL1       -0.0136
     28 O           1.4565   -0.0963   -1.7390 O.3     1  UNL1       -0.3282
     29 C           1.1717    1.1873   -1.4221 C.3     1  UNL1        0.1402
     30 C           2.0065    1.7879   -0.3387 C.3     1  UNL1        0.0107
     31 C           3.2057    0.8578   -0.1623 C.3     1  UNL1        0.0423
     32 N           4.1823    1.4286    0.7356 N.3     1  UNL1       -0.3136
     33 C           4.6225    2.6853    0.1622 C.3     1  UNL1       -0.0155
     34 C           2.6014   -0.4187    0.3811 C.3     1  UNL1        0.1214
     35 O           1.7435   -0.0485    1.4184 O.3     1  UNL1       -0.3735
     36 C           2.0989   -0.6855    2.6046 C.3     1  UNL1        0.0371
     37 H          -4.5782   -2.5979    0.3944 H       1  UNL1        0.0905
     38 H          -3.9774   -0.9402    2.6728 H       1  UNL1        0.2124
     39 H          -6.1490    1.7899    0.6941 H       1  UNL1        0.2937
     40 H          -4.1910    3.1420   -1.0438 H       1  UNL1        0.0624
     41 H          -3.5561    5.2525   -2.0147 H       1  UNL1        0.0618
     42 H          -1.2242    5.6068   -2.6590 H       1  UNL1        0.0618
     43 H           0.4017    3.8383   -2.3123 H       1  UNL1        0.0638
     44 H           1.9818   -3.7347    0.3947 H       1  UNL1        0.0638
     45 H           1.1185   -5.7491    1.4042 H       1  UNL1        0.0618
     46 H          -1.2456   -5.9048    1.9823 H       1  UNL1        0.0618
     47 H          -2.7093   -3.9746    1.5005 H       1  UNL1        0.0624
     48 H           1.9428   -2.9063   -1.7961 H       1  UNL1        0.0277
     49 H           3.0460   -1.6683   -2.3607 H       1  UNL1        0.0277
     50 H           3.4476   -2.3846   -0.8178 H       1  UNL1        0.0277
     51 H           1.4117    1.7916   -2.3420 H       1  UNL1        0.0839
     52 H           1.4249    1.7453    0.6034 H       1  UNL1        0.0325
     53 H           2.3032    2.8270   -0.4810 H       1  UNL1        0.0325
     54 H           3.6550    0.6528   -1.1385 H       1  UNL1        0.0489
     55 H           4.9593    0.7395    0.8338 H       1  UNL1        0.1220
     56 H           4.2994    2.8160   -0.9017 H       1  UNL1        0.0388
     57 H           5.7445    2.7277    0.1012 H       1  UNL1        0.0388
     58 H           4.2334    3.5708    0.7206 H       1  UNL1        0.0388
     59 H           3.3758   -1.1347    0.7206 H       1  UNL1        0.0660
     60 H           2.0531   -1.7726    2.5096 H       1  UNL1        0.0524
     61 H           3.0760   -0.3122    3.0117 H       1  UNL1        0.0524
     62 H           1.3480   -0.3609    3.3576 H       1  UNL1        0.0524
@<TRIPOS>BOND
     1     1     2    1
     2     1     3    1
     3     3     4    2
     4     4     5    1
     5     4     6    1
     6     6     7   ar
     7     7     8   ar
     8     8     9   ar
     9     9    10   ar
    10    10    11   ar
    11    11    12   ar
    12    12    13   ar
    13    13    14   ar
    14    14    15   ar
    15    15    16   ar
    16    16    17   ar
    17    17    18   ar
    18    18    19   ar
    19    19    20   ar
    20    20    21   ar
    21    21    22   ar
    22    22    23   ar
    23    23    24   ar
    24    24    25   ar
    25    17    26    1
    26    26    27    1
    27    26    28    1
    28    28    29    1
    29    29    30    1
    30    30    31    1
    31    31    32    1
    32    32    33    1
    33    31    34    1
    34    34    35    1
    35    35    36    1
    36    25     1    1
    37    34    26    1
    38    25     6   ar
    39    15     7   ar
    40    24    16   ar
    41    13     8   ar
    42    29    14    1
    43    23    18   ar
    44     1    37    1
    45     2    38    1
    46     5    39    1
    47     9    40    1
    48    10    41    1
    49    11    42    1
    50    12    43    1
    51    19    44    1
    52    20    45    1
    53    21    46    1
    54    22    47    1
    55    27    48    1
    56    27    49    1
    57    27    50    1
    58    29    51    1
    59    30    52    1
    60    30    53    1
    61    31    54    1
    62    32    55    1
    63    33    56    1
    64    33    57    1
    65    33    58    1
    66    34    59    1
    67    36    60    1
    68    36    61    1
    69    36    62    1
