
     RDKit          3D

 51 55  0  0  0  0  0  0  0  0999 V2000
   -3.9608    1.4322    1.6861 C   0  0  0  0  0  0  0  0  0  0  0  0
   -2.7531    0.6940    1.2998 N   0  0  0  0  0  0  0  0  0  0  0  0
   -1.6000    0.8478    1.9834 C   0  0  0  0  0  0  0  0  0  0  0  0
   -1.6388    1.6608    2.9633 O   0  0  0  0  0  0  0  0  0  0  0  0
   -0.4299    0.1892    1.6783 C   0  0  0  0  0  0  0  0  0  0  0  0
   -0.4070   -0.6812    0.6219 C   0  0  0  0  0  0  0  0  0  0  0  0
    0.7185   -1.4248    0.2153 N   0  0  0  0  0  0  0  0  0  0  0  0
    1.9591   -1.3754    0.9090 C   0  0  0  0  0  0  0  0  0  0  0  0
    3.0936   -0.8941    0.2629 C   0  0  0  0  0  0  0  0  0  0  0  0
    4.2983   -0.8505    0.9030 C   0  0  0  0  0  0  0  0  0  0  0  0
    5.5201   -0.3450    0.2433 C   0  0  0  0  0  0  0  0  0  0  0  0
    6.5734   -0.3379    0.8908 O   0  0  0  0  0  0  0  0  0  0  0  0
    5.5634    0.1311   -1.0795 N   0  0  0  0  0  0  0  0  0  0  0  0
    6.7552    0.6248   -1.7250 C   0  0  0  0  0  0  0  0  0  0  0  0
    7.0139    0.2165   -3.1417 C   0  0  0  0  0  0  0  0  0  0  0  0
    6.7306    1.6786   -2.7409 C   0  0  0  0  0  0  0  0  0  0  0  0
    4.3741   -1.2927    2.2062 C   0  0  0  0  0  0  0  0  0  0  0  0
    3.2581   -1.7688    2.8483 C   0  0  0  0  0  0  0  0  0  0  0  0
    2.0319   -1.8193    2.2129 C   0  0  0  0  0  0  0  0  0  0  0  0
    0.6434   -2.4611    3.0799 Cl  0  0  0  0  0  0  0  0  0  0  0  0
   -1.5974   -0.8345   -0.0774 C   0  0  0  0  0  0  0  0  0  0  0  0
   -1.9228   -1.6104   -1.1685 C   0  0  0  0  0  0  0  0  0  0  0  0
   -3.2128   -1.3885   -1.4506 N   0  0  0  0  0  0  0  0  0  0  0  0
   -3.7231   -0.5049   -0.5867 N   0  0  0  0  0  0  0  0  0  0  0  0
   -5.0715   -0.0868   -0.6533 C   0  0  0  0  0  0  0  0  0  0  0  0
   -6.0620   -0.9581   -0.2448 C   0  0  0  0  0  0  0  0  0  0  0  0
   -7.4032   -0.6490   -0.2723 C   0  0  0  0  0  0  0  0  0  0  0  0
   -7.7619    0.5895   -0.7304 C   0  0  0  0  0  0  0  0  0  0  0  0
   -9.0692    0.9674   -0.7871 F   0  0  0  0  0  0  0  0  0  0  0  0
   -6.7962    1.4905   -1.1488 C   0  0  0  0  0  0  0  0  0  0  0  0
   -5.4658    1.1539   -1.1098 C   0  0  0  0  0  0  0  0  0  0  0  0
   -2.7464   -0.1558    0.2609 C   0  0  0  0  0  0  0  0  0  0  0  0
   -4.8580    0.8072    1.7022 H   0  0  0  0  0  0  0  0  0  0  0  0
   -3.8233    1.7762    2.7537 H   0  0  0  0  0  0  0  0  0  0  0  0
   -4.0688    2.3716    1.1114 H   0  0  0  0  0  0  0  0  0  0  0  0
    0.4670    0.3577    2.2537 H   0  0  0  0  0  0  0  0  0  0  0  0
    0.6770   -2.0562   -0.6359 H   0  0  0  0  0  0  0  0  0  0  0  0
    3.0118   -0.5506   -0.7641 H   0  0  0  0  0  0  0  0  0  0  0  0
    4.6869    0.1332   -1.6411 H   0  0  0  0  0  0  0  0  0  0  0  0
    7.6513    0.5937   -1.0695 H   0  0  0  0  0  0  0  0  0  0  0  0
    6.2094   -0.3458   -3.6392 H   0  0  0  0  0  0  0  0  0  0  0  0
    8.0216   -0.0320   -3.4954 H   0  0  0  0  0  0  0  0  0  0  0  0
    5.8403    2.0767   -3.2174 H   0  0  0  0  0  0  0  0  0  0  0  0
    7.6155    2.3764   -2.8030 H   0  0  0  0  0  0  0  0  0  0  0  0
    5.3250   -1.2624    2.7240 H   0  0  0  0  0  0  0  0  0  0  0  0
    3.2930   -2.1267    3.8862 H   0  0  0  0  0  0  0  0  0  0  0  0
   -1.2907   -2.2887   -1.7284 H   0  0  0  0  0  0  0  0  0  0  0  0
   -5.7729   -1.9217    0.1110 H   0  0  0  0  0  0  0  0  0  0  0  0
   -8.1345   -1.3705    0.0598 H   0  0  0  0  0  0  0  0  0  0  0  0
   -7.0556    2.4780   -1.5159 H   0  0  0  0  0  0  0  0  0  0  0  0
   -4.7068    1.8667   -1.4405 H   0  0  0  0  0  0  0  0  0  0  0  0
  1  2  1  0
  2  3  1  0
  3  4  2  0
  3  5  1  0
  5  6  2  0
  6  7  1  0
  7  8  1  0
  8  9  2  0
  9 10  1  0
 10 11  1  0
 11 12  2  0
 11 13  1  0
 13 14  1  0
 14 15  1  0
 15 16  1  0
 10 17  2  0
 17 18  1  0
 18 19  2  0
 19 20  1  0
  6 21  1  0
 21 22  1  0
 22 23  2  0
 23 24  1  0
 24 25  1  0
 25 26  2  0
 26 27  1  0
 27 28  2  0
 28 29  1  0
 28 30  1  0
 30 31  2  0
 24 32  1  0
 32  2  1  0
 19  8  1  0
 32 21  2  0
 16 14  1  0
 31 25  1  0
  1 33  1  0
  1 34  1  0
  1 35  1  0
  5 36  1  0
  7 37  1  0
  9 38  1  0
 13 39  1  0
 14 40  1  0
 15 41  1  0
 15 42  1  0
 16 43  1  0
 16 44  1  0
 17 45  1  0
 18 46  1  0
 22 47  1  0
 26 48  1  0
 27 49  1  0
 30 50  1  0
 31 51  1  0
M  END
$$$$
