@<TRIPOS>MOLECULE
*****
 51 55 0 0 0
SMALL
GASTEIGER

@<TRIPOS>ATOM
      1 C          -3.9608    1.4322    1.6861 C.3     1  UNL1        0.0166
      2 N          -2.7531    0.6940    1.2998 N.ar    1  UNL1       -0.2957
      3 C          -1.6000    0.8478    1.9834 C.ar    1  UNL1        0.2544
      4 O          -1.6388    1.6608    2.9633 O.2     1  UNL1       -0.2676
      5 C          -0.4299    0.1892    1.6783 C.ar    1  UNL1        0.0249
      6 C          -0.4070   -0.6812    0.6219 C.ar    1  UNL1        0.0488
      7 N           0.7185   -1.4248    0.2153 N.pl3   1  UNL1       -0.3126
      8 C           1.9591   -1.3754    0.9090 C.ar    1  UNL1        0.0506
      9 C           3.0936   -0.8941    0.2629 C.ar    1  UNL1       -0.0270
     10 C           4.2983   -0.8505    0.9030 C.ar    1  UNL1        0.0385
     11 C           5.5201   -0.3450    0.2433 C.2     1  UNL1        0.2443
     12 O           6.5734   -0.3379    0.8908 O.2     1  UNL1       -0.2702
     13 N           5.5634    0.1311   -1.0795 N.am    1  UNL1       -0.3085
     14 C           6.7552    0.6248   -1.7250 C.3     1  UNL1        0.0235
     15 C           7.0139    0.2165   -3.1417 C.3     1  UNL1       -0.0328
     16 C           6.7306    1.6786   -2.7409 C.3     1  UNL1       -0.0328
     17 C           4.3741   -1.2927    2.2062 C.ar    1  UNL1       -0.0481
     18 C           3.2581   -1.7688    2.8483 C.ar    1  UNL1       -0.0409
     19 C           2.0319   -1.8193    2.2129 C.ar    1  UNL1        0.0621
     20 CL          0.6434   -2.4611    3.0799 Cl      1  UNL1       -0.0816
     21 C          -1.5974   -0.8345   -0.0774 C.ar    1  UNL1        0.0586
     22 C          -1.9228   -1.6104   -1.1685 C.ar    1  UNL1        0.0608
     23 N          -3.2128   -1.3885   -1.4506 N.ar    1  UNL1       -0.1722
     24 N          -3.7231   -0.5049   -0.5867 N.ar    1  UNL1       -0.2156
     25 C          -5.0715   -0.0868   -0.6533 C.ar    1  UNL1        0.0678
     26 C          -6.0620   -0.9581   -0.2448 C.ar    1  UNL1       -0.0335
     27 C          -7.4032   -0.6490   -0.2723 C.ar    1  UNL1       -0.0244
     28 C          -7.7619    0.5895   -0.7304 C.ar    1  UNL1        0.1235
     29 F          -9.0692    0.9674   -0.7871 F       1  UNL1       -0.2055
     30 C          -6.7962    1.4905   -1.1488 C.ar    1  UNL1       -0.0244
     31 C          -5.4658    1.1539   -1.1098 C.ar    1  UNL1       -0.0335
     32 C          -2.7464   -0.1558    0.2609 C.ar    1  UNL1        0.1485
     33 H          -4.8580    0.8072    1.7022 H       1  UNL1        0.0457
     34 H          -3.8233    1.7762    2.7537 H       1  UNL1        0.0457
     35 H          -4.0688    2.3716    1.1114 H       1  UNL1        0.0457
     36 H           0.4670    0.3577    2.2537 H       1  UNL1        0.0691
     37 H           0.6770   -2.0562   -0.6359 H       1  UNL1        0.1522
     38 H           3.0118   -0.5506   -0.7641 H       1  UNL1        0.0644
     39 H           4.6869    0.1332   -1.6411 H       1  UNL1        0.1493
     40 H           7.6513    0.5937   -1.0695 H       1  UNL1        0.0498
     41 H           6.2094   -0.3458   -3.6392 H       1  UNL1        0.0284
     42 H           8.0216   -0.0320   -3.4954 H       1  UNL1        0.0284
     43 H           5.8403    2.0767   -3.2174 H       1  UNL1        0.0284
     44 H           7.6155    2.3764   -2.8030 H       1  UNL1        0.0284
     45 H           5.3250   -1.2624    2.7240 H       1  UNL1        0.0625
     46 H           3.2930   -2.1267    3.8862 H       1  UNL1        0.0633
     47 H          -1.2907   -2.2887   -1.7284 H       1  UNL1        0.0855
     48 H          -5.7729   -1.9217    0.1110 H       1  UNL1        0.0640
     49 H          -8.1345   -1.3705    0.0598 H       1  UNL1        0.0647
     50 H          -7.0556    2.4780   -1.5159 H       1  UNL1        0.0647
     51 H          -4.7068    1.8667   -1.4405 H       1  UNL1        0.0640
@<TRIPOS>BOND
     1     1     2    1
     2     2     3   ar
     3     3     4    2
     4     3     5   ar
     5     5     6   ar
     6     6     7    1
     7     7     8    1
     8     8     9   ar
     9     9    10   ar
    10    10    11    1
    11    11    12    2
    12    11    13   am
    13    13    14    1
    14    14    15    1
    15    15    16    1
    16    10    17   ar
    17    17    18   ar
    18    18    19   ar
    19    19    20    1
    20     6    21   ar
    21    21    22   ar
    22    22    23   ar
    23    23    24   ar
    24    24    25    1
    25    25    26   ar
    26    26    27   ar
    27    27    28   ar
    28    28    29    1
    29    28    30   ar
    30    30    31   ar
    31    24    32   ar
    32    32     2   ar
    33    19     8   ar
    34    32    21   ar
    35    16    14    1
    36    31    25   ar
    37     1    33    1
    38     1    34    1
    39     1    35    1
    40     5    36    1
    41     7    37    1
    42     9    38    1
    43    13    39    1
    44    14    40    1
    45    15    41    1
    46    15    42    1
    47    16    43    1
    48    16    44    1
    49    17    45    1
    50    18    46    1
    51    22    47    1
    52    26    48    1
    53    27    49    1
    54    30    50    1
    55    31    51    1
