@<TRIPOS>MOLECULE
*****
 71 73 0 0 0
SMALL
GASTEIGER

@<TRIPOS>ATOM
      1 C          -2.6173    4.5895    1.0638 C.3     1  UNL1       -0.0652
      2 C          -2.6829    3.0595    1.0748 C.3     1  UNL1       -0.0544
      3 C          -1.4280    2.5560    1.6967 C.3     1  UNL1       -0.0357
      4 C          -1.3112    1.0747    1.8554 C.3     1  UNL1        0.0350
      5 N          -1.3829    0.2703    0.6642 N.pl3   1  UNL1       -0.2027
      6 C          -2.3408   -0.7800    0.6690 C.ar    1  UNL1        0.0547
      7 C          -1.9479   -1.9289    1.3244 C.ar    1  UNL1       -0.0388
      8 C          -2.7956   -3.0064    1.4275 C.ar    1  UNL1       -0.0594
      9 C          -4.0545   -2.9666    0.8815 C.ar    1  UNL1       -0.0537
     10 C          -4.4732   -1.8221    0.2169 C.ar    1  UNL1       -0.0132
     11 C          -5.8130   -1.7975   -0.3327 C.ar    1  UNL1       -0.0175
     12 C          -6.6728   -0.7810   -0.0003 C.ar    1  UNL1       -0.0526
     13 C          -7.9651   -0.7509   -0.5409 C.ar    1  UNL1       -0.0428
     14 C          -8.4124   -1.7214   -1.4087 C.ar    1  UNL1        0.0410
     15 CL        -10.0451   -1.6705   -2.0827 Cl      1  UNL1       -0.0835
     16 C          -7.5478   -2.7418   -1.7411 C.ar    1  UNL1       -0.0428
     17 C          -6.2768   -2.7689   -1.2080 C.ar    1  UNL1       -0.0526
     18 C          -3.5837   -0.7355    0.1259 C.ar    1  UNL1       -0.0202
     19 C          -4.0842    0.4154   -0.6436 C.3     1  UNL1       -0.0373
     20 S          -0.2392    0.4934   -0.5758 S.O2    1  UNL1        0.0750
     21 O          -0.6068   -0.2927   -1.8252 O.2     1  UNL1       -0.1498
     22 O          -0.3266    1.9573   -0.9950 O.2     1  UNL1       -0.1498
     23 C           1.4049    0.1824   -0.2309 C.ar    1  UNL1        0.1121
     24 C           1.8439   -0.3779    0.9442 C.ar    1  UNL1       -0.0313
     25 C           3.1636   -0.6073    1.1275 C.ar    1  UNL1       -0.0178
     26 C           4.1338   -0.2909    0.1437 C.ar    1  UNL1        0.1250
     27 O           5.4109   -0.5546    0.4165 O.3     1  UNL1       -0.4774
     28 C           6.6677   -0.5180   -0.0115 C.3     1  UNL1        0.1956
     29 C           7.5258    0.2181    1.0409 C.3     1  UNL1       -0.0080
     30 C           8.9444    0.2686    0.5753 C.3     1  UNL1       -0.0614
     31 C           7.2001   -1.9459   -0.0297 C.2     1  UNL1        0.3459
     32 O           8.3926   -2.0753   -0.4174 O.2     1  UNL1       -0.2468
     33 O           6.4006   -2.9961    0.3586 O.3     1  UNL1       -0.4781
     34 C           3.6859    0.2661   -1.0236 C.ar    1  UNL1       -0.0040
     35 C           4.6806    0.6188   -2.0676 C.3     1  UNL1       -0.0359
     36 C           2.3203    0.5109   -1.2308 C.ar    1  UNL1       -0.0175
     37 C           1.9633    1.1020   -2.5359 C.3     1  UNL1       -0.0375
     38 H          -3.5863    4.9569    0.6655 H       1  UNL1        0.0230
     39 H          -2.5202    4.9273    2.0956 H       1  UNL1        0.0230
     40 H          -1.8338    4.9526    0.3792 H       1  UNL1        0.0230
     41 H          -2.7441    2.7737   -0.0011 H       1  UNL1        0.0263
     42 H          -3.5765    2.7440    1.6023 H       1  UNL1        0.0263
     43 H          -0.5793    2.9757    1.0776 H       1  UNL1        0.0281
     44 H          -1.2831    3.0768    2.6831 H       1  UNL1        0.0281
     45 H          -0.3482    0.9193    2.4296 H       1  UNL1        0.0482
     46 H          -2.1147    0.7742    2.5952 H       1  UNL1        0.0482
     47 H          -0.9409   -2.0028    1.7794 H       1  UNL1        0.0637
     48 H          -2.4693   -3.9156    1.9523 H       1  UNL1        0.0618
     49 H          -4.7514   -3.8068    0.9473 H       1  UNL1        0.0624
     50 H          -6.4192    0.0304    0.6853 H       1  UNL1        0.0624
     51 H          -8.6562    0.0512   -0.2845 H       1  UNL1        0.0632
     52 H          -7.9105   -3.5004   -2.4248 H       1  UNL1        0.0632
     53 H          -5.5932   -3.5591   -1.4593 H       1  UNL1        0.0624
     54 H          -4.8400    0.0432   -1.3773 H       1  UNL1        0.0278
     55 H          -3.3004    0.8782   -1.2814 H       1  UNL1        0.0278
     56 H          -4.5466    1.2150   -0.0703 H       1  UNL1        0.0278
     57 H           1.0841   -0.6378    1.6857 H       1  UNL1        0.0638
     58 H           3.4953   -1.0419    2.0430 H       1  UNL1        0.0655
     59 H           6.9314   -0.1478   -1.0174 H       1  UNL1        0.0851
     60 H           7.3801   -0.3506    1.9763 H       1  UNL1        0.0304
     61 H           7.0641    1.2168    1.1885 H       1  UNL1        0.0304
     62 H           8.9621    0.2371   -0.5296 H       1  UNL1        0.0231
     63 H           9.5122   -0.5869    1.0345 H       1  UNL1        0.0231
     64 H           9.4601    1.1988    0.9246 H       1  UNL1        0.0231
     65 H           6.5996   -3.9063   -0.0751 H       1  UNL1        0.2952
     66 H           5.1715   -0.2409   -2.5367 H       1  UNL1        0.0279
     67 H           4.1619    1.1400   -2.9365 H       1  UNL1        0.0279
     68 H           5.3801    1.4195   -1.7101 H       1  UNL1        0.0279
     69 H           2.4248    2.1245   -2.6603 H       1  UNL1        0.0278
     70 H           0.9008    1.1862   -2.7490 H       1  UNL1        0.0278
     71 H           2.3554    0.4028   -3.3372 H       1  UNL1        0.0278
@<TRIPOS>BOND
     1     1     2    1
     2     2     3    1
     3     3     4    1
     4     4     5    1
     5     5     6    1
     6     6     7   ar
     7     7     8   ar
     8     8     9   ar
     9     9    10   ar
    10    10    11    1
    11    11    12   ar
    12    12    13   ar
    13    13    14   ar
    14    14    15    1
    15    14    16   ar
    16    16    17   ar
    17    10    18   ar
    18    18    19    1
    19     5    20    1
    20    20    21    2
    21    20    22    2
    22    20    23    1
    23    23    24   ar
    24    24    25   ar
    25    25    26   ar
    26    26    27    1
    27    27    28    1
    28    28    29    1
    29    29    30    1
    30    28    31    1
    31    31    32    2
    32    31    33    1
    33    26    34   ar
    34    34    35    1
    35    34    36   ar
    36    36    37    1
    37    18     6   ar
    38    36    23   ar
    39    17    11   ar
    40     1    38    1
    41     1    39    1
    42     1    40    1
    43     2    41    1
    44     2    42    1
    45     3    43    1
    46     3    44    1
    47     4    45    1
    48     4    46    1
    49     7    47    1
    50     8    48    1
    51     9    49    1
    52    12    50    1
    53    13    51    1
    54    16    52    1
    55    17    53    1
    56    19    54    1
    57    19    55    1
    58    19    56    1
    59    24    57    1
    60    25    58    1
    61    28    59    1
    62    29    60    1
    63    29    61    1
    64    30    62    1
    65    30    63    1
    66    30    64    1
    67    33    65    1
    68    35    66    1
    69    35    67    1
    70    35    68    1
    71    37    69    1
    72    37    70    1
    73    37    71    1
