
     RDKit          3D

 71 73  0  0  0  0  0  0  0  0999 V2000
   -2.6173    4.5895    1.0638 C   0  0  0  0  0  0  0  0  0  0  0  0
   -2.6829    3.0595    1.0748 C   0  0  0  0  0  0  0  0  0  0  0  0
   -1.4280    2.5560    1.6967 C   0  0  0  0  0  0  0  0  0  0  0  0
   -1.3112    1.0747    1.8554 C   0  0  0  0  0  0  0  0  0  0  0  0
   -1.3829    0.2703    0.6642 N   0  0  0  0  0  0  0  0  0  0  0  0
   -2.3408   -0.7800    0.6690 C   0  0  0  0  0  0  0  0  0  0  0  0
   -1.9479   -1.9289    1.3244 C   0  0  0  0  0  0  0  0  0  0  0  0
   -2.7956   -3.0064    1.4275 C   0  0  0  0  0  0  0  0  0  0  0  0
   -4.0545   -2.9666    0.8815 C   0  0  0  0  0  0  0  0  0  0  0  0
   -4.4732   -1.8221    0.2169 C   0  0  0  0  0  0  0  0  0  0  0  0
   -5.8130   -1.7975   -0.3327 C   0  0  0  0  0  0  0  0  0  0  0  0
   -6.6728   -0.7810   -0.0003 C   0  0  0  0  0  0  0  0  0  0  0  0
   -7.9651   -0.7509   -0.5409 C   0  0  0  0  0  0  0  0  0  0  0  0
   -8.4124   -1.7214   -1.4087 C   0  0  0  0  0  0  0  0  0  0  0  0
  -10.0451   -1.6705   -2.0827 Cl  0  0  0  0  0  0  0  0  0  0  0  0
   -7.5478   -2.7418   -1.7411 C   0  0  0  0  0  0  0  0  0  0  0  0
   -6.2768   -2.7689   -1.2080 C   0  0  0  0  0  0  0  0  0  0  0  0
   -3.5837   -0.7355    0.1259 C   0  0  0  0  0  0  0  0  0  0  0  0
   -4.0842    0.4154   -0.6436 C   0  0  0  0  0  0  0  0  0  0  0  0
   -0.2392    0.4934   -0.5758 S   0  0  0  0  0  6  0  0  0  0  0  0
   -0.6068   -0.2927   -1.8252 O   0  0  0  0  0  0  0  0  0  0  0  0
   -0.3266    1.9573   -0.9950 O   0  0  0  0  0  0  0  0  0  0  0  0
    1.4049    0.1824   -0.2309 C   0  0  0  0  0  0  0  0  0  0  0  0
    1.8439   -0.3779    0.9442 C   0  0  0  0  0  0  0  0  0  0  0  0
    3.1636   -0.6073    1.1275 C   0  0  0  0  0  0  0  0  0  0  0  0
    4.1338   -0.2909    0.1437 C   0  0  0  0  0  0  0  0  0  0  0  0
    5.4109   -0.5546    0.4165 O   0  0  0  0  0  0  0  0  0  0  0  0
    6.6677   -0.5180   -0.0115 C   0  0  0  0  0  0  0  0  0  0  0  0
    7.5258    0.2181    1.0409 C   0  0  0  0  0  0  0  0  0  0  0  0
    8.9444    0.2686    0.5753 C   0  0  0  0  0  0  0  0  0  0  0  0
    7.2001   -1.9459   -0.0297 C   0  0  0  0  0  0  0  0  0  0  0  0
    8.3926   -2.0753   -0.4174 O   0  0  0  0  0  0  0  0  0  0  0  0
    6.4006   -2.9961    0.3586 O   0  0  0  0  0  0  0  0  0  0  0  0
    3.6859    0.2661   -1.0236 C   0  0  0  0  0  0  0  0  0  0  0  0
    4.6806    0.6188   -2.0676 C   0  0  0  0  0  0  0  0  0  0  0  0
    2.3203    0.5109   -1.2308 C   0  0  0  0  0  0  0  0  0  0  0  0
    1.9633    1.1020   -2.5359 C   0  0  0  0  0  0  0  0  0  0  0  0
   -3.5863    4.9569    0.6655 H   0  0  0  0  0  0  0  0  0  0  0  0
   -2.5202    4.9273    2.0956 H   0  0  0  0  0  0  0  0  0  0  0  0
   -1.8338    4.9526    0.3792 H   0  0  0  0  0  0  0  0  0  0  0  0
   -2.7441    2.7737   -0.0011 H   0  0  0  0  0  0  0  0  0  0  0  0
   -3.5765    2.7440    1.6023 H   0  0  0  0  0  0  0  0  0  0  0  0
   -0.5793    2.9757    1.0776 H   0  0  0  0  0  0  0  0  0  0  0  0
   -1.2831    3.0768    2.6831 H   0  0  0  0  0  0  0  0  0  0  0  0
   -0.3482    0.9193    2.4296 H   0  0  0  0  0  0  0  0  0  0  0  0
   -2.1147    0.7742    2.5952 H   0  0  0  0  0  0  0  0  0  0  0  0
   -0.9409   -2.0028    1.7794 H   0  0  0  0  0  0  0  0  0  0  0  0
   -2.4693   -3.9156    1.9523 H   0  0  0  0  0  0  0  0  0  0  0  0
   -4.7514   -3.8068    0.9473 H   0  0  0  0  0  0  0  0  0  0  0  0
   -6.4192    0.0304    0.6853 H   0  0  0  0  0  0  0  0  0  0  0  0
   -8.6562    0.0512   -0.2845 H   0  0  0  0  0  0  0  0  0  0  0  0
   -7.9105   -3.5004   -2.4248 H   0  0  0  0  0  0  0  0  0  0  0  0
   -5.5932   -3.5591   -1.4593 H   0  0  0  0  0  0  0  0  0  0  0  0
   -4.8400    0.0432   -1.3773 H   0  0  0  0  0  0  0  0  0  0  0  0
   -3.3004    0.8782   -1.2814 H   0  0  0  0  0  0  0  0  0  0  0  0
   -4.5466    1.2150   -0.0703 H   0  0  0  0  0  0  0  0  0  0  0  0
    1.0841   -0.6378    1.6857 H   0  0  0  0  0  0  0  0  0  0  0  0
    3.4953   -1.0419    2.0430 H   0  0  0  0  0  0  0  0  0  0  0  0
    6.9314   -0.1478   -1.0174 H   0  0  0  0  0  0  0  0  0  0  0  0
    7.3801   -0.3506    1.9763 H   0  0  0  0  0  0  0  0  0  0  0  0
    7.0641    1.2168    1.1885 H   0  0  0  0  0  0  0  0  0  0  0  0
    8.9621    0.2371   -0.5296 H   0  0  0  0  0  0  0  0  0  0  0  0
    9.5122   -0.5869    1.0345 H   0  0  0  0  0  0  0  0  0  0  0  0
    9.4601    1.1988    0.9246 H   0  0  0  0  0  0  0  0  0  0  0  0
    6.5996   -3.9063   -0.0751 H   0  0  0  0  0  0  0  0  0  0  0  0
    5.1715   -0.2409   -2.5367 H   0  0  0  0  0  0  0  0  0  0  0  0
    4.1619    1.1400   -2.9365 H   0  0  0  0  0  0  0  0  0  0  0  0
    5.3801    1.4195   -1.7101 H   0  0  0  0  0  0  0  0  0  0  0  0
    2.4248    2.1245   -2.6603 H   0  0  0  0  0  0  0  0  0  0  0  0
    0.9008    1.1862   -2.7490 H   0  0  0  0  0  0  0  0  0  0  0  0
    2.3554    0.4028   -3.3372 H   0  0  0  0  0  0  0  0  0  0  0  0
  1  2  1  0
  2  3  1  0
  3  4  1  0
  4  5  1  0
  5  6  1  0
  6  7  2  0
  7  8  1  0
  8  9  2  0
  9 10  1  0
 10 11  1  0
 11 12  2  0
 12 13  1  0
 13 14  2  0
 14 15  1  0
 14 16  1  0
 16 17  2  0
 10 18  2  0
 18 19  1  0
  5 20  1  0
 20 21  2  0
 20 22  2  0
 20 23  1  0
 23 24  2  0
 24 25  1  0
 25 26  2  0
 26 27  1  0
 27 28  1  0
 28 29  1  0
 29 30  1  0
 28 31  1  0
 31 32  2  0
 31 33  1  0
 26 34  1  0
 34 35  1  0
 34 36  2  0
 36 37  1  0
 18  6  1  0
 36 23  1  0
 17 11  1  0
  1 38  1  0
  1 39  1  0
  1 40  1  0
  2 41  1  0
  2 42  1  0
  3 43  1  0
  3 44  1  0
  4 45  1  0
  4 46  1  0
  7 47  1  0
  8 48  1  0
  9 49  1  0
 12 50  1  0
 13 51  1  0
 16 52  1  0
 17 53  1  0
 19 54  1  0
 19 55  1  0
 19 56  1  0
 24 57  1  0
 25 58  1  0
 28 59  1  0
 29 60  1  0
 29 61  1  0
 30 62  1  0
 30 63  1  0
 30 64  1  0
 33 65  1  0
 35 66  1  0
 35 67  1  0
 35 68  1  0
 37 69  1  0
 37 70  1  0
 37 71  1  0
M  END
$$$$
