@<TRIPOS>MOLECULE
*****
 38 40 0 0 0
SMALL
GASTEIGER

@<TRIPOS>ATOM
      1 C           6.3409   -0.4255   -1.4333 C.3     1  UNL1        0.0820
      2 O           5.0214   -0.1857   -0.9736 O.3     1  UNL1       -0.4644
      3 C           4.6523   -0.3856    0.3489 C.2     1  UNL1        0.3390
      4 O           5.5244   -0.7911    1.1437 O.2     1  UNL1       -0.2450
      5 C           3.2657   -0.1206    0.7810 C.ar    1  UNL1        0.0607
      6 C           2.8815   -0.3045    2.0917 C.ar    1  UNL1       -0.0477
      7 C           1.5683   -0.0567    2.5015 C.ar    1  UNL1       -0.0592
      8 C           0.6388    0.3829    1.5633 C.ar    1  UNL1       -0.0405
      9 C           1.0010    0.5762    0.2353 C.ar    1  UNL1        0.0321
     10 N           0.0278    1.0219   -0.7011 N.pl3   1  UNL1       -0.3140
     11 C          -1.3536    1.0230   -0.4212 C.ar    1  UNL1        0.0395
     12 C          -1.9854    2.2399   -0.4055 C.ar    1  UNL1       -0.0335
     13 C          -3.3276    2.2741   -0.1376 C.ar    1  UNL1        0.0180
     14 C          -4.0944    1.1360    0.1212 C.ar    1  UNL1        0.2809
     15 N          -5.4698    1.2440    0.3938 N.pl3   1  UNL1        0.0802
     16 O          -6.3623    0.4654    0.0970 O.2     1  UNL1        0.0415
     17 O          -5.8689    2.3991    1.0689 O.co2   1  UNL1       -0.5760
     18 C          -3.4107   -0.0602    0.0926 C.ar    1  UNL1        0.0610
     19 C          -4.0367   -1.2593    0.3265 C.ar    1  UNL1       -0.0475
     20 C          -3.3653   -2.4820    0.2983 C.ar    1  UNL1       -0.0610
     21 C          -2.0201   -2.5244    0.0280 C.ar    1  UNL1       -0.0611
     22 C          -1.3669   -1.3239   -0.2103 C.ar    1  UNL1       -0.0520
     23 C          -2.0357   -0.1305   -0.1788 C.ar    1  UNL1        0.0097
     24 C           2.3055    0.3153   -0.1027 C.ar    1  UNL1       -0.0266
     25 H           6.4651   -0.1294   -2.4894 H       1  UNL1        0.0661
     26 H           6.6329   -1.4866   -1.3556 H       1  UNL1        0.0661
     27 H           7.0376    0.1593   -0.8213 H       1  UNL1        0.0661
     28 H           3.6082   -0.6447    2.8072 H       1  UNL1        0.0626
     29 H           1.2603   -0.1980    3.5283 H       1  UNL1        0.0618
     30 H          -0.3981    0.5908    1.8283 H       1  UNL1        0.0636
     31 H           0.3055    1.3763   -1.6584 H       1  UNL1        0.1522
     32 H          -1.4236    3.1381   -0.6014 H       1  UNL1        0.0638
     33 H          -3.8337    3.2271   -0.1228 H       1  UNL1        0.0686
     34 H          -5.0859   -1.2576    0.5479 H       1  UNL1        0.0626
     35 H          -3.9228   -3.4089    0.4939 H       1  UNL1        0.0618
     36 H          -1.4814   -3.4598    0.0010 H       1  UNL1        0.0618
     37 H          -0.3078   -1.3940   -0.4318 H       1  UNL1        0.0624
     38 H           2.6135    0.4595   -1.1333 H       1  UNL1        0.0644
@<TRIPOS>UNITY_ATOM_ATTR
15 1
charge 1
17 1
charge -1
@<TRIPOS>BOND
     1     1     2    1
     2     2     3    1
     3     3     4    2
     4     3     5    1
     5     5     6   ar
     6     6     7   ar
     7     7     8   ar
     8     8     9   ar
     9     9    10    1
    10    10    11    1
    11    11    12   ar
    12    12    13   ar
    13    13    14   ar
    14    14    15    1
    15    15    16    2
    16    15    17    1
    17    14    18   ar
    18    18    19   ar
    19    19    20   ar
    20    20    21   ar
    21    21    22   ar
    22    22    23   ar
    23     9    24   ar
    24    24     5   ar
    25    23    11   ar
    26    23    18   ar
    27     1    25    1
    28     1    26    1
    29     1    27    1
    30     6    28    1
    31     7    29    1
    32     8    30    1
    33    10    31    1
    34    12    32    1
    35    13    33    1
    36    19    34    1
    37    20    35    1
    38    21    36    1
    39    22    37    1
    40    24    38    1
