@<TRIPOS>MOLECULE
*****
 58 62 0 0 0
SMALL
GASTEIGER

@<TRIPOS>ATOM
      1 C           1.8798   -3.1206   -1.9847 C.3     1  UNL1        0.0790
      2 O           0.7686   -2.3161   -1.6703 O.3     1  UNL1       -0.4914
      3 C           0.9767   -1.1218   -0.9959 C.ar    1  UNL1        0.1623
      4 C           2.2638   -0.7539   -0.6484 C.ar    1  UNL1       -0.0038
      5 C           2.5087    0.4225    0.0196 C.ar    1  UNL1        0.0441
      6 C           3.7718    0.8292    0.3871 C.ar    1  UNL1        0.1340
      7 N           4.9123    0.0307    0.1251 N.pl3   1  UNL1       -0.2988
      8 C           6.2552    0.4411    0.3976 C.ar    1  UNL1        0.0339
      9 C           6.5902    1.7558    0.2873 C.ar    1  UNL1       -0.0390
     10 C           7.9001    2.1334    0.5819 C.ar    1  UNL1       -0.0402
     11 C           8.8419    1.2140    0.9752 C.ar    1  UNL1        0.0594
     12 CL         10.4859    1.7086    1.3456 Cl      1  UNL1       -0.0820
     13 C           8.4921   -0.1026    1.0811 C.ar    1  UNL1        0.0610
     14 CL          9.7179   -1.2495    1.5878 Cl      1  UNL1       -0.0820
     15 C           7.2110   -0.4810    0.7944 C.ar    1  UNL1       -0.0207
     16 N           3.9783    1.9954    1.0444 N.ar    1  UNL1       -0.2200
     17 C           2.9506    2.7957    1.3608 C.ar    1  UNL1        0.1187
     18 N           1.7194    2.4097    1.0089 N.ar    1  UNL1       -0.2352
     19 C           1.4671    1.2633    0.3570 C.ar    1  UNL1        0.0797
     20 C           0.1952    0.8775    0.0018 C.ar    1  UNL1        0.0098
     21 C          -0.1109   -0.2936   -0.6700 C.ar    1  UNL1        0.1640
     22 O          -1.3065   -0.6283   -0.9876 O.3     1  UNL1       -0.4880
     23 C          -2.5098   -0.9640   -1.3068 C.3     1  UNL1        0.0927
     24 C          -3.3932   -1.1158   -0.0401 C.3     1  UNL1       -0.0040
     25 C          -3.4623    0.1445    0.7304 C.3     1  UNL1       -0.0314
     26 C          -4.8341    0.6653    1.0384 C.3     1  UNL1        0.0108
     27 C          -5.3330    1.4319   -0.1898 C.3     1  UNL1       -0.0359
     28 C          -5.9955    0.3440   -0.9771 C.3     1  UNL1       -0.0359
     29 C          -5.9156   -0.8955   -0.1369 C.3     1  UNL1        0.0108
     30 C          -4.7066   -1.7077   -0.4430 C.3     1  UNL1       -0.0314
     31 N          -5.7856   -0.4207    1.2347 N.3     1  UNL1       -0.2994
     32 C          -7.0256    0.0615    1.7653 C.3     1  UNL1       -0.0122
     33 H           2.3860   -3.4652   -1.0622 H       1  UNL1        0.0660
     34 H           1.5641   -3.9979   -2.6010 H       1  UNL1        0.0660
     35 H           2.6439   -2.5503   -2.5769 H       1  UNL1        0.0660
     36 H           3.1084   -1.3818   -0.8956 H       1  UNL1        0.0663
     37 H           4.8658   -0.9428   -0.2952 H       1  UNL1        0.1536
     38 H           5.9236    2.5312   -0.0230 H       1  UNL1        0.0636
     39 H           8.1918    3.1771    0.5030 H       1  UNL1        0.0633
     40 H           6.9064   -1.5153    0.8714 H       1  UNL1        0.0651
     41 H           3.1303    3.7396    1.8946 H       1  UNL1        0.1048
     42 H          -0.6060    1.5634    0.2836 H       1  UNL1        0.0677
     43 H          -3.0948   -0.3118   -2.0238 H       1  UNL1        0.0699
     44 H          -2.5353   -1.9665   -1.8544 H       1  UNL1        0.0699
     45 H          -2.8609   -1.8762    0.5688 H       1  UNL1        0.0334
     46 H          -2.9193    0.0733    1.7190 H       1  UNL1        0.0284
     47 H          -2.9297    0.9772    0.1912 H       1  UNL1        0.0284
     48 H          -4.7667    1.3518    1.8860 H       1  UNL1        0.0463
     49 H          -6.0792    2.2055    0.0967 H       1  UNL1        0.0281
     50 H          -4.4401    1.8452   -0.6822 H       1  UNL1        0.0281
     51 H          -7.0474    0.5717   -1.2384 H       1  UNL1        0.0281
     52 H          -5.4454    0.2145   -1.9336 H       1  UNL1        0.0281
     53 H          -6.8041   -1.5393   -0.2653 H       1  UNL1        0.0463
     54 H          -4.7068   -1.9129   -1.5374 H       1  UNL1        0.0284
     55 H          -4.8747   -2.7237    0.0251 H       1  UNL1        0.0284
     56 H          -7.5799   -0.7137    2.3598 H       1  UNL1        0.0391
     57 H          -6.8049    0.8857    2.4863 H       1  UNL1        0.0391
     58 H          -7.7330    0.4085    0.9892 H       1  UNL1        0.0391
@<TRIPOS>BOND
     1     1     2    1
     2     2     3    1
     3     3     4   ar
     4     4     5   ar
     5     5     6   ar
     6     6     7    1
     7     7     8    1
     8     8     9   ar
     9     9    10   ar
    10    10    11   ar
    11    11    12    1
    12    11    13   ar
    13    13    14    1
    14    13    15   ar
    15     6    16   ar
    16    16    17   ar
    17    17    18   ar
    18    18    19   ar
    19    19    20   ar
    20    20    21   ar
    21    21    22    1
    22    22    23    1
    23    23    24    1
    24    24    25    1
    25    25    26    1
    26    26    27    1
    27    27    28    1
    28    28    29    1
    29    29    30    1
    30    29    31    1
    31    31    32    1
    32    21     3   ar
    33    30    24    1
    34    19     5   ar
    35    31    26    1
    36    15     8   ar
    37     1    33    1
    38     1    34    1
    39     1    35    1
    40     4    36    1
    41     7    37    1
    42     9    38    1
    43    10    39    1
    44    15    40    1
    45    17    41    1
    46    20    42    1
    47    23    43    1
    48    23    44    1
    49    24    45    1
    50    25    46    1
    51    25    47    1
    52    26    48    1
    53    27    49    1
    54    27    50    1
    55    28    51    1
    56    28    52    1
    57    29    53    1
    58    30    54    1
    59    30    55    1
    60    32    56    1
    61    32    57    1
    62    32    58    1
