
     RDKit          3D

 32 34  0  0  0  0  0  0  0  0999 V2000
   -0.6326    1.7350    1.3043 C   0  0  0  0  0  0  0  0  0  0  0  0
    0.1578    0.6114    0.6101 C   0  0  2  0  0  0  0  0  0  0  0  0
    1.5995    0.7100    0.8826 C   0  0  0  0  0  0  0  0  0  0  0  0
    2.4529   -0.2669    0.3079 N   0  0  0  0  0  0  0  0  0  0  0  0
    2.8260   -1.4218    0.8627 C   0  0  0  0  0  0  0  0  0  0  0  0
    3.6482   -2.0634   -0.0400 C   0  0  0  0  0  0  0  0  0  0  0  0
    3.7508   -1.2774   -1.1189 N   0  0  0  0  0  0  0  0  0  0  0  0
    3.0216   -0.2099   -0.8746 N   0  0  0  0  0  0  0  0  0  0  0  0
   -0.2575    0.6443   -0.8153 C   0  0  2  0  0  0  0  0  0  0  0  0
   -0.5819    2.0425   -1.2463 C   0  0  0  0  0  0  0  0  0  0  0  0
    0.2515    2.9849   -1.1423 O   0  0  0  0  0  0  0  0  0  0  0  0
   -1.8173    2.3588   -1.7794 O   0  0  0  0  0  0  0  0  0  0  0  0
   -1.3810   -0.1704   -1.0564 N   0  0  0  0  0  0  0  0  0  0  0  0
   -2.3617   -0.9007   -1.7482 C   0  0  0  0  0  0  0  0  0  0  0  0
   -2.9211   -0.9183   -2.8778 O   0  0  0  0  0  0  0  0  0  0  0  0
   -2.5945   -1.8081   -0.5599 C   0  0  0  0  0  0  0  0  0  0  0  0
   -2.0603   -0.6213    0.1530 C   0  0  1  0  0  0  0  0  0  0  0  0
   -0.5836   -0.9100    1.1537 S   0  0  0  0  0  6  0  0  0  0  0  0
   -0.8848   -0.9446    2.5910 O   0  0  0  0  0  0  0  0  0  0  0  0
    0.1497   -2.1120    0.6392 O   0  0  0  0  0  0  0  0  0  0  0  0
   -1.5745    1.9367    0.7537 H   0  0  0  0  0  0  0  0  0  0  0  0
   -0.0051    2.6515    1.2846 H   0  0  0  0  0  0  0  0  0  0  0  0
   -0.8360    1.3744    2.3337 H   0  0  0  0  0  0  0  0  0  0  0  0
    1.7123    0.7769    2.0089 H   0  0  0  0  0  0  0  0  0  0  0  0
    1.9371    1.7396    0.5534 H   0  0  0  0  0  0  0  0  0  0  0  0
    2.5737   -1.8412    1.8391 H   0  0  0  0  0  0  0  0  0  0  0  0
    4.1096   -3.0161    0.1148 H   0  0  0  0  0  0  0  0  0  0  0  0
    0.6493    0.3654   -1.4301 H   0  0  0  0  0  0  0  0  0  0  0  0
   -1.9671    3.1255   -2.4294 H   0  0  0  0  0  0  0  0  0  0  0  0
   -1.9696   -2.7044   -0.5485 H   0  0  0  0  0  0  0  0  0  0  0  0
   -3.6704   -1.9561   -0.3412 H   0  0  0  0  0  0  0  0  0  0  0  0
   -2.7410    0.0857    0.6158 H   0  0  0  0  0  0  0  0  0  0  0  0
  2  1  1  1
  2  3  1  0
  3  4  1  0
  4  5  1  0
  5  6  2  0
  6  7  1  0
  7  8  2  0
  2  9  1  0
  9 10  1  0
 10 11  2  0
 10 12  1  0
  9 13  1  0
 13 14  1  0
 14 15  2  0
 14 16  1  0
 16 17  1  0
 17 18  1  0
 18 19  2  0
 18 20  2  0
 18  2  1  0
  8  4  1  0
 17 13  1  0
  1 21  1  0
  1 22  1  0
  1 23  1  0
  3 24  1  0
  3 25  1  0
  5 26  1  0
  6 27  1  0
  9 28  1  6
 12 29  1  0
 16 30  1  0
 16 31  1  0
 17 32  1  1
M  END
$$$$
