@<TRIPOS>MOLECULE
*****
 32 34 0 0 0
SMALL
GASTEIGER

@<TRIPOS>ATOM
      1 C          -0.6326    1.7350    1.3043 C.3     1  UNL1       -0.0358
      2 C           0.1578    0.6114    0.6101 C.3     1  UNL1        0.1351
      3 C           1.5995    0.7100    0.8826 C.3     1  UNL1        0.0703
      4 N           2.4529   -0.2669    0.3079 N.ar    1  UNL1       -0.2495
      5 C           2.8260   -1.4218    0.8627 C.ar    1  UNL1        0.0455
      6 C           3.6482   -2.0634   -0.0400 C.ar    1  UNL1        0.0693
      7 N           3.7508   -1.2774   -1.1189 N.ar    1  UNL1       -0.1380
      8 N           3.0216   -0.2099   -0.8746 N.ar    1  UNL1       -0.0657
      9 C          -0.2575    0.6443   -0.8153 C.3     1  UNL1        0.1508
     10 C          -0.5819    2.0425   -1.2463 C.2     1  UNL1        0.3278
     11 O           0.2515    2.9849   -1.1423 O.2     1  UNL1       -0.2488
     12 O          -1.8173    2.3588   -1.7794 O.3     1  UNL1       -0.4793
     13 N          -1.3810   -0.1704   -1.0564 N.am    1  UNL1       -0.2632
     14 C          -2.3617   -0.9007   -1.7482 C.2     1  UNL1        0.2212
     15 O          -2.9211   -0.9183   -2.8778 O.2     1  UNL1       -0.2754
     16 C          -2.5945   -1.8081   -0.5599 C.3     1  UNL1        0.0629
     17 C          -2.0603   -0.6213    0.1530 C.3     1  UNL1        0.1536
     18 S          -0.5836   -0.9100    1.1537 S.O2    1  UNL1       -0.0022
     19 O          -0.8848   -0.9446    2.5910 O.2     1  UNL1       -0.1719
     20 O           0.1497   -2.1120    0.6392 O.2     1  UNL1       -0.1719
     21 H          -1.5745    1.9367    0.7537 H       1  UNL1        0.0252
     22 H          -0.0051    2.6515    1.2846 H       1  UNL1        0.0252
     23 H          -0.8360    1.3744    2.3337 H       1  UNL1        0.0252
     24 H           1.7123    0.7769    2.0089 H       1  UNL1        0.0532
     25 H           1.9371    1.7396    0.5534 H       1  UNL1        0.0532
     26 H           2.5737   -1.8412    1.8391 H       1  UNL1        0.0842
     27 H           4.1096   -3.0161    0.1148 H       1  UNL1        0.0864
     28 H           0.6493    0.3654   -1.4301 H       1  UNL1        0.0640
     29 H          -1.9671    3.1255   -2.4294 H       1  UNL1        0.2951
     30 H          -1.9696   -2.7044   -0.5485 H       1  UNL1        0.0393
     31 H          -3.6704   -1.9561   -0.3412 H       1  UNL1        0.0393
     32 H          -2.7410    0.0857    0.6158 H       1  UNL1        0.0750
@<TRIPOS>BOND
     1     2     1    1
     2     2     3    1
     3     3     4    1
     4     4     5   ar
     5     5     6   ar
     6     6     7   ar
     7     7     8   ar
     8     2     9    1
     9     9    10    1
    10    10    11    2
    11    10    12    1
    12     9    13    1
    13    13    14   am
    14    14    15    2
    15    14    16    1
    16    16    17    1
    17    17    18    1
    18    18    19    2
    19    18    20    2
    20    18     2    1
    21     8     4   ar
    22    17    13    1
    23     1    21    1
    24     1    22    1
    25     1    23    1
    26     3    24    1
    27     3    25    1
    28     5    26    1
    29     6    27    1
    30     9    28    1
    31    12    29    1
    32    16    30    1
    33    16    31    1
    34    17    32    1
