@<TRIPOS>MOLECULE
*****
 100 106 0 0 0
SMALL
GASTEIGER

@<TRIPOS>ATOM
      1 C          -7.9619   -1.7641    5.8380 C.2     1  UNL1       -0.0937
      2 C          -8.8984   -1.6147    4.9432 C.2     1  UNL1       -0.0303
      3 C         -10.2542   -2.1319    5.1331 C.3     1  UNL1       -0.0382
      4 C          -8.5947   -0.8956    3.6842 C.ar    1  UNL1        0.0902
      5 C          -7.3808   -0.3564    3.3759 C.ar    1  UNL1        0.0059
      6 C          -7.4939    0.2415    2.0920 C.ar    1  UNL1        0.1303
      7 N          -6.3686    0.8521    1.5235 N.am    1  UNL1       -0.2538
      8 C          -5.5797    0.3332    0.4515 C.2     1  UNL1        0.3092
      9 O          -5.9855   -0.6901   -0.1375 O.2     1  UNL1       -0.2521
     10 N          -4.3632    0.9730    0.0803 N.am    1  UNL1       -0.2686
     11 C          -3.5306    0.5594   -0.9838 C.ar    1  UNL1        0.0427
     12 C          -3.4160    1.4150   -2.0894 C.ar    1  UNL1       -0.0363
     13 C          -2.6094    1.0221   -3.1334 C.ar    1  UNL1       -0.0169
     14 C          -1.9385   -0.1996   -3.0636 C.ar    1  UNL1        0.1381
     15 O          -1.1201   -0.5156   -4.1645 O.3     1  UNL1       -0.4373
     16 C           0.2404   -0.6378   -3.8068 C.ar    1  UNL1        0.2249
     17 C           1.1483   -0.8936   -4.8124 C.ar    1  UNL1        0.0186
     18 C           2.4948   -1.0139   -4.4642 C.ar    1  UNL1        0.0362
     19 N           2.8569   -0.8825   -3.1959 N.ar    1  UNL1       -0.2225
     20 C           1.9883   -0.6364   -2.2140 C.ar    1  UNL1        0.2226
     21 N           2.3944   -0.5652   -0.8778 N.pl3   1  UNL1       -0.2834
     22 C           3.6888   -0.6096   -0.3473 C.ar    1  UNL1        0.0378
     23 C           3.8616   -1.4905    0.7330 C.ar    1  UNL1        0.0013
     24 C           5.0609   -1.6052    1.3736 C.ar    1  UNL1        0.1226
     25 O           5.2233   -2.4924    2.4498 O.3     1  UNL1       -0.4950
     26 C           4.1129   -3.2682    2.8391 C.3     1  UNL1        0.0788
     27 C           6.1163   -0.8264    0.9360 C.ar    1  UNL1       -0.0077
     28 C           5.9987    0.0523   -0.1158 C.ar    1  UNL1        0.0419
     29 C           7.0854    0.9076   -0.5615 C.2     1  UNL1        0.2443
     30 O           6.9211    1.7032   -1.5281 O.2     1  UNL1       -0.2702
     31 N           8.3669    0.9131    0.0419 N.am    1  UNL1       -0.3101
     32 C           9.4279    1.8118   -0.4329 C.3     1  UNL1        0.0247
     33 C          10.6870    1.6122    0.3806 C.3     1  UNL1        0.0146
     34 N          11.6962    2.5056   -0.0637 N.3     1  UNL1       -0.2965
     35 C          12.9337    2.3867    0.6354 C.3     1  UNL1        0.0225
     36 C          13.9990    1.7526   -0.2320 C.3     1  UNL1        0.0604
     37 O          14.2635    2.6210   -1.2744 O.3     1  UNL1       -0.3772
     38 C          13.1924    3.3713   -1.6932 C.3     1  UNL1        0.0604
     39 C          11.8458    2.6697   -1.4684 C.3     1  UNL1        0.0225
     40 C           4.7731    0.1370   -0.7383 C.ar    1  UNL1       -0.0281
     41 N           0.6930   -0.5214   -2.5701 N.ar    1  UNL1       -0.1789
     42 C          -2.0378   -1.0467   -2.0112 C.ar    1  UNL1        0.0262
     43 C          -1.3995   -2.2639   -1.9619 C.ar    1  UNL1       -0.0505
     44 C          -1.5223   -3.1248   -0.8932 C.ar    1  UNL1       -0.0611
     45 C          -2.3233   -2.7089    0.1378 C.ar    1  UNL1       -0.0611
     46 C          -2.9801   -1.4915    0.1155 C.ar    1  UNL1       -0.0521
     47 C          -2.8666   -0.6207   -0.9529 C.ar    1  UNL1        0.0069
     48 N          -8.7397    0.0294    1.7159 N.ar    1  UNL1       -0.2178
     49 C          -9.3286    0.4033    0.4848 C.ar    1  UNL1        0.0677
     50 C          -8.9988    1.4821   -0.2494 C.ar    1  UNL1       -0.0327
     51 C          -9.6058    1.8015   -1.4568 C.ar    1  UNL1       -0.0179
     52 C         -10.5960    1.0125   -1.9731 C.ar    1  UNL1        0.1202
     53 O         -11.2240    1.2989   -3.1726 O.3     1  UNL1       -0.4951
     54 C         -12.2507    0.5155   -3.7349 C.3     1  UNL1        0.0788
     55 C         -10.9634   -0.1205   -1.2304 C.ar    1  UNL1       -0.0179
     56 C         -10.3473   -0.4176   -0.0335 C.ar    1  UNL1       -0.0327
     57 N          -9.4140   -0.6558    2.6709 N.ar    1  UNL1       -0.1650
     58 H          -6.9460   -1.3626    5.6663 H       1  UNL1        0.0538
     59 H          -8.0911   -2.2661    6.7823 H       1  UNL1        0.0538
     60 H         -10.3172   -3.2031    5.3862 H       1  UNL1        0.0278
     61 H         -10.7530   -1.5069    5.9272 H       1  UNL1        0.0278
     62 H         -10.8867   -2.0054    4.2268 H       1  UNL1        0.0278
     63 H          -6.4829   -0.3698    3.9814 H       1  UNL1        0.0674
     64 H          -5.9954    1.7438    1.9785 H       1  UNL1        0.1578
     65 H          -4.0497    1.8242    0.6330 H       1  UNL1        0.1564
     66 H          -3.9670    2.3348   -2.0631 H       1  UNL1        0.0637
     67 H          -2.5057    1.6658   -3.9877 H       1  UNL1        0.0655
     68 H           0.8304   -1.0002   -5.8478 H       1  UNL1        0.0686
     69 H           3.1764   -1.2096   -5.2570 H       1  UNL1        0.0832
     70 H           1.5900   -0.4659   -0.1664 H       1  UNL1        0.1550
     71 H           3.0259   -2.0888    1.0620 H       1  UNL1        0.0673
     72 H           4.3979   -4.0780    3.5462 H       1  UNL1        0.0660
     73 H           3.3141   -2.6629    3.2753 H       1  UNL1        0.0660
     74 H           3.6532   -3.7971    1.9664 H       1  UNL1        0.0660
     75 H           7.0650   -0.9148    1.4390 H       1  UNL1        0.0662
     76 H           8.5758    0.2729    0.8364 H       1  UNL1        0.1490
     77 H           9.5734    1.5439   -1.4978 H       1  UNL1        0.0475
     78 H           9.0485    2.8248   -0.2709 H       1  UNL1        0.0475
     79 H          10.4641    1.7856    1.4476 H       1  UNL1        0.0442
     80 H          11.0394    0.5485    0.3055 H       1  UNL1        0.0442
     81 H          13.3093    3.4251    0.8472 H       1  UNL1        0.0449
     82 H          12.7639    1.8270    1.5657 H       1  UNL1        0.0449
     83 H          13.6332    0.7657   -0.5783 H       1  UNL1        0.0572
     84 H          14.9234    1.6143    0.3497 H       1  UNL1        0.0572
     85 H          13.2819    3.4839   -2.7926 H       1  UNL1        0.0572
     86 H          13.1754    4.4033   -1.2832 H       1  UNL1        0.0572
     87 H          11.0851    3.4095   -1.8453 H       1  UNL1        0.0449
     88 H          11.8779    1.7641   -2.0748 H       1  UNL1        0.0449
     89 H           4.6248    0.8174   -1.5869 H       1  UNL1        0.0644
     90 H          -0.7866   -2.6224   -2.8032 H       1  UNL1        0.0625
     91 H          -1.0232   -4.0820   -0.8479 H       1  UNL1        0.0618
     92 H          -2.4667   -3.3300    1.0105 H       1  UNL1        0.0618
     93 H          -3.5927   -1.2005    0.9592 H       1  UNL1        0.0624
     94 H          -8.2128    2.1448    0.1083 H       1  UNL1        0.0640
     95 H          -9.3143    2.6884   -2.0283 H       1  UNL1        0.0655
     96 H         -11.8716   -0.2729   -4.3931 H       1  UNL1        0.0660
     97 H         -12.9223    0.0478   -2.9790 H       1  UNL1        0.0660
     98 H         -12.8566    1.2198   -4.3724 H       1  UNL1        0.0660
     99 H         -11.7398   -0.7585   -1.6188 H       1  UNL1        0.0655
    100 H         -10.6247   -1.2800    0.5345 H       1  UNL1        0.0640
@<TRIPOS>BOND
     1     1     2    2
     2     2     3    1
     3     2     4    1
     4     4     5   ar
     5     5     6   ar
     6     6     7    1
     7     7     8   am
     8     8     9    2
     9     8    10   am
    10    10    11    1
    11    11    12   ar
    12    12    13   ar
    13    13    14   ar
    14    14    15    1
    15    15    16    1
    16    16    17   ar
    17    17    18   ar
    18    18    19   ar
    19    19    20   ar
    20    20    21    1
    21    21    22    1
    22    22    23   ar
    23    23    24   ar
    24    24    25    1
    25    25    26    1
    26    24    27   ar
    27    27    28   ar
    28    28    29    1
    29    29    30    2
    30    29    31   am
    31    31    32    1
    32    32    33    1
    33    33    34    1
    34    34    35    1
    35    35    36    1
    36    36    37    1
    37    37    38    1
    38    38    39    1
    39    28    40   ar
    40    20    41   ar
    41    14    42   ar
    42    42    43   ar
    43    43    44   ar
    44    44    45   ar
    45    45    46   ar
    46    46    47   ar
    47     6    48   ar
    48    48    49    1
    49    49    50   ar
    50    50    51   ar
    51    51    52   ar
    52    52    53    1
    53    53    54    1
    54    52    55   ar
    55    55    56   ar
    56    48    57   ar
    57    57     4   ar
    58    47    11   ar
    59    56    49   ar
    60    41    16   ar
    61    47    42   ar
    62    40    22   ar
    63    39    34    1
    64     1    58    1
    65     1    59    1
    66     3    60    1
    67     3    61    1
    68     3    62    1
    69     5    63    1
    70     7    64    1
    71    10    65    1
    72    12    66    1
    73    13    67    1
    74    17    68    1
    75    18    69    1
    76    21    70    1
    77    23    71    1
    78    26    72    1
    79    26    73    1
    80    26    74    1
    81    27    75    1
    82    31    76    1
    83    32    77    1
    84    32    78    1
    85    33    79    1
    86    33    80    1
    87    35    81    1
    88    35    82    1
    89    36    83    1
    90    36    84    1
    91    38    85    1
    92    38    86    1
    93    39    87    1
    94    39    88    1
    95    40    89    1
    96    43    90    1
    97    44    91    1
    98    45    92    1
    99    46    93    1
   100    50    94    1
   101    51    95    1
   102    54    96    1
   103    54    97    1
   104    54    98    1
   105    55    99    1
   106    56   100    1
