@<TRIPOS>MOLECULE
*****
 39 41 0 0 0
SMALL
GASTEIGER

@<TRIPOS>ATOM
      1 CL          7.1059   -0.3122   -2.0667 Cl      1  UNL1       -0.0835
      2 C           5.5775   -0.2137   -1.2296 C.ar    1  UNL1        0.0410
      3 C           4.7883   -1.3284   -1.1189 C.ar    1  UNL1       -0.0431
      4 C           3.5897   -1.2730   -0.4686 C.ar    1  UNL1       -0.0550
      5 C           3.0949   -0.1032    0.1165 C.ar    1  UNL1       -0.0218
      6 C           1.7887   -0.0672    0.8185 C.3     1  UNL1        0.0736
      7 O           0.7459    0.2520   -0.0491 O.3     1  UNL1       -0.3656
      8 C          -0.4852    0.2858    0.6134 C.3     1  UNL1        0.1032
      9 C          -1.0454    1.6576    0.4305 C.3     1  UNL1        0.0546
     10 N          -2.3133    1.8977    1.0435 N.ar    1  UNL1       -0.3340
     11 C          -3.5137    1.6833    0.4349 C.ar    1  UNL1        0.0241
     12 C          -4.4992    2.0236    1.3080 C.ar    1  UNL1        0.0454
     13 N          -3.9464    2.4456    2.4476 N.ar    1  UNL1       -0.2441
     14 C          -2.6205    2.3631    2.2708 C.ar    1  UNL1        0.0960
     15 C          -1.3391   -0.7392   -0.0459 C.ar    1  UNL1        0.0012
     16 C          -1.1496   -0.9785   -1.3953 C.ar    1  UNL1       -0.0533
     17 C          -1.9494   -1.9234   -1.9980 C.ar    1  UNL1       -0.0430
     18 C          -2.9151   -2.6238   -1.3068 C.ar    1  UNL1        0.0424
     19 CL         -3.8916   -3.8128   -2.1577 Cl      1  UNL1       -0.0835
     20 C          -3.0987   -2.3807    0.0372 C.ar    1  UNL1       -0.0247
     21 C          -2.2958   -1.4241    0.6692 C.ar    1  UNL1        0.0480
     22 CL         -2.5164   -1.1135    2.3800 Cl      1  UNL1       -0.0831
     23 C           3.9037    1.0053   -0.0063 C.ar    1  UNL1       -0.0550
     24 C           5.1121    0.9546   -0.6606 C.ar    1  UNL1       -0.0431
     25 H           5.1361   -2.2500   -1.5575 H       1  UNL1        0.0632
     26 H           2.9593   -2.1473   -0.3757 H       1  UNL1        0.0621
     27 H           1.5931   -1.1073    1.1717 H       1  UNL1        0.0610
     28 H           1.8083    0.6735    1.6320 H       1  UNL1        0.0610
     29 H          -0.3149    0.0452    1.6818 H       1  UNL1        0.0665
     30 H          -1.1350    1.8618   -0.6562 H       1  UNL1        0.0521
     31 H          -0.3280    2.4134    0.8359 H       1  UNL1        0.0521
     32 H          -3.6362    1.3095   -0.5626 H       1  UNL1        0.0825
     33 H          -5.5787    1.9807    1.1595 H       1  UNL1        0.0845
     34 H          -1.9063    2.6408    3.0317 H       1  UNL1        0.1029
     35 H          -0.3920   -0.4222   -1.9153 H       1  UNL1        0.0622
     36 H          -1.8205   -2.1337   -3.0692 H       1  UNL1        0.0632
     37 H          -3.8364   -2.9016    0.6110 H       1  UNL1        0.0647
     38 H           3.5806    1.9366    0.4219 H       1  UNL1        0.0621
     39 H           5.7436    1.8258   -0.7549 H       1  UNL1        0.0632
@<TRIPOS>BOND
     1     1     2    1
     2     2     3   ar
     3     3     4   ar
     4     4     5   ar
     5     5     6    1
     6     6     7    1
     7     7     8    1
     8     8     9    1
     9     9    10    1
    10    10    11   ar
    11    11    12   ar
    12    12    13   ar
    13    13    14   ar
    14     8    15    1
    15    15    16   ar
    16    16    17   ar
    17    17    18   ar
    18    18    19    1
    19    18    20   ar
    20    20    21   ar
    21    21    22    1
    22     5    23   ar
    23    23    24   ar
    24    24     2   ar
    25    14    10   ar
    26    21    15   ar
    27     3    25    1
    28     4    26    1
    29     6    27    1
    30     6    28    1
    31     8    29    1
    32     9    30    1
    33     9    31    1
    34    11    32    1
    35    12    33    1
    36    14    34    1
    37    16    35    1
    38    17    36    1
    39    20    37    1
    40    23    38    1
    41    24    39    1
