@<TRIPOS>MOLECULE
*****
 66 70 0 0 0
SMALL
GASTEIGER

@<TRIPOS>ATOM
      1 C           0.0911    1.0029    0.5711 C.3     1  UNL1       -0.0251
      2 C          -0.6518    1.8344    1.5353 C.3     1  UNL1       -0.0425
      3 C          -2.0240    1.8163    0.8351 C.3     1  UNL1        0.0049
      4 C          -1.9098    2.6751   -0.4188 C.3     1  UNL1       -0.0583
      5 C          -2.1474    0.3499    0.4636 C.3     1  UNL1        0.1894
      6 O          -2.6661    0.1328   -0.8225 O.3     1  UNL1       -0.4430
      7 C          -3.9030    0.5428   -1.2765 C.2     1  UNL1        0.3758
      8 O          -4.6903    1.1762   -0.5183 O.2     1  UNL1       -0.2414
      9 C          -4.1803    0.1777   -2.6630 C.ar    1  UNL1        0.2112
     10 C          -3.4281   -0.5096   -3.6182 C.ar    1  UNL1       -0.0093
     11 C          -4.1598   -0.5844   -4.7784 C.ar    1  UNL1       -0.0231
     12 C          -5.3521    0.0753   -4.4725 C.ar    1  UNL1        0.0929
     13 O          -5.3207    0.5000   -3.2377 O.2     1  UNL1       -0.4564
     14 C          -3.0016   -0.2531    1.5216 C.2     1  UNL1        0.2359
     15 O          -3.9656   -0.8309    1.0318 O.2     1  UNL1       -0.2808
     16 S          -2.7542   -0.2038    3.2857 S.3     1  UNL1       -0.0505
     17 C          -4.1066   -1.1051    4.0931 C.3     1  UNL1        0.1429
     18 F          -4.0625   -2.4524    3.7920 F       1  UNL1       -0.2370
     19 C          -0.7645   -0.2388    0.4902 C.3     1  UNL1        0.0216
     20 C          -0.5931   -1.2103    1.6008 C.3     1  UNL1       -0.0551
     21 C          -0.3724   -0.9105   -0.7965 C.3     1  UNL1       -0.0140
     22 C           1.0833   -1.0292   -1.0193 C.3     1  UNL1        0.0910
     23 O           1.4679   -2.3419   -0.6474 O.3     1  UNL1       -0.3886
     24 C           2.0045   -0.1087   -0.2989 C.3     1  UNL1        0.1528
     25 F           2.2478    0.9656   -1.1755 F       1  UNL1       -0.2377
     26 C           1.4495    0.5243    0.9462 C.3     1  UNL1        0.0030
     27 C           2.3696    1.5718    1.4451 C.3     1  UNL1       -0.0117
     28 C           3.6876    0.8867    1.7390 C.3     1  UNL1        0.1237
     29 F           4.5742    1.7388    2.3687 F       1  UNL1       -0.2407
     30 C           4.2790    0.3454    0.4897 C.2     1  UNL1       -0.0198
     31 C           5.4416    0.8179    0.0719 C.2     1  UNL1       -0.0121
     32 C           5.8932    0.1970   -1.1643 C.2     1  UNL1        0.1788
     33 O           6.9746    0.5552   -1.6609 O.2     1  UNL1       -0.2879
     34 C           5.1269   -0.8333   -1.8496 C.2     1  UNL1       -0.0179
     35 C           3.9835   -1.1903   -1.2914 C.2     1  UNL1       -0.0674
     36 C           3.3504   -0.6694   -0.0165 C.3     1  UNL1        0.0469
     37 C           3.3708   -1.8583    0.9177 C.3     1  UNL1       -0.0492
     38 H           0.0558    1.4934   -0.4180 H       1  UNL1        0.0311
     39 H          -0.7571    1.4312    2.5418 H       1  UNL1        0.0272
     40 H          -0.2746    2.8758    1.6181 H       1  UNL1        0.0272
     41 H          -2.7971    2.1729    1.5229 H       1  UNL1        0.0342
     42 H          -2.7821    3.3694   -0.4700 H       1  UNL1        0.0234
     43 H          -1.8825    1.9863   -1.2990 H       1  UNL1        0.0234
     44 H          -0.9953    3.3036   -0.3884 H       1  UNL1        0.0234
     45 H          -2.4390   -0.8826   -3.3820 H       1  UNL1        0.0657
     46 H          -3.7687   -1.0778   -5.6575 H       1  UNL1        0.0649
     47 H          -6.1317    0.1682   -5.2237 H       1  UNL1        0.1029
     48 H          -4.0122   -0.9271    5.1949 H       1  UNL1        0.0736
     49 H          -5.1057   -0.7028    3.7682 H       1  UNL1        0.0736
     50 H          -1.5684   -1.7795    1.6803 H       1  UNL1        0.0237
     51 H          -0.3945   -0.8062    2.5906 H       1  UNL1        0.0237
     52 H           0.1331   -2.0365    1.3374 H       1  UNL1        0.0237
     53 H          -0.8926   -0.3677   -1.6161 H       1  UNL1        0.0298
     54 H          -0.8668   -1.9270   -0.8015 H       1  UNL1        0.0298
     55 H           1.2779   -0.9828   -2.1141 H       1  UNL1        0.0626
     56 H           1.2901   -2.9679   -1.4183 H       1  UNL1        0.2099
     57 H           1.3401   -0.2391    1.7161 H       1  UNL1        0.0336
     58 H           2.0358    2.1102    2.3327 H       1  UNL1        0.0300
     59 H           2.5918    2.2974    0.6102 H       1  UNL1        0.0300
     60 H           3.4745    0.0389    2.4137 H       1  UNL1        0.0699
     61 H           5.9626    1.5836    0.6247 H       1  UNL1        0.0656
     62 H           5.4570   -1.2949   -2.7673 H       1  UNL1        0.0653
     63 H           3.4300   -1.9694   -1.8362 H       1  UNL1        0.0583
     64 H           3.5028   -2.8291    0.3917 H       1  UNL1        0.0242
     65 H           4.2683   -1.7625    1.5604 H       1  UNL1        0.0242
     66 H           2.5069   -1.8339    1.5772 H       1  UNL1        0.0242
@<TRIPOS>BOND
     1     1     2    1
     2     2     3    1
     3     3     4    1
     4     3     5    1
     5     5     6    1
     6     6     7    1
     7     7     8    2
     8     7     9    1
     9     9    10   ar
    10    10    11   ar
    11    11    12   ar
    12    12    13   ar
    13     5    14    1
    14    14    15    2
    15    14    16    1
    16    16    17    1
    17    17    18    1
    18     5    19    1
    19    19    20    1
    20    19    21    1
    21    21    22    1
    22    22    23    1
    23    22    24    1
    24    24    25    1
    25    24    26    1
    26    26    27    1
    27    27    28    1
    28    28    29    1
    29    28    30    1
    30    30    31    2
    31    31    32    1
    32    32    33    2
    33    32    34    1
    34    34    35    2
    35    35    36    1
    36    36    37    1
    37    19     1    1
    38    36    24    1
    39    26     1    1
    40    36    30    1
    41    13     9   ar
    42     1    38    1
    43     2    39    1
    44     2    40    1
    45     3    41    1
    46     4    42    1
    47     4    43    1
    48     4    44    1
    49    10    45    1
    50    11    46    1
    51    12    47    1
    52    17    48    1
    53    17    49    1
    54    20    50    1
    55    20    51    1
    56    20    52    1
    57    21    53    1
    58    21    54    1
    59    22    55    1
    60    23    56    1
    61    26    57    1
    62    27    58    1
    63    27    59    1
    64    28    60    1
    65    31    61    1
    66    34    62    1
    67    35    63    1
    68    37    64    1
    69    37    65    1
    70    37    66    1
