
     RDKit          3D

 66 70  0  0  0  0  0  0  0  0999 V2000
    0.0911    1.0029    0.5711 C   0  0  2  0  0  0  0  0  0  0  0  0
   -0.6518    1.8344    1.5353 C   0  0  0  0  0  0  0  0  0  0  0  0
   -2.0240    1.8163    0.8351 C   0  0  1  0  0  0  0  0  0  0  0  0
   -1.9098    2.6751   -0.4188 C   0  0  0  0  0  0  0  0  0  0  0  0
   -2.1474    0.3499    0.4636 C   0  0  2  0  0  0  0  0  0  0  0  0
   -2.6661    0.1328   -0.8225 O   0  0  0  0  0  0  0  0  0  0  0  0
   -3.9030    0.5428   -1.2765 C   0  0  0  0  0  0  0  0  0  0  0  0
   -4.6903    1.1762   -0.5183 O   0  0  0  0  0  0  0  0  0  0  0  0
   -4.1803    0.1777   -2.6630 C   0  0  0  0  0  0  0  0  0  0  0  0
   -3.4281   -0.5096   -3.6182 C   0  0  0  0  0  0  0  0  0  0  0  0
   -4.1598   -0.5844   -4.7784 C   0  0  0  0  0  0  0  0  0  0  0  0
   -5.3521    0.0753   -4.4725 C   0  0  0  0  0  0  0  0  0  0  0  0
   -5.3207    0.5000   -3.2377 O   0  0  0  0  0  0  0  0  0  0  0  0
   -3.0016   -0.2531    1.5216 C   0  0  0  0  0  0  0  0  0  0  0  0
   -3.9656   -0.8309    1.0318 O   0  0  0  0  0  0  0  0  0  0  0  0
   -2.7542   -0.2038    3.2857 S   0  0  0  0  0  0  0  0  0  0  0  0
   -4.1066   -1.1051    4.0931 C   0  0  0  0  0  0  0  0  0  0  0  0
   -4.0625   -2.4524    3.7920 F   0  0  0  0  0  0  0  0  0  0  0  0
   -0.7645   -0.2388    0.4902 C   0  0  2  0  0  0  0  0  0  0  0  0
   -0.5931   -1.2103    1.6008 C   0  0  0  0  0  0  0  0  0  0  0  0
   -0.3724   -0.9105   -0.7965 C   0  0  0  0  0  0  0  0  0  0  0  0
    1.0833   -1.0292   -1.0193 C   0  0  2  0  0  0  0  0  0  0  0  0
    1.4679   -2.3419   -0.6474 O   0  0  0  0  0  0  0  0  0  0  0  0
    2.0045   -0.1087   -0.2989 C   0  0  1  0  0  0  0  0  0  0  0  0
    2.2478    0.9656   -1.1755 F   0  0  0  0  0  0  0  0  0  0  0  0
    1.4495    0.5243    0.9462 C   0  0  1  0  0  0  0  0  0  0  0  0
    2.3696    1.5718    1.4451 C   0  0  0  0  0  0  0  0  0  0  0  0
    3.6876    0.8867    1.7390 C   0  0  2  0  0  0  0  0  0  0  0  0
    4.5742    1.7388    2.3687 F   0  0  0  0  0  0  0  0  0  0  0  0
    4.2790    0.3454    0.4897 C   0  0  0  0  0  0  0  0  0  0  0  0
    5.4416    0.8179    0.0719 C   0  0  0  0  0  0  0  0  0  0  0  0
    5.8932    0.1970   -1.1643 C   0  0  0  0  0  0  0  0  0  0  0  0
    6.9746    0.5552   -1.6609 O   0  0  0  0  0  0  0  0  0  0  0  0
    5.1269   -0.8333   -1.8496 C   0  0  0  0  0  0  0  0  0  0  0  0
    3.9835   -1.1903   -1.2914 C   0  0  0  0  0  0  0  0  0  0  0  0
    3.3504   -0.6694   -0.0165 C   0  0  2  0  0  0  0  0  0  0  0  0
    3.3708   -1.8583    0.9177 C   0  0  0  0  0  0  0  0  0  0  0  0
    0.0558    1.4934   -0.4180 H   0  0  0  0  0  0  0  0  0  0  0  0
   -0.7571    1.4312    2.5418 H   0  0  0  0  0  0  0  0  0  0  0  0
   -0.2746    2.8758    1.6181 H   0  0  0  0  0  0  0  0  0  0  0  0
   -2.7971    2.1729    1.5229 H   0  0  0  0  0  0  0  0  0  0  0  0
   -2.7821    3.3694   -0.4700 H   0  0  0  0  0  0  0  0  0  0  0  0
   -1.8825    1.9863   -1.2990 H   0  0  0  0  0  0  0  0  0  0  0  0
   -0.9953    3.3036   -0.3884 H   0  0  0  0  0  0  0  0  0  0  0  0
   -2.4390   -0.8826   -3.3820 H   0  0  0  0  0  0  0  0  0  0  0  0
   -3.7687   -1.0778   -5.6575 H   0  0  0  0  0  0  0  0  0  0  0  0
   -6.1317    0.1682   -5.2237 H   0  0  0  0  0  0  0  0  0  0  0  0
   -4.0122   -0.9271    5.1949 H   0  0  0  0  0  0  0  0  0  0  0  0
   -5.1057   -0.7028    3.7682 H   0  0  0  0  0  0  0  0  0  0  0  0
   -1.5684   -1.7795    1.6803 H   0  0  0  0  0  0  0  0  0  0  0  0
   -0.3945   -0.8062    2.5906 H   0  0  0  0  0  0  0  0  0  0  0  0
    0.1331   -2.0365    1.3374 H   0  0  0  0  0  0  0  0  0  0  0  0
   -0.8926   -0.3677   -1.6161 H   0  0  0  0  0  0  0  0  0  0  0  0
   -0.8668   -1.9270   -0.8015 H   0  0  0  0  0  0  0  0  0  0  0  0
    1.2779   -0.9828   -2.1141 H   0  0  0  0  0  0  0  0  0  0  0  0
    1.2901   -2.9679   -1.4183 H   0  0  0  0  0  0  0  0  0  0  0  0
    1.3401   -0.2391    1.7161 H   0  0  0  0  0  0  0  0  0  0  0  0
    2.0358    2.1102    2.3327 H   0  0  0  0  0  0  0  0  0  0  0  0
    2.5918    2.2974    0.6102 H   0  0  0  0  0  0  0  0  0  0  0  0
    3.4745    0.0389    2.4137 H   0  0  0  0  0  0  0  0  0  0  0  0
    5.9626    1.5836    0.6247 H   0  0  0  0  0  0  0  0  0  0  0  0
    5.4570   -1.2949   -2.7673 H   0  0  0  0  0  0  0  0  0  0  0  0
    3.4300   -1.9694   -1.8362 H   0  0  0  0  0  0  0  0  0  0  0  0
    3.5028   -2.8291    0.3917 H   0  0  0  0  0  0  0  0  0  0  0  0
    4.2683   -1.7625    1.5604 H   0  0  0  0  0  0  0  0  0  0  0  0
    2.5069   -1.8339    1.5772 H   0  0  0  0  0  0  0  0  0  0  0  0
  1  2  1  0
  2  3  1  0
  3  4  1  0
  3  5  1  0
  5  6  1  6
  6  7  1  0
  7  8  2  0
  7  9  1  0
  9 10  2  0
 10 11  1  0
 11 12  2  0
 12 13  1  0
  5 14  1  0
 14 15  2  0
 14 16  1  0
 16 17  1  0
 17 18  1  0
  5 19  1  0
 19 20  1  1
 19 21  1  0
 21 22  1  0
 22 23  1  0
 22 24  1  0
 24 25  1  6
 24 26  1  0
 26 27  1  0
 27 28  1  0
 28 29  1  0
 28 30  1  0
 30 31  2  0
 31 32  1  0
 32 33  2  0
 32 34  1  0
 34 35  2  0
 35 36  1  0
 36 37  1  1
 19  1  1  0
 36 24  1  0
 26  1  1  0
 36 30  1  0
 13  9  1  0
  1 38  1  6
  2 39  1  0
  2 40  1  0
  3 41  1  1
  4 42  1  0
  4 43  1  0
  4 44  1  0
 10 45  1  0
 11 46  1  0
 12 47  1  0
 17 48  1  0
 17 49  1  0
 20 50  1  0
 20 51  1  0
 20 52  1  0
 21 53  1  0
 21 54  1  0
 22 55  1  6
 23 56  1  0
 26 57  1  1
 27 58  1  0
 27 59  1  0
 28 60  1  1
 31 61  1  0
 34 62  1  0
 35 63  1  0
 37 64  1  0
 37 65  1  0
 37 66  1  0
M  END
$$$$
