@<TRIPOS>MOLECULE
*****
 41 43 0 0 0
SMALL
GASTEIGER

@<TRIPOS>ATOM
      1 C           0.3902   -1.4761    0.1019 C.3     1  UNL1        0.0919
      2 O           0.2788   -2.3289   -0.9745 O.3     1  UNL1       -0.3886
      3 C           1.5049   -0.4980   -0.0590 C.3     1  UNL1        0.0057
      4 C           2.8611   -1.2302   -0.1783 C.3     1  UNL1       -0.0440
      5 C           3.9091   -0.1738    0.1042 C.3     1  UNL1       -0.0490
      6 C           3.4550    1.1889   -0.3086 C.3     1  UNL1       -0.0347
      7 C           2.4667    1.1468   -1.4244 C.2     1  UNL1       -0.0876
      8 C           1.4327    0.2863   -1.3441 C.2     1  UNL1       -0.0823
      9 C          -0.8670   -0.9636    0.6830 C.3     1  UNL1        0.1456
     10 N          -0.4883   -0.0877    1.7984 N.am    1  UNL1       -0.2984
     11 C          -1.2460    1.1161    1.8072 C.2     1  UNL1        0.2199
     12 O          -1.5053    1.6537    2.9054 O.2     1  UNL1       -0.2754
     13 C          -1.4608    1.2876    0.3331 C.3     1  UNL1        0.0688
     14 C          -2.7873    1.9998    0.1370 C.3     1  UNL1       -0.0156
     15 C          -3.7510    0.8670    0.2154 C.3     1  UNL1        0.0493
     16 O          -3.0601   -0.2775    0.4899 O.3     1  UNL1       -0.3702
     17 C          -1.7630   -0.1040   -0.0833 C.3     1  UNL1        0.1079
     18 C          -1.9263   -0.3198   -1.5366 C.3     1  UNL1       -0.0326
     19 C          -1.6952   -2.1106    1.2318 C.2     1  UNL1        0.1489
     20 O          -1.8560   -2.0468    2.4517 O.2     1  UNL1       -0.2986
     21 H           0.7957   -2.1857    0.9321 H       1  UNL1        0.0626
     22 H           1.0331   -2.2154   -1.5875 H       1  UNL1        0.2099
     23 H           1.6355    0.1897    0.7908 H       1  UNL1        0.0369
     24 H           2.9395   -2.0324    0.5640 H       1  UNL1        0.0272
     25 H           2.9848   -1.5649   -1.2159 H       1  UNL1        0.0272
     26 H           4.8676   -0.4204   -0.3907 H       1  UNL1        0.0268
     27 H           4.0572   -0.1892    1.2241 H       1  UNL1        0.0268
     28 H           4.3430    1.7495   -0.6452 H       1  UNL1        0.0307
     29 H           2.9455    1.7254    0.5446 H       1  UNL1        0.0307
     30 H           2.6089    1.8156   -2.2755 H       1  UNL1        0.0569
     31 H           0.7975    0.3536   -2.2084 H       1  UNL1        0.0573
     32 H           0.2630   -0.3848    2.4764 H       1  UNL1        0.1498
     33 H          -0.6365    1.7979   -0.1497 H       1  UNL1        0.0424
     34 H          -2.8104    2.5306   -0.8230 H       1  UNL1        0.0296
     35 H          -2.9211    2.7451    0.9385 H       1  UNL1        0.0296
     36 H          -4.4857    1.1187    1.0208 H       1  UNL1        0.0560
     37 H          -4.2536    0.7637   -0.7663 H       1  UNL1        0.0560
     38 H          -2.9309   -0.7106   -1.7648 H       1  UNL1        0.0258
     39 H          -1.9164    0.7073   -2.0041 H       1  UNL1        0.0258
     40 H          -1.2067   -0.9322   -2.0598 H       1  UNL1        0.0258
     41 H          -2.0023   -2.7908    0.4446 H       1  UNL1        0.1051
@<TRIPOS>BOND
     1     1     2    1
     2     1     3    1
     3     3     4    1
     4     4     5    1
     5     5     6    1
     6     6     7    1
     7     7     8    2
     8     1     9    1
     9     9    10    1
    10    10    11   am
    11    11    12    2
    12    11    13    1
    13    13    14    1
    14    14    15    1
    15    15    16    1
    16    16    17    1
    17    17    18    1
    18     9    19    1
    19    19    20    2
    20     8     3    1
    21    17     9    1
    22    17    13    1
    23     1    21    1
    24     2    22    1
    25     3    23    1
    26     4    24    1
    27     4    25    1
    28     5    26    1
    29     5    27    1
    30     6    28    1
    31     6    29    1
    32     7    30    1
    33     8    31    1
    34    10    32    1
    35    13    33    1
    36    14    34    1
    37    14    35    1
    38    15    36    1
    39    15    37    1
    40    18    38    1
    41    18    39    1
    42    18    40    1
    43    19    41    1
