
     RDKit          3D

 41 43  0  0  0  0  0  0  0  0999 V2000
    0.3902   -1.4761    0.1019 C   0  0  1  0  0  0  0  0  0  0  0  0
    0.2788   -2.3289   -0.9745 O   0  0  0  0  0  0  0  0  0  0  0  0
    1.5049   -0.4980   -0.0590 C   0  0  1  0  0  0  0  0  0  0  0  0
    2.8611   -1.2302   -0.1783 C   0  0  0  0  0  0  0  0  0  0  0  0
    3.9091   -0.1738    0.1042 C   0  0  0  0  0  0  0  0  0  0  0  0
    3.4550    1.1889   -0.3086 C   0  0  0  0  0  0  0  0  0  0  0  0
    2.4667    1.1468   -1.4244 C   0  0  0  0  0  0  0  0  0  0  0  0
    1.4327    0.2863   -1.3441 C   0  0  0  0  0  0  0  0  0  0  0  0
   -0.8670   -0.9636    0.6830 C   0  0  1  0  0  0  0  0  0  0  0  0
   -0.4883   -0.0877    1.7984 N   0  0  0  0  0  0  0  0  0  0  0  0
   -1.2460    1.1161    1.8072 C   0  0  0  0  0  0  0  0  0  0  0  0
   -1.5053    1.6537    2.9054 O   0  0  0  0  0  0  0  0  0  0  0  0
   -1.4608    1.2876    0.3331 C   0  0  2  0  0  0  0  0  0  0  0  0
   -2.7873    1.9998    0.1370 C   0  0  0  0  0  0  0  0  0  0  0  0
   -3.7510    0.8670    0.2154 C   0  0  0  0  0  0  0  0  0  0  0  0
   -3.0601   -0.2775    0.4899 O   0  0  0  0  0  0  0  0  0  0  0  0
   -1.7630   -0.1040   -0.0833 C   0  0  2  0  0  0  0  0  0  0  0  0
   -1.9263   -0.3198   -1.5366 C   0  0  0  0  0  0  0  0  0  0  0  0
   -1.6952   -2.1106    1.2318 C   0  0  0  0  0  0  0  0  0  0  0  0
   -1.8560   -2.0468    2.4517 O   0  0  0  0  0  0  0  0  0  0  0  0
    0.7957   -2.1857    0.9321 H   0  0  0  0  0  0  0  0  0  0  0  0
    1.0331   -2.2154   -1.5875 H   0  0  0  0  0  0  0  0  0  0  0  0
    1.6355    0.1897    0.7908 H   0  0  0  0  0  0  0  0  0  0  0  0
    2.9395   -2.0324    0.5640 H   0  0  0  0  0  0  0  0  0  0  0  0
    2.9848   -1.5649   -1.2159 H   0  0  0  0  0  0  0  0  0  0  0  0
    4.8676   -0.4204   -0.3907 H   0  0  0  0  0  0  0  0  0  0  0  0
    4.0572   -0.1892    1.2241 H   0  0  0  0  0  0  0  0  0  0  0  0
    4.3430    1.7495   -0.6452 H   0  0  0  0  0  0  0  0  0  0  0  0
    2.9455    1.7254    0.5446 H   0  0  0  0  0  0  0  0  0  0  0  0
    2.6089    1.8156   -2.2755 H   0  0  0  0  0  0  0  0  0  0  0  0
    0.7975    0.3536   -2.2084 H   0  0  0  0  0  0  0  0  0  0  0  0
    0.2630   -0.3848    2.4764 H   0  0  0  0  0  0  0  0  0  0  0  0
   -0.6365    1.7979   -0.1497 H   0  0  0  0  0  0  0  0  0  0  0  0
   -2.8104    2.5306   -0.8230 H   0  0  0  0  0  0  0  0  0  0  0  0
   -2.9211    2.7451    0.9385 H   0  0  0  0  0  0  0  0  0  0  0  0
   -4.4857    1.1187    1.0208 H   0  0  0  0  0  0  0  0  0  0  0  0
   -4.2536    0.7637   -0.7663 H   0  0  0  0  0  0  0  0  0  0  0  0
   -2.9309   -0.7106   -1.7648 H   0  0  0  0  0  0  0  0  0  0  0  0
   -1.9164    0.7073   -2.0041 H   0  0  0  0  0  0  0  0  0  0  0  0
   -1.2067   -0.9322   -2.0598 H   0  0  0  0  0  0  0  0  0  0  0  0
   -2.0023   -2.7908    0.4446 H   0  0  0  0  0  0  0  0  0  0  0  0
  1  2  1  0
  1  3  1  0
  3  4  1  0
  4  5  1  0
  5  6  1  0
  6  7  1  0
  7  8  2  0
  1  9  1  0
  9 10  1  0
 10 11  1  0
 11 12  2  0
 11 13  1  0
 13 14  1  0
 14 15  1  0
 15 16  1  0
 16 17  1  0
 17 18  1  6
  9 19  1  1
 19 20  2  0
  8  3  1  0
 17  9  1  0
 17 13  1  0
  1 21  1  1
  2 22  1  0
  3 23  1  1
  4 24  1  0
  4 25  1  0
  5 26  1  0
  5 27  1  0
  6 28  1  0
  6 29  1  0
  7 30  1  0
  8 31  1  0
 10 32  1  0
 13 33  1  6
 14 34  1  0
 14 35  1  0
 15 36  1  0
 15 37  1  0
 18 38  1  0
 18 39  1  0
 18 40  1  0
 19 41  1  0
M  END
$$$$
