
     RDKit          3D

 47 49  0  0  0  0  0  0  0  0999 V2000
   -2.7383    2.3827   -0.3029 C   0  0  0  0  0  0  0  0  0  0  0  0
   -2.3547    1.1979    0.5298 C   0  0  1  0  0  0  0  0  0  0  0  0
   -3.3804    0.1382    0.3482 C   0  0  0  0  0  0  0  0  0  0  0  0
   -4.4211    0.0052    1.2636 C   0  0  0  0  0  0  0  0  0  0  0  0
   -5.4091   -0.9332    1.1795 C   0  0  0  0  0  0  0  0  0  0  0  0
   -5.3918   -1.8158    0.1258 C   0  0  0  0  0  0  0  0  0  0  0  0
   -6.7752   -3.1403   -0.0043 Br  0  0  0  0  0  0  0  0  0  0  0  0
   -4.3813   -1.7228   -0.8055 C   0  0  0  0  0  0  0  0  0  0  0  0
   -3.3803   -0.7497   -0.6941 C   0  0  0  0  0  0  0  0  0  0  0  0
   -1.0014    0.7798    0.3635 N   0  0  0  0  0  0  0  0  0  0  0  0
   -0.3984    0.3382   -0.8678 C   0  0  0  0  0  0  0  0  0  0  0  0
    1.0228    0.9274   -0.8767 C   0  0  0  0  0  0  0  0  0  0  0  0
    1.8861    0.3742    0.2017 C   0  0  2  0  0  0  0  0  0  0  0  0
    2.8915    1.4297    0.6801 C   0  0  0  0  0  0  0  0  0  0  0  0
    3.7842    1.8827   -0.4431 C   0  0  0  0  0  0  0  0  0  0  0  0
    3.1060    2.4510   -1.4953 O   0  0  0  0  0  0  0  0  0  0  0  0
    2.5571   -0.8882   -0.1092 C   0  0  0  0  0  0  0  0  0  0  0  0
    3.3667   -1.4471    0.8487 C   0  0  0  0  0  0  0  0  0  0  0  0
    4.0199   -2.6399    0.5959 C   0  0  0  0  0  0  0  0  0  0  0  0
    3.8491   -3.2651   -0.6332 C   0  0  0  0  0  0  0  0  0  0  0  0
    4.4811   -4.4390   -0.9052 F   0  0  0  0  0  0  0  0  0  0  0  0
    3.0422   -2.7225   -1.6076 C   0  0  0  0  0  0  0  0  0  0  0  0
    2.3961   -1.5141   -1.3181 C   0  0  0  0  0  0  0  0  0  0  0  0
    1.0806    0.1219    1.3672 O   0  0  0  0  0  0  0  0  0  0  0  0
   -0.1120    0.8075    1.5016 C   0  0  0  0  0  0  0  0  0  0  0  0
   -0.4565    1.4400    2.5406 O   0  0  0  0  0  0  0  0  0  0  0  0
   -2.1973    3.3150    0.0094 H   0  0  0  0  0  0  0  0  0  0  0  0
   -3.8369    2.5310   -0.1886 H   0  0  0  0  0  0  0  0  0  0  0  0
   -2.5294    2.2580   -1.3738 H   0  0  0  0  0  0  0  0  0  0  0  0
   -2.4521    1.5383    1.6152 H   0  0  0  0  0  0  0  0  0  0  0  0
   -4.4474    0.6926    2.0975 H   0  0  0  0  0  0  0  0  0  0  0  0
   -6.2174   -1.0136    1.9174 H   0  0  0  0  0  0  0  0  0  0  0  0
   -4.3898   -2.4267   -1.6229 H   0  0  0  0  0  0  0  0  0  0  0  0
   -2.6362   -0.7580   -1.4735 H   0  0  0  0  0  0  0  0  0  0  0  0
   -0.3178   -0.7545   -0.9461 H   0  0  0  0  0  0  0  0  0  0  0  0
   -0.8807    0.7336   -1.7829 H   0  0  0  0  0  0  0  0  0  0  0  0
    0.8579    2.0180   -0.6313 H   0  0  0  0  0  0  0  0  0  0  0  0
    1.4192    0.8976   -1.8861 H   0  0  0  0  0  0  0  0  0  0  0  0
    3.4976    1.0537    1.5101 H   0  0  0  0  0  0  0  0  0  0  0  0
    2.3072    2.2853    1.0334 H   0  0  0  0  0  0  0  0  0  0  0  0
    4.5349    2.6109   -0.0762 H   0  0  0  0  0  0  0  0  0  0  0  0
    4.3768    1.0331   -0.8591 H   0  0  0  0  0  0  0  0  0  0  0  0
    2.7808    3.3495   -1.1865 H   0  0  0  0  0  0  0  0  0  0  0  0
    3.5337   -0.9959    1.8291 H   0  0  0  0  0  0  0  0  0  0  0  0
    4.6536   -3.0883    1.3305 H   0  0  0  0  0  0  0  0  0  0  0  0
    2.8896   -3.1897   -2.5796 H   0  0  0  0  0  0  0  0  0  0  0  0
    1.7709   -1.0885   -2.0662 H   0  0  0  0  0  0  0  0  0  0  0  0
  1  2  1  0
  2  3  1  0
  3  4  2  0
  4  5  1  0
  5  6  2  0
  6  7  1  0
  6  8  1  0
  8  9  2  0
  2 10  1  0
 10 11  1  0
 11 12  1  0
 12 13  1  0
 13 14  1  1
 14 15  1  0
 15 16  1  0
 13 17  1  0
 17 18  2  0
 18 19  1  0
 19 20  2  0
 20 21  1  0
 20 22  1  0
 22 23  2  0
 13 24  1  0
 24 25  1  0
 25 26  2  0
  9  3  1  0
 25 10  1  0
 23 17  1  0
  1 27  1  0
  1 28  1  0
  1 29  1  0
  2 30  1  1
  4 31  1  0
  5 32  1  0
  8 33  1  0
  9 34  1  0
 11 35  1  0
 11 36  1  0
 12 37  1  0
 12 38  1  0
 14 39  1  0
 14 40  1  0
 15 41  1  0
 15 42  1  0
 16 43  1  0
 18 44  1  0
 19 45  1  0
 22 46  1  0
 23 47  1  0
M  END
$$$$
