@<TRIPOS>MOLECULE
*****
 47 49 0 0 0
SMALL
GASTEIGER

@<TRIPOS>ATOM
      1 C          -2.7383    2.3827   -0.3029 C.3     1  UNL1       -0.0421
      2 C          -2.3547    1.1979    0.5298 C.3     1  UNL1        0.0515
      3 C          -3.3804    0.1382    0.3482 C.ar    1  UNL1       -0.0271
      4 C          -4.4211    0.0052    1.2636 C.ar    1  UNL1       -0.0558
      5 C          -5.4091   -0.9332    1.1795 C.ar    1  UNL1       -0.0474
      6 C          -5.3918   -1.8158    0.1258 C.ar    1  UNL1        0.0179
      7 BR         -6.7752   -3.1403   -0.0043 Br      1  UNL1       -0.0503
      8 C          -4.3813   -1.7228   -0.8055 C.ar    1  UNL1       -0.0474
      9 C          -3.3803   -0.7497   -0.6941 C.ar    1  UNL1       -0.0558
     10 N          -1.0014    0.7798    0.3635 N.am    1  UNL1       -0.2605
     11 C          -0.3984    0.3382   -0.8678 C.3     1  UNL1        0.0224
     12 C           1.0228    0.9274   -0.8767 C.3     1  UNL1        0.0075
     13 C           1.8861    0.3742    0.2017 C.3     1  UNL1        0.1435
     14 C           2.8915    1.4297    0.6801 C.3     1  UNL1        0.0148
     15 C           3.7842    1.8827   -0.4431 C.3     1  UNL1        0.0482
     16 O           3.1060    2.4510   -1.4953 O.3     1  UNL1       -0.3949
     17 C           2.5571   -0.8882   -0.1092 C.ar    1  UNL1       -0.0039
     18 C           3.3667   -1.4471    0.8487 C.ar    1  UNL1       -0.0521
     19 C           4.0199   -2.6399    0.5959 C.ar    1  UNL1       -0.0261
     20 C           3.8491   -3.2651   -0.6332 C.ar    1  UNL1        0.1234
     21 F           4.4811   -4.4390   -0.9052 F       1  UNL1       -0.2055
     22 C           3.0422   -2.7225   -1.6076 C.ar    1  UNL1       -0.0261
     23 C           2.3961   -1.5141   -1.3181 C.ar    1  UNL1       -0.0521
     24 O           1.0806    0.1219    1.3672 O.3     1  UNL1       -0.4388
     25 C          -0.1120    0.8075    1.5016 C.2     1  UNL1        0.4042
     26 O          -0.4565    1.4400    2.5406 O.2     1  UNL1       -0.2262
     27 H          -2.1973    3.3150    0.0094 H       1  UNL1        0.0251
     28 H          -3.8369    2.5310   -0.1886 H       1  UNL1        0.0251
     29 H          -2.5294    2.2580   -1.3738 H       1  UNL1        0.0251
     30 H          -2.4521    1.5383    1.6152 H       1  UNL1        0.0549
     31 H          -4.4474    0.6926    2.0975 H       1  UNL1        0.0621
     32 H          -6.2174   -1.0136    1.9174 H       1  UNL1        0.0629
     33 H          -4.3898   -2.4267   -1.6229 H       1  UNL1        0.0629
     34 H          -2.6362   -0.7580   -1.4735 H       1  UNL1        0.0621
     35 H          -0.3178   -0.7545   -0.9461 H       1  UNL1        0.0467
     36 H          -0.8807    0.7336   -1.7829 H       1  UNL1        0.0467
     37 H           0.8579    2.0180   -0.6313 H       1  UNL1        0.0322
     38 H           1.4192    0.8976   -1.8861 H       1  UNL1        0.0322
     39 H           3.4976    1.0537    1.5101 H       1  UNL1        0.0329
     40 H           2.3072    2.2853    1.0334 H       1  UNL1        0.0329
     41 H           4.5349    2.6109   -0.0762 H       1  UNL1        0.0558
     42 H           4.3768    1.0331   -0.8591 H       1  UNL1        0.0558
     43 H           2.7808    3.3495   -1.1865 H       1  UNL1        0.2094
     44 H           3.5337   -0.9959    1.8291 H       1  UNL1        0.0622
     45 H           4.6536   -3.0883    1.3305 H       1  UNL1        0.0646
     46 H           2.8896   -3.1897   -2.5796 H       1  UNL1        0.0646
     47 H           1.7709   -1.0885   -2.0662 H       1  UNL1        0.0622
@<TRIPOS>BOND
     1     1     2    1
     2     2     3    1
     3     3     4   ar
     4     4     5   ar
     5     5     6   ar
     6     6     7    1
     7     6     8   ar
     8     8     9   ar
     9     2    10    1
    10    10    11    1
    11    11    12    1
    12    12    13    1
    13    13    14    1
    14    14    15    1
    15    15    16    1
    16    13    17    1
    17    17    18   ar
    18    18    19   ar
    19    19    20   ar
    20    20    21    1
    21    20    22   ar
    22    22    23   ar
    23    13    24    1
    24    24    25    1
    25    25    26    2
    26     9     3   ar
    27    25    10   am
    28    23    17   ar
    29     1    27    1
    30     1    28    1
    31     1    29    1
    32     2    30    1
    33     4    31    1
    34     5    32    1
    35     8    33    1
    36     9    34    1
    37    11    35    1
    38    11    36    1
    39    12    37    1
    40    12    38    1
    41    14    39    1
    42    14    40    1
    43    15    41    1
    44    15    42    1
    45    16    43    1
    46    18    44    1
    47    19    45    1
    48    22    46    1
    49    23    47    1
