@<TRIPOS>MOLECULE
*****
 59 61 0 0 0
SMALL
GASTEIGER

@<TRIPOS>ATOM
      1 C           8.8547    1.1308   -1.1988 C.3     1  UNL1       -0.0524
      2 C           7.4383    1.3047   -0.7100 C.3     1  UNL1       -0.0042
      3 N           7.1176    0.5016    0.4124 N.3     1  UNL1       -0.3056
      4 C           7.8017    0.8818    1.6273 C.3     1  UNL1       -0.0128
      5 C           7.0784   -0.9096    0.2035 C.3     1  UNL1       -0.0010
      6 C           5.8942   -1.2407   -0.6858 C.3     1  UNL1       -0.0332
      7 C           4.6012   -0.7920   -0.0345 C.3     1  UNL1        0.0116
      8 C           3.4704   -1.1142   -0.9203 C.2     1  UNL1        0.1632
      9 O           3.7049   -1.6554   -2.0226 O.2     1  UNL1       -0.2921
     10 C           2.1275   -0.7912   -0.4808 C.ar    1  UNL1        0.0176
     11 C           1.8787   -0.2106    0.7388 C.ar    1  UNL1       -0.0478
     12 C           0.5935    0.0844    1.1204 C.ar    1  UNL1       -0.0192
     13 C          -0.5248   -0.1813    0.3085 C.ar    1  UNL1        0.1216
     14 O          -1.7866    0.1395    0.7516 O.3     1  UNL1       -0.4807
     15 C          -2.9453   -0.0735    0.0115 C.3     1  UNL1        0.1661
     16 C          -3.9239   -1.0006    0.7205 C.3     1  UNL1        0.0177
     17 C          -5.2337   -0.4320    0.3449 C.ar    1  UNL1       -0.0292
     18 C          -6.4976   -1.0281    0.4693 C.ar    1  UNL1       -0.0123
     19 C          -7.6200   -0.3662    0.0771 C.ar    1  UNL1        0.1618
     20 O          -8.8826   -0.9431    0.1933 O.3     1  UNL1       -0.4914
     21 C          -8.9827   -2.2594    0.7386 C.3     1  UNL1        0.0790
     22 C          -7.5161    0.9110   -0.4513 C.ar    1  UNL1        0.1622
     23 O          -8.6801    1.5491   -0.8374 O.3     1  UNL1       -0.4914
     24 C          -8.7302    2.8384   -1.3862 C.3     1  UNL1        0.0790
     25 C          -6.2669    1.4862   -0.5684 C.ar    1  UNL1       -0.0054
     26 C          -5.1194    0.8296   -0.1761 C.ar    1  UNL1        0.0282
     27 C          -3.7226    1.1863   -0.1912 C.2     1  UNL1        0.2040
     28 O          -3.2315    2.3135   -0.3415 O.2     1  UNL1       -0.2881
     29 C          -0.2232   -0.7629   -0.9029 C.ar    1  UNL1       -0.0192
     30 C           1.0644   -1.0635   -1.2960 C.ar    1  UNL1       -0.0478
     31 H           8.9373    0.1687   -1.7745 H       1  UNL1        0.0242
     32 H           9.5809    1.0584   -0.3644 H       1  UNL1        0.0242
     33 H           9.1008    1.9873   -1.8500 H       1  UNL1        0.0242
     34 H           6.7394    1.1214   -1.5260 H       1  UNL1        0.0424
     35 H           7.3428    2.3787   -0.3727 H       1  UNL1        0.0424
     36 H           8.0025    1.9810    1.5598 H       1  UNL1        0.0391
     37 H           7.0730    0.7536    2.4632 H       1  UNL1        0.0391
     38 H           8.6853    0.2861    1.8508 H       1  UNL1        0.0391
     39 H           6.9079   -1.4486    1.1557 H       1  UNL1        0.0426
     40 H           8.0275   -1.2519   -0.2211 H       1  UNL1        0.0426
     41 H           6.0312   -0.7512   -1.6453 H       1  UNL1        0.0282
     42 H           5.7792   -2.3566   -0.7893 H       1  UNL1        0.0282
     43 H           4.6497    0.3060    0.2029 H       1  UNL1        0.0345
     44 H           4.4374   -1.3173    0.9371 H       1  UNL1        0.0345
     45 H           2.7157    0.0205    1.4184 H       1  UNL1        0.0626
     46 H           0.3671    0.5483    2.0898 H       1  UNL1        0.0654
     47 H          -2.8145   -0.5130   -0.9917 H       1  UNL1        0.0821
     48 H          -3.7359   -1.0002    1.8050 H       1  UNL1        0.0354
     49 H          -3.8788   -2.0391    0.3065 H       1  UNL1        0.0354
     50 H          -6.5897   -2.0247    0.8809 H       1  UNL1        0.0658
     51 H         -10.0505   -2.5593    0.7794 H       1  UNL1        0.0660
     52 H          -8.4000   -2.9305    0.0450 H       1  UNL1        0.0660
     53 H          -8.5419   -2.2945    1.7661 H       1  UNL1        0.0660
     54 H          -9.6427    3.0359   -1.9614 H       1  UNL1        0.0660
     55 H          -8.6849    3.5811   -0.5618 H       1  UNL1        0.0660
     56 H          -7.8237    2.9693   -2.0300 H       1  UNL1        0.0660
     57 H          -6.1554    2.4807   -0.9762 H       1  UNL1        0.0662
     58 H          -1.0360   -1.0055   -1.5995 H       1  UNL1        0.0654
     59 H           1.2382   -1.5171   -2.2530 H       1  UNL1        0.0626
@<TRIPOS>BOND
     1     1     2    1
     2     2     3    1
     3     3     4    1
     4     3     5    1
     5     5     6    1
     6     6     7    1
     7     7     8    1
     8     8     9    2
     9     8    10    1
    10    10    11   ar
    11    11    12   ar
    12    12    13   ar
    13    13    14    1
    14    14    15    1
    15    15    16    1
    16    16    17    1
    17    17    18   ar
    18    18    19   ar
    19    19    20    1
    20    20    21    1
    21    19    22   ar
    22    22    23    1
    23    23    24    1
    24    22    25   ar
    25    25    26   ar
    26    26    27    1
    27    27    28    2
    28    13    29   ar
    29    29    30   ar
    30    30    10   ar
    31    27    15    1
    32    26    17   ar
    33     1    31    1
    34     1    32    1
    35     1    33    1
    36     2    34    1
    37     2    35    1
    38     4    36    1
    39     4    37    1
    40     4    38    1
    41     5    39    1
    42     5    40    1
    43     6    41    1
    44     6    42    1
    45     7    43    1
    46     7    44    1
    47    11    45    1
    48    12    46    1
    49    15    47    1
    50    16    48    1
    51    16    49    1
    52    18    50    1
    53    21    51    1
    54    21    52    1
    55    21    53    1
    56    24    54    1
    57    24    55    1
    58    24    56    1
    59    25    57    1
    60    29    58    1
    61    30    59    1
