
     RDKit          3D

 59 61  0  0  0  0  0  0  0  0999 V2000
    8.8547    1.1308   -1.1988 C   0  0  0  0  0  0  0  0  0  0  0  0
    7.4383    1.3047   -0.7100 C   0  0  0  0  0  0  0  0  0  0  0  0
    7.1176    0.5016    0.4124 N   0  0  0  0  0  0  0  0  0  0  0  0
    7.8017    0.8818    1.6273 C   0  0  0  0  0  0  0  0  0  0  0  0
    7.0784   -0.9096    0.2035 C   0  0  0  0  0  0  0  0  0  0  0  0
    5.8942   -1.2407   -0.6858 C   0  0  0  0  0  0  0  0  0  0  0  0
    4.6012   -0.7920   -0.0345 C   0  0  0  0  0  0  0  0  0  0  0  0
    3.4704   -1.1142   -0.9203 C   0  0  0  0  0  0  0  0  0  0  0  0
    3.7049   -1.6554   -2.0226 O   0  0  0  0  0  0  0  0  0  0  0  0
    2.1275   -0.7912   -0.4808 C   0  0  0  0  0  0  0  0  0  0  0  0
    1.8787   -0.2106    0.7388 C   0  0  0  0  0  0  0  0  0  0  0  0
    0.5935    0.0844    1.1204 C   0  0  0  0  0  0  0  0  0  0  0  0
   -0.5248   -0.1813    0.3085 C   0  0  0  0  0  0  0  0  0  0  0  0
   -1.7866    0.1395    0.7516 O   0  0  0  0  0  0  0  0  0  0  0  0
   -2.9453   -0.0735    0.0115 C   0  0  0  0  0  0  0  0  0  0  0  0
   -3.9239   -1.0006    0.7205 C   0  0  0  0  0  0  0  0  0  0  0  0
   -5.2337   -0.4320    0.3449 C   0  0  0  0  0  0  0  0  0  0  0  0
   -6.4976   -1.0281    0.4693 C   0  0  0  0  0  0  0  0  0  0  0  0
   -7.6200   -0.3662    0.0771 C   0  0  0  0  0  0  0  0  0  0  0  0
   -8.8826   -0.9431    0.1933 O   0  0  0  0  0  0  0  0  0  0  0  0
   -8.9827   -2.2594    0.7386 C   0  0  0  0  0  0  0  0  0  0  0  0
   -7.5161    0.9110   -0.4513 C   0  0  0  0  0  0  0  0  0  0  0  0
   -8.6801    1.5491   -0.8374 O   0  0  0  0  0  0  0  0  0  0  0  0
   -8.7302    2.8384   -1.3862 C   0  0  0  0  0  0  0  0  0  0  0  0
   -6.2669    1.4862   -0.5684 C   0  0  0  0  0  0  0  0  0  0  0  0
   -5.1194    0.8296   -0.1761 C   0  0  0  0  0  0  0  0  0  0  0  0
   -3.7226    1.1863   -0.1912 C   0  0  0  0  0  0  0  0  0  0  0  0
   -3.2315    2.3135   -0.3415 O   0  0  0  0  0  0  0  0  0  0  0  0
   -0.2232   -0.7629   -0.9029 C   0  0  0  0  0  0  0  0  0  0  0  0
    1.0644   -1.0635   -1.2960 C   0  0  0  0  0  0  0  0  0  0  0  0
    8.9373    0.1687   -1.7745 H   0  0  0  0  0  0  0  0  0  0  0  0
    9.5809    1.0584   -0.3644 H   0  0  0  0  0  0  0  0  0  0  0  0
    9.1008    1.9873   -1.8500 H   0  0  0  0  0  0  0  0  0  0  0  0
    6.7394    1.1214   -1.5260 H   0  0  0  0  0  0  0  0  0  0  0  0
    7.3428    2.3787   -0.3727 H   0  0  0  0  0  0  0  0  0  0  0  0
    8.0025    1.9810    1.5598 H   0  0  0  0  0  0  0  0  0  0  0  0
    7.0730    0.7536    2.4632 H   0  0  0  0  0  0  0  0  0  0  0  0
    8.6853    0.2861    1.8508 H   0  0  0  0  0  0  0  0  0  0  0  0
    6.9079   -1.4486    1.1557 H   0  0  0  0  0  0  0  0  0  0  0  0
    8.0275   -1.2519   -0.2211 H   0  0  0  0  0  0  0  0  0  0  0  0
    6.0312   -0.7512   -1.6453 H   0  0  0  0  0  0  0  0  0  0  0  0
    5.7792   -2.3566   -0.7893 H   0  0  0  0  0  0  0  0  0  0  0  0
    4.6497    0.3060    0.2029 H   0  0  0  0  0  0  0  0  0  0  0  0
    4.4374   -1.3173    0.9371 H   0  0  0  0  0  0  0  0  0  0  0  0
    2.7157    0.0205    1.4184 H   0  0  0  0  0  0  0  0  0  0  0  0
    0.3671    0.5483    2.0898 H   0  0  0  0  0  0  0  0  0  0  0  0
   -2.8145   -0.5130   -0.9917 H   0  0  0  0  0  0  0  0  0  0  0  0
   -3.7359   -1.0002    1.8050 H   0  0  0  0  0  0  0  0  0  0  0  0
   -3.8788   -2.0391    0.3065 H   0  0  0  0  0  0  0  0  0  0  0  0
   -6.5897   -2.0247    0.8809 H   0  0  0  0  0  0  0  0  0  0  0  0
  -10.0505   -2.5593    0.7794 H   0  0  0  0  0  0  0  0  0  0  0  0
   -8.4000   -2.9305    0.0450 H   0  0  0  0  0  0  0  0  0  0  0  0
   -8.5419   -2.2945    1.7661 H   0  0  0  0  0  0  0  0  0  0  0  0
   -9.6427    3.0359   -1.9614 H   0  0  0  0  0  0  0  0  0  0  0  0
   -8.6849    3.5811   -0.5618 H   0  0  0  0  0  0  0  0  0  0  0  0
   -7.8237    2.9693   -2.0300 H   0  0  0  0  0  0  0  0  0  0  0  0
   -6.1554    2.4807   -0.9762 H   0  0  0  0  0  0  0  0  0  0  0  0
   -1.0360   -1.0055   -1.5995 H   0  0  0  0  0  0  0  0  0  0  0  0
    1.2382   -1.5171   -2.2530 H   0  0  0  0  0  0  0  0  0  0  0  0
  1  2  1  0
  2  3  1  0
  3  4  1  0
  3  5  1  0
  5  6  1  0
  6  7  1  0
  7  8  1  0
  8  9  2  0
  8 10  1  0
 10 11  2  0
 11 12  1  0
 12 13  2  0
 13 14  1  0
 14 15  1  0
 15 16  1  0
 16 17  1  0
 17 18  2  0
 18 19  1  0
 19 20  1  0
 20 21  1  0
 19 22  2  0
 22 23  1  0
 23 24  1  0
 22 25  1  0
 25 26  2  0
 26 27  1  0
 27 28  2  0
 13 29  1  0
 29 30  2  0
 30 10  1  0
 27 15  1  0
 26 17  1  0
  1 31  1  0
  1 32  1  0
  1 33  1  0
  2 34  1  0
  2 35  1  0
  4 36  1  0
  4 37  1  0
  4 38  1  0
  5 39  1  0
  5 40  1  0
  6 41  1  0
  6 42  1  0
  7 43  1  0
  7 44  1  0
 11 45  1  0
 12 46  1  0
 15 47  1  0
 16 48  1  0
 16 49  1  0
 18 50  1  0
 21 51  1  0
 21 52  1  0
 21 53  1  0
 24 54  1  0
 24 55  1  0
 24 56  1  0
 25 57  1  0
 29 58  1  0
 30 59  1  0
M  END
$$$$
