@<TRIPOS>MOLECULE
*****
 57 63 0 0 0
SMALL
GASTEIGER

@<TRIPOS>ATOM
      1 C           4.8730   -1.1353    2.3535 C.3     1  UNL1       -0.0374
      2 C           4.1697   -0.5970    1.1391 C.ar    1  UNL1       -0.0164
      3 C           2.8124   -0.3638    1.1455 C.ar    1  UNL1       -0.0161
      4 C           2.1235    0.1279    0.0593 C.ar    1  UNL1        0.1313
      5 N           0.6926    0.3638    0.0908 N.am    1  UNL1       -0.2388
      6 C           0.2166    1.6275    0.5098 C.2     1  UNL1        0.2548
      7 O           0.9232    2.6307    0.8870 O.2     1  UNL1       -0.2695
      8 C          -1.2375    1.5938    0.4399 C.ar    1  UNL1        0.0636
      9 C          -2.4267    2.2999    0.6433 C.ar    1  UNL1       -0.0143
     10 C          -2.4970    3.6995    1.1057 C.3     1  UNL1       -0.0137
     11 C          -2.8404    4.8200    0.2290 C.3     1  UNL1       -0.0456
     12 C          -1.4145    4.5920    0.5700 C.3     1  UNL1       -0.0456
     13 C          -3.4660    1.4455    0.3118 C.ar    1  UNL1        0.0096
     14 N          -2.9835    0.2610   -0.0822 N.ar    1  UNL1       -0.3403
     15 C          -3.7206   -0.8901   -0.5066 C.3     1  UNL1        0.0808
     16 C          -3.9305   -1.0671   -1.9695 C.3     1  UNL1        0.0706
     17 O          -5.2398   -1.4636   -1.7103 O.3     1  UNL1       -0.3755
     18 C          -5.1931   -0.6342   -0.5754 C.3     1  UNL1        0.0706
     19 C          -1.6105    0.3601   -0.0006 C.ar    1  UNL1        0.0571
     20 C          -0.3889   -0.4391   -0.2298 C.3     1  UNL1        0.0986
     21 C          -0.4757   -1.7763    0.3584 C.ar    1  UNL1       -0.0207
     22 C          -0.8132   -2.8122   -0.4829 C.ar    1  UNL1       -0.0550
     23 C          -0.9282   -4.1204   -0.0374 C.ar    1  UNL1       -0.0431
     24 C          -0.7011   -4.4034    1.2797 C.ar    1  UNL1        0.0410
     25 CL         -0.8470   -6.0583    1.8402 Cl      1  UNL1       -0.0835
     26 C          -0.3628   -3.3649    2.1232 C.ar    1  UNL1       -0.0431
     27 C          -0.2459   -2.0608    1.6903 C.ar    1  UNL1       -0.0550
     28 N           2.8328    0.3867   -1.0545 N.ar    1  UNL1       -0.2108
     29 C           4.1728    0.1664   -1.0896 C.ar    1  UNL1        0.1803
     30 C           4.8612   -0.3190   -0.0217 C.ar    1  UNL1        0.1345
     31 N           6.1683   -0.4270   -0.3679 N.ar    1  UNL1       -0.1276
     32 N           6.2535   -0.0093   -1.6295 N.ar    1  UNL1       -0.0635
     33 N           5.0676    0.3492   -2.0755 N.ar    1  UNL1       -0.2297
     34 C           4.7761    0.8569   -3.4095 C.3     1  UNL1        0.0341
     35 H           5.9058   -1.3536    2.0618 H       1  UNL1        0.0278
     36 H           4.3319   -2.0114    2.7650 H       1  UNL1        0.0278
     37 H           4.8320   -0.3446    3.1481 H       1  UNL1        0.0278
     38 H           2.2917   -0.5858    2.0591 H       1  UNL1        0.0655
     39 H          -2.6466    3.7699    2.2214 H       1  UNL1        0.0349
     40 H          -3.2292    4.6140   -0.7838 H       1  UNL1        0.0271
     41 H          -3.3602    5.6841    0.7136 H       1  UNL1        0.0271
     42 H          -0.8039    4.3015   -0.3143 H       1  UNL1        0.0271
     43 H          -0.9348    5.3519    1.2068 H       1  UNL1        0.0271
     44 H          -4.5165    1.7381    0.3774 H       1  UNL1        0.0812
     45 H          -3.5039   -1.8451   -0.0003 H       1  UNL1        0.0573
     46 H          -3.7986   -0.2014   -2.6225 H       1  UNL1        0.0581
     47 H          -3.3411   -1.9388   -2.3473 H       1  UNL1        0.0581
     48 H          -5.4844    0.3936   -0.8738 H       1  UNL1        0.0581
     49 H          -5.7747   -1.0918    0.2317 H       1  UNL1        0.0581
     50 H          -0.3632   -0.5800   -1.3622 H       1  UNL1        0.0620
     51 H          -1.0117   -2.6730   -1.5509 H       1  UNL1        0.0621
     52 H          -1.1972   -4.9339   -0.7174 H       1  UNL1        0.0632
     53 H          -0.1852   -3.5790    3.1475 H       1  UNL1        0.0632
     54 H           0.0177   -1.2548    2.3598 H       1  UNL1        0.0621
     55 H           4.9763    0.0764   -4.1681 H       1  UNL1        0.0474
     56 H           3.7100    1.1243   -3.4870 H       1  UNL1        0.0474
     57 H           5.4652    1.7002   -3.5980 H       1  UNL1        0.0474
@<TRIPOS>BOND
     1     1     2    1
     2     2     3   ar
     3     3     4   ar
     4     4     5    1
     5     5     6   am
     6     6     7    2
     7     6     8    1
     8     8     9   ar
     9     9    10    1
    10    10    11    1
    11    11    12    1
    12     9    13   ar
    13    13    14   ar
    14    14    15    1
    15    15    16    1
    16    16    17    1
    17    17    18    1
    18    14    19   ar
    19    19    20    1
    20    20    21    1
    21    21    22   ar
    22    22    23   ar
    23    23    24   ar
    24    24    25    1
    25    24    26   ar
    26    26    27   ar
    27     4    28   ar
    28    28    29   ar
    29    29    30   ar
    30    30    31   ar
    31    31    32   ar
    32    32    33   ar
    33    33    34    1
    34    30     2   ar
    35    20     5    1
    36    27    21   ar
    37    33    29   ar
    38    19     8   ar
    39    12    10    1
    40    18    15    1
    41     1    35    1
    42     1    36    1
    43     1    37    1
    44     3    38    1
    45    10    39    1
    46    11    40    1
    47    11    41    1
    48    12    42    1
    49    12    43    1
    50    13    44    1
    51    15    45    1
    52    16    46    1
    53    16    47    1
    54    18    48    1
    55    18    49    1
    56    20    50    1
    57    22    51    1
    58    23    52    1
    59    26    53    1
    60    27    54    1
    61    34    55    1
    62    34    56    1
    63    34    57    1
