
     RDKit          3D

 57 63  0  0  0  0  0  0  0  0999 V2000
    4.8730   -1.1353    2.3535 C   0  0  0  0  0  0  0  0  0  0  0  0
    4.1697   -0.5970    1.1391 C   0  0  0  0  0  0  0  0  0  0  0  0
    2.8124   -0.3638    1.1455 C   0  0  0  0  0  0  0  0  0  0  0  0
    2.1235    0.1279    0.0593 C   0  0  0  0  0  0  0  0  0  0  0  0
    0.6926    0.3638    0.0908 N   0  0  0  0  0  0  0  0  0  0  0  0
    0.2166    1.6275    0.5098 C   0  0  0  0  0  0  0  0  0  0  0  0
    0.9232    2.6307    0.8870 O   0  0  0  0  0  0  0  0  0  0  0  0
   -1.2375    1.5938    0.4399 C   0  0  0  0  0  0  0  0  0  0  0  0
   -2.4267    2.2999    0.6433 C   0  0  0  0  0  0  0  0  0  0  0  0
   -2.4970    3.6995    1.1057 C   0  0  0  0  0  0  0  0  0  0  0  0
   -2.8404    4.8200    0.2290 C   0  0  0  0  0  0  0  0  0  0  0  0
   -1.4145    4.5920    0.5700 C   0  0  0  0  0  0  0  0  0  0  0  0
   -3.4660    1.4455    0.3118 C   0  0  0  0  0  0  0  0  0  0  0  0
   -2.9835    0.2610   -0.0822 N   0  0  0  0  0  0  0  0  0  0  0  0
   -3.7206   -0.8901   -0.5066 C   0  0  0  0  0  0  0  0  0  0  0  0
   -3.9305   -1.0671   -1.9695 C   0  0  0  0  0  0  0  0  0  0  0  0
   -5.2398   -1.4636   -1.7103 O   0  0  0  0  0  0  0  0  0  0  0  0
   -5.1931   -0.6342   -0.5754 C   0  0  0  0  0  0  0  0  0  0  0  0
   -1.6105    0.3601   -0.0006 C   0  0  0  0  0  0  0  0  0  0  0  0
   -0.3889   -0.4391   -0.2298 C   0  0  0  0  0  0  0  0  0  0  0  0
   -0.4757   -1.7763    0.3584 C   0  0  0  0  0  0  0  0  0  0  0  0
   -0.8132   -2.8122   -0.4829 C   0  0  0  0  0  0  0  0  0  0  0  0
   -0.9282   -4.1204   -0.0374 C   0  0  0  0  0  0  0  0  0  0  0  0
   -0.7011   -4.4034    1.2797 C   0  0  0  0  0  0  0  0  0  0  0  0
   -0.8470   -6.0583    1.8402 Cl  0  0  0  0  0  0  0  0  0  0  0  0
   -0.3628   -3.3649    2.1232 C   0  0  0  0  0  0  0  0  0  0  0  0
   -0.2459   -2.0608    1.6903 C   0  0  0  0  0  0  0  0  0  0  0  0
    2.8328    0.3867   -1.0545 N   0  0  0  0  0  0  0  0  0  0  0  0
    4.1728    0.1664   -1.0896 C   0  0  0  0  0  0  0  0  0  0  0  0
    4.8612   -0.3190   -0.0217 C   0  0  0  0  0  0  0  0  0  0  0  0
    6.1683   -0.4270   -0.3679 N   0  0  0  0  0  0  0  0  0  0  0  0
    6.2535   -0.0093   -1.6295 N   0  0  0  0  0  0  0  0  0  0  0  0
    5.0676    0.3492   -2.0755 N   0  0  0  0  0  0  0  0  0  0  0  0
    4.7761    0.8569   -3.4095 C   0  0  0  0  0  0  0  0  0  0  0  0
    5.9058   -1.3536    2.0618 H   0  0  0  0  0  0  0  0  0  0  0  0
    4.3319   -2.0114    2.7650 H   0  0  0  0  0  0  0  0  0  0  0  0
    4.8320   -0.3446    3.1481 H   0  0  0  0  0  0  0  0  0  0  0  0
    2.2917   -0.5858    2.0591 H   0  0  0  0  0  0  0  0  0  0  0  0
   -2.6466    3.7699    2.2214 H   0  0  0  0  0  0  0  0  0  0  0  0
   -3.2292    4.6140   -0.7838 H   0  0  0  0  0  0  0  0  0  0  0  0
   -3.3602    5.6841    0.7136 H   0  0  0  0  0  0  0  0  0  0  0  0
   -0.8039    4.3015   -0.3143 H   0  0  0  0  0  0  0  0  0  0  0  0
   -0.9348    5.3519    1.2068 H   0  0  0  0  0  0  0  0  0  0  0  0
   -4.5165    1.7381    0.3774 H   0  0  0  0  0  0  0  0  0  0  0  0
   -3.5039   -1.8451   -0.0003 H   0  0  0  0  0  0  0  0  0  0  0  0
   -3.7986   -0.2014   -2.6225 H   0  0  0  0  0  0  0  0  0  0  0  0
   -3.3411   -1.9388   -2.3473 H   0  0  0  0  0  0  0  0  0  0  0  0
   -5.4844    0.3936   -0.8738 H   0  0  0  0  0  0  0  0  0  0  0  0
   -5.7747   -1.0918    0.2317 H   0  0  0  0  0  0  0  0  0  0  0  0
   -0.3632   -0.5800   -1.3622 H   0  0  0  0  0  0  0  0  0  0  0  0
   -1.0117   -2.6730   -1.5509 H   0  0  0  0  0  0  0  0  0  0  0  0
   -1.1972   -4.9339   -0.7174 H   0  0  0  0  0  0  0  0  0  0  0  0
   -0.1852   -3.5790    3.1475 H   0  0  0  0  0  0  0  0  0  0  0  0
    0.0177   -1.2548    2.3598 H   0  0  0  0  0  0  0  0  0  0  0  0
    4.9763    0.0764   -4.1681 H   0  0  0  0  0  0  0  0  0  0  0  0
    3.7100    1.1243   -3.4870 H   0  0  0  0  0  0  0  0  0  0  0  0
    5.4652    1.7002   -3.5980 H   0  0  0  0  0  0  0  0  0  0  0  0
  1  2  1  0
  2  3  2  0
  3  4  1  0
  4  5  1  0
  5  6  1  0
  6  7  2  0
  6  8  1  0
  8  9  1  0
  9 10  1  0
 10 11  1  0
 11 12  1  0
  9 13  2  0
 13 14  1  0
 14 15  1  0
 15 16  1  0
 16 17  1  0
 17 18  1  0
 14 19  1  0
 19 20  1  0
 20 21  1  0
 21 22  2  0
 22 23  1  0
 23 24  2  0
 24 25  1  0
 24 26  1  0
 26 27  2  0
  4 28  2  0
 28 29  1  0
 29 30  2  0
 30 31  1  0
 31 32  2  0
 32 33  1  0
 33 34  1  0
 30  2  1  0
 20  5  1  0
 27 21  1  0
 33 29  1  0
 19  8  2  0
 12 10  1  0
 18 15  1  0
  1 35  1  0
  1 36  1  0
  1 37  1  0
  3 38  1  0
 10 39  1  0
 11 40  1  0
 11 41  1  0
 12 42  1  0
 12 43  1  0
 13 44  1  0
 15 45  1  0
 16 46  1  0
 16 47  1  0
 18 48  1  0
 18 49  1  0
 20 50  1  0
 22 51  1  0
 23 52  1  0
 26 53  1  0
 27 54  1  0
 34 55  1  0
 34 56  1  0
 34 57  1  0
M  END
$$$$
