@<TRIPOS>MOLECULE
*****
 144 147 0 0 0
SMALL
GASTEIGER

@<TRIPOS>ATOM
      1 C           5.6103    0.0503    0.4502 C.3     1  UNL1       -0.0382
      2 C           4.4699   -0.2093   -0.4353 C.3     1  UNL1       -0.0442
      3 C           3.9679    0.8781   -1.3299 C.3     1  UNL1       -0.0060
      4 C           4.9231    1.3983   -2.3301 C.3     1  UNL1       -0.0590
      5 C           2.7019    0.3575   -2.0247 C.3     1  UNL1        0.1123
      6 C           2.1064    1.3742   -2.8892 C.3     1  UNL1        0.0438
      7 C           1.7388    2.6801   -2.2467 C.2     1  UNL1        0.1433
      8 O           1.6985    2.9012   -1.0327 O.2     1  UNL1       -0.2967
      9 C           1.3870    3.8411   -3.1555 C.3     1  UNL1        0.0332
     10 C           2.6820    4.1336   -3.9188 C.3     1  UNL1       -0.0522
     11 C           1.0203    5.0095   -2.3342 C.2     1  UNL1       -0.0726
     12 C          -0.0474    5.8342   -2.3986 C.2     1  UNL1       -0.0449
     13 C          -0.9089    5.3658   -3.5321 C.3     1  UNL1       -0.0413
     14 C          -0.2573    7.0116   -1.5292 C.3     1  UNL1        0.1090
     15 O           0.0590    8.2017   -2.1809 O.3     1  UNL1       -0.3845
     16 C          -1.6091    7.1019   -0.8826 C.3     1  UNL1        0.1457
     17 O          -2.5528    7.3812   -1.8772 O.3     1  UNL1       -0.3694
     18 C          -3.0832    8.6570   -1.7410 C.3     1  UNL1        0.0375
     19 C          -1.9715    6.0132    0.0139 C.2     1  UNL1        0.1674
     20 O          -1.0670    5.8429    0.8422 O.2     1  UNL1       -0.2943
     21 C          -3.1761    5.1268    0.0913 C.3     1  UNL1        0.0179
     22 C          -3.3700    4.3924   -1.2205 C.3     1  UNL1       -0.0556
     23 C          -4.4023    5.8556    0.5623 C.3     1  UNL1       -0.0376
     24 C          -5.5445    4.8727    0.6768 C.3     1  UNL1       -0.0248
     25 C          -6.7655    5.6049    1.1796 C.3     1  UNL1       -0.0589
     26 C          -5.1571    3.7903    1.6113 C.2     1  UNL1       -0.0812
     27 C          -5.0977    2.5819    1.1732 C.2     1  UNL1       -0.0654
     28 C          -4.7574    1.3845    1.8503 C.2     1  UNL1       -0.0620
     29 C          -4.6184    0.1264    1.6821 C.2     1  UNL1       -0.0617
     30 C          -4.3099   -1.1822    2.1757 C.2     1  UNL1       -0.0604
     31 C          -4.2839   -2.3542    1.5373 C.2     1  UNL1       -0.0442
     32 C          -4.6536   -1.9981    0.1487 C.3     1  UNL1       -0.0411
     33 C          -3.8645   -3.4382    2.4512 C.3     1  UNL1        0.0817
     34 C          -4.7092   -4.6874    2.3794 C.3     1  UNL1        0.0037
     35 C          -4.5750   -5.3726    1.0392 C.3     1  UNL1        0.0651
     36 C          -4.7781   -6.8619    1.1576 C.3     1  UNL1       -0.0260
     37 C          -3.5403   -7.6429    1.4578 C.3     1  UNL1       -0.0428
     38 C          -2.2978   -7.0472    0.8632 C.3     1  UNL1        0.0183
     39 C          -1.2866   -8.0218    0.3783 C.3     1  UNL1       -0.0571
     40 C          -2.7270   -6.0391   -0.1915 C.3     1  UNL1        0.2399
     41 O          -3.6381   -6.6568   -1.0499 O.3     1  UNL1       -0.3583
     42 O          -3.3420   -5.0242    0.4926 O.3     1  UNL1       -0.3387
     43 C          -1.5571   -5.6132   -0.9554 C.2     1  UNL1        0.2760
     44 O          -1.3623   -6.3561   -1.9819 O.2     1  UNL1       -0.2814
     45 C          -0.7815   -4.4821   -0.5145 C.2     1  UNL1        0.2883
     46 O          -0.9545   -3.6825    0.3980 O.2     1  UNL1       -0.2666
     47 N           0.4098   -3.7788   -0.8189 N.am    1  UNL1       -0.2815
     48 C           1.1476   -4.4120   -1.8592 C.3     1  UNL1        0.0159
     49 C           2.5047   -4.8453   -1.3475 C.3     1  UNL1       -0.0370
     50 C           3.0983   -3.9980   -0.2890 C.3     1  UNL1       -0.0494
     51 C           2.1599   -3.2739    0.6148 C.3     1  UNL1       -0.0238
     52 C           1.0891   -2.6076   -0.2954 C.3     1  UNL1        0.1233
     53 C           1.8575   -1.8067   -1.2426 C.2     1  UNL1        0.3281
     54 O           2.5155   -2.2521   -2.2001 O.2     1  UNL1       -0.2487
     55 O           1.9384   -0.3928   -1.1503 O.3     1  UNL1       -0.4594
     56 O          -3.8345   -3.0351    3.8054 O.3     1  UNL1       -0.3754
     57 C          -2.5778   -3.1629    4.3647 C.3     1  UNL1        0.0372
     58 C           6.8859    0.3942   -0.2151 C.3     1  UNL1       -0.0477
     59 C           8.0785   -0.3670    0.3565 C.3     1  UNL1       -0.0242
     60 C           8.1279   -0.3337    1.8702 C.3     1  UNL1        0.0813
     61 O           8.5627    0.8832    2.3783 O.3     1  UNL1       -0.3892
     62 C           6.8024   -0.7827    2.4544 C.3     1  UNL1        0.0844
     63 C           5.8556   -1.1935    1.3343 C.3     1  UNL1       -0.0213
     64 O           7.0304   -1.8017    3.3637 O.3     1  UNL1       -0.3772
     65 C           6.6333   -1.4247    4.6571 C.3     1  UNL1        0.0369
     66 H           5.3478    0.8352    1.2506 H       1  UNL1        0.0302
     67 H           4.7005   -1.1180   -1.0555 H       1  UNL1        0.0272
     68 H           3.6034   -0.5380    0.2065 H       1  UNL1        0.0272
     69 H           3.6461    1.7178   -0.6709 H       1  UNL1        0.0334
     70 H           5.3041    0.5558   -2.9626 H       1  UNL1        0.0234
     71 H           5.7402    2.0322   -1.9218 H       1  UNL1        0.0234
     72 H           4.4086    2.0647   -3.0402 H       1  UNL1        0.0234
     73 H           3.1526   -0.4142   -2.7532 H       1  UNL1        0.0741
     74 H           2.7481    1.5988   -3.7548 H       1  UNL1        0.0378
     75 H           1.1563    0.9846   -3.4009 H       1  UNL1        0.0378
     76 H           0.6489    3.4829   -3.8624 H       1  UNL1        0.0417
     77 H           3.5541    4.2353   -3.2524 H       1  UNL1        0.0239
     78 H           2.5989    5.1040   -4.4645 H       1  UNL1        0.0239
     79 H           2.9071    3.3786   -4.6845 H       1  UNL1        0.0239
     80 H           1.8097    5.1473   -1.5740 H       1  UNL1        0.0579
     81 H          -0.3476    5.3851   -4.4932 H       1  UNL1        0.0275
     82 H          -1.2576    4.3285   -3.4199 H       1  UNL1        0.0275
     83 H          -1.7985    6.0085   -3.6768 H       1  UNL1        0.0275
     84 H           0.5491    6.9273   -0.7272 H       1  UNL1        0.0671
     85 H           0.9340    8.5471   -1.9620 H       1  UNL1        0.2103
     86 H          -1.5800    8.0465   -0.2671 H       1  UNL1        0.0705
     87 H          -2.2972    9.4472   -1.7994 H       1  UNL1        0.0524
     88 H          -3.5277    8.7244   -0.7280 H       1  UNL1        0.0524
     89 H          -3.9087    8.8536   -2.4594 H       1  UNL1        0.0524
     90 H          -3.0045    4.3157    0.8569 H       1  UNL1        0.0376
     91 H          -2.4157    3.8117   -1.4087 H       1  UNL1        0.0236
     92 H          -4.2406    3.7540   -1.2753 H       1  UNL1        0.0236
     93 H          -3.3573    5.1923   -2.0189 H       1  UNL1        0.0236
     94 H          -4.7227    6.6411   -0.1715 H       1  UNL1        0.0277
     95 H          -4.1840    6.2604    1.5601 H       1  UNL1        0.0277
     96 H          -5.8374    4.4681   -0.3178 H       1  UNL1        0.0341
     97 H          -6.5300    6.1853    2.1168 H       1  UNL1        0.0235
     98 H          -7.0952    6.3613    0.4337 H       1  UNL1        0.0235
     99 H          -7.6491    4.9402    1.3090 H       1  UNL1        0.0235
    100 H          -4.9453    4.0872    2.6317 H       1  UNL1        0.0575
    101 H          -5.2726    2.1530    0.2082 H       1  UNL1        0.0615
    102 H          -4.5384    1.6740    2.8938 H       1  UNL1        0.0617
    103 H          -4.8663    0.0449    0.6365 H       1  UNL1        0.0618
    104 H          -4.1415   -0.7724    3.1584 H       1  UNL1        0.0618
    105 H          -4.6216   -2.9274   -0.4653 H       1  UNL1        0.0275
    106 H          -5.7014   -1.6490    0.0518 H       1  UNL1        0.0275
    107 H          -3.9036   -1.3360   -0.3450 H       1  UNL1        0.0275
    108 H          -2.8170   -3.7284    2.2496 H       1  UNL1        0.0644
    109 H          -5.7900   -4.4536    2.5800 H       1  UNL1        0.0318
    110 H          -4.3596   -5.4064    3.1444 H       1  UNL1        0.0318
    111 H          -5.3648   -4.9793    0.3797 H       1  UNL1        0.0598
    112 H          -5.4548   -6.9866    2.0578 H       1  UNL1        0.0290
    113 H          -5.3824   -7.2374    0.3173 H       1  UNL1        0.0290
    114 H          -3.6614   -8.6680    1.0570 H       1  UNL1        0.0270
    115 H          -3.3966   -7.7795    2.5745 H       1  UNL1        0.0270
    116 H          -1.8206   -6.4089    1.6649 H       1  UNL1        0.0355
    117 H          -0.2573   -7.6477    0.6498 H       1  UNL1        0.0234
    118 H          -1.3878   -8.9520    0.9846 H       1  UNL1        0.0234
    119 H          -1.3347   -8.2873   -0.6878 H       1  UNL1        0.0234
    120 H          -3.1959   -7.4079   -1.5453 H       1  UNL1        0.2132
    121 H           1.1755   -3.8783   -2.8311 H       1  UNL1        0.0465
    122 H           0.6445   -5.3867   -2.1347 H       1  UNL1        0.0465
    123 H           2.4576   -5.9250   -1.0053 H       1  UNL1        0.0280
    124 H           3.1897   -4.8829   -2.2260 H       1  UNL1        0.0280
    125 H           3.9000   -3.3083   -0.6676 H       1  UNL1        0.0266
    126 H           3.6864   -4.6965    0.3880 H       1  UNL1        0.0266
    127 H           1.6160   -4.0246    1.2561 H       1  UNL1        0.0288
    128 H           2.6860   -2.5026    1.1719 H       1  UNL1        0.0288
    129 H           0.4195   -1.9837    0.3345 H       1  UNL1        0.0616
    130 H          -2.6222   -2.8126    5.4304 H       1  UNL1        0.0524
    131 H          -2.2187   -4.2047    4.3793 H       1  UNL1        0.0524
    132 H          -1.8992   -2.4549    3.8606 H       1  UNL1        0.0524
    133 H           6.8459    0.0823   -1.2761 H       1  UNL1        0.0269
    134 H           7.1377    1.4785   -0.1836 H       1  UNL1        0.0269
    135 H           8.1293   -1.4099   -0.0175 H       1  UNL1        0.0291
    136 H           8.9872    0.1371   -0.0296 H       1  UNL1        0.0291
    137 H           8.8849   -1.1004    2.1544 H       1  UNL1        0.0619
    138 H           9.5411    0.8261    2.5192 H       1  UNL1        0.2099
    139 H           6.3725    0.0771    2.9953 H       1  UNL1        0.0622
    140 H           4.9134   -1.5551    1.7750 H       1  UNL1        0.0294
    141 H           6.3416   -1.9881    0.7488 H       1  UNL1        0.0294
    142 H           5.5312   -1.2029    4.5532 H       1  UNL1        0.0524
    143 H           6.7169   -2.2758    5.3487 H       1  UNL1        0.0524
    144 H           7.1190   -0.5126    5.0074 H       1  UNL1        0.0524
@<TRIPOS>BOND
     1     1     2    1
     2     2     3    1
     3     3     4    1
     4     3     5    1
     5     5     6    1
     6     6     7    1
     7     7     8    2
     8     7     9    1
     9     9    10    1
    10     9    11    1
    11    11    12    2
    12    12    13    1
    13    12    14    1
    14    14    15    1
    15    14    16    1
    16    16    17    1
    17    17    18    1
    18    16    19    1
    19    19    20    2
    20    19    21    1
    21    21    22    1
    22    21    23    1
    23    23    24    1
    24    24    25    1
    25    24    26    1
    26    26    27    2
    27    27    28    1
    28    28    29    2
    29    29    30    1
    30    30    31    2
    31    31    32    1
    32    31    33    1
    33    33    34    1
    34    34    35    1
    35    35    36    1
    36    36    37    1
    37    37    38    1
    38    38    39    1
    39    38    40    1
    40    40    41    1
    41    40    42    1
    42    40    43    1
    43    43    44    2
    44    43    45    1
    45    45    46    2
    46    45    47   am
    47    47    48    1
    48    48    49    1
    49    49    50    1
    50    50    51    1
    51    51    52    1
    52    52    53    1
    53    53    54    2
    54    53    55    1
    55    33    56    1
    56    56    57    1
    57     1    58    1
    58    58    59    1
    59    59    60    1
    60    60    61    1
    61    60    62    1
    62    62    63    1
    63    62    64    1
    64    64    65    1
    65    63     1    1
    66    55     5    1
    67    42    35    1
    68    52    47    1
    69     1    66    1
    70     2    67    1
    71     2    68    1
    72     3    69    1
    73     4    70    1
    74     4    71    1
    75     4    72    1
    76     5    73    1
    77     6    74    1
    78     6    75    1
    79     9    76    1
    80    10    77    1
    81    10    78    1
    82    10    79    1
    83    11    80    1
    84    13    81    1
    85    13    82    1
    86    13    83    1
    87    14    84    1
    88    15    85    1
    89    16    86    1
    90    18    87    1
    91    18    88    1
    92    18    89    1
    93    21    90    1
    94    22    91    1
    95    22    92    1
    96    22    93    1
    97    23    94    1
    98    23    95    1
    99    24    96    1
   100    25    97    1
   101    25    98    1
   102    25    99    1
   103    26   100    1
   104    27   101    1
   105    28   102    1
   106    29   103    1
   107    30   104    1
   108    32   105    1
   109    32   106    1
   110    32   107    1
   111    33   108    1
   112    34   109    1
   113    34   110    1
   114    35   111    1
   115    36   112    1
   116    36   113    1
   117    37   114    1
   118    37   115    1
   119    38   116    1
   120    39   117    1
   121    39   118    1
   122    39   119    1
   123    41   120    1
   124    48   121    1
   125    48   122    1
   126    49   123    1
   127    49   124    1
   128    50   125    1
   129    50   126    1
   130    51   127    1
   131    51   128    1
   132    52   129    1
   133    57   130    1
   134    57   131    1
   135    57   132    1
   136    58   133    1
   137    58   134    1
   138    59   135    1
   139    59   136    1
   140    60   137    1
   141    61   138    1
   142    62   139    1
   143    63   140    1
   144    63   141    1
   145    65   142    1
   146    65   143    1
   147    65   144    1
