@<TRIPOS>MOLECULE
*****
 77 81 0 0 0
SMALL
GASTEIGER

@<TRIPOS>ATOM
      1 N          -4.9909    7.1741    1.3762 N.3     1  UNL1       -0.2080
      2 S          -5.9315    6.6533    0.0265 S.O2    1  UNL1        0.0284
      3 O          -5.3019    7.1323   -1.2310 O.2     1  UNL1       -0.1584
      4 O          -7.3364    7.1713    0.0939 O.2     1  UNL1       -0.1584
      5 C          -6.0268    4.8762   -0.0331 C.3     1  UNL1        0.0969
      6 C          -4.6208    4.3167   -0.1608 C.3     1  UNL1        0.0325
      7 N          -4.6949    2.8695   -0.2098 N.am    1  UNL1       -0.3118
      8 C          -3.4690    2.1251   -0.3312 C.2     1  UNL1        0.2439
      9 O          -2.3571    2.7063   -0.3939 O.2     1  UNL1       -0.2733
     10 C          -3.5675    0.6407   -0.3798 C.3     1  UNL1        0.2003
     11 C          -2.1278    0.1452   -0.5089 C.ar    1  UNL1        0.1126
     12 N          -1.2474    0.1207   -1.2897 N.ar    1  UNL1       -0.2416
     13 C          -0.0446   -0.3852   -1.1471 C.ar    1  UNL1        0.0786
     14 C           0.9987   -0.4085   -2.0892 C.ar    1  UNL1       -0.0346
     15 C           2.1936   -0.9923   -1.7422 C.ar    1  UNL1       -0.0519
     16 C           2.4624   -1.5655   -0.5327 C.ar    1  UNL1       -0.0138
     17 C           3.7198   -2.1697   -0.1956 C.ar    1  UNL1        0.0196
     18 C           3.9407   -3.2446    0.6726 C.ar    1  UNL1        0.0571
     19 N           5.2648   -3.4659    0.6798 N.ar    1  UNL1       -0.1790
     20 N           5.8921   -2.6283   -0.1042 N.ar    1  UNL1       -0.2696
     21 C           7.3310   -2.5808   -0.3382 C.3     1  UNL1        0.0542
     22 C           7.9460   -1.6683    0.6629 C.3     1  UNL1        0.0186
     23 N           7.4128   -0.3510    0.5524 N.3     1  UNL1       -0.2963
     24 C           7.8172    0.2938   -0.6594 C.3     1  UNL1        0.0225
     25 C           9.3237    0.4884   -0.7174 C.3     1  UNL1        0.0604
     26 O           9.8192    0.7559    0.5661 O.3     1  UNL1       -0.3772
     27 C           8.8874    1.4322    1.3431 C.3     1  UNL1        0.0604
     28 C           7.7990    0.4270    1.7280 C.3     1  UNL1        0.0225
     29 C           4.9836   -1.8283   -0.6506 C.ar    1  UNL1        0.0332
     30 C           1.4347   -1.5510    0.4170 C.ar    1  UNL1       -0.0381
     31 C           0.2384   -0.9581    0.0479 C.ar    1  UNL1        0.0398
     32 S          -1.3313   -0.7166    0.9338 S.2     1  UNL1       -0.0697
     33 S          -4.4629    0.1045   -1.8144 S.O2    1  UNL1       -0.0096
     34 O          -5.8074    0.7688   -1.9022 O.2     1  UNL1       -0.1729
     35 O          -3.6972    0.5622   -3.0446 O.2     1  UNL1       -0.1729
     36 C          -4.6104   -1.6433   -1.9320 C.3     1  UNL1        0.0920
     37 C          -5.3135   -2.2786   -0.8060 C.ar    1  UNL1       -0.0265
     38 C          -4.6304   -2.7281    0.3020 C.ar    1  UNL1       -0.0565
     39 C          -5.3051   -3.3260    1.3638 C.ar    1  UNL1       -0.0498
     40 C          -6.6738   -3.4948    1.3573 C.ar    1  UNL1        0.0548
     41 C          -7.3956   -4.1344    2.4930 C.3     1  UNL1        0.4174
     42 F          -8.1983   -5.1790    2.0208 F       1  UNL1       -0.1659
     43 F          -8.1962   -3.2727    3.1767 F       1  UNL1       -0.1659
     44 F          -6.4845   -4.7026    3.3539 F       1  UNL1       -0.1659
     45 C          -7.3616   -3.0463    0.2499 C.ar    1  UNL1       -0.0498
     46 C          -6.6943   -2.4542   -0.8018 C.ar    1  UNL1       -0.0565
     47 H          -4.0007    6.9111    1.1962 H       1  UNL1        0.1438
     48 H          -5.0458    8.2077    1.4217 H       1  UNL1        0.1438
     49 H          -6.5168    4.4573    0.8668 H       1  UNL1        0.0531
     50 H          -6.6279    4.6127   -0.9194 H       1  UNL1        0.0531
     51 H          -3.9625    4.6570    0.6436 H       1  UNL1        0.0478
     52 H          -4.1821    4.7105   -1.1163 H       1  UNL1        0.0478
     53 H          -5.5824    2.3275   -0.1627 H       1  UNL1        0.1488
     54 H          -4.0091    0.3243    0.5645 H       1  UNL1        0.0705
     55 H           0.9121    0.0097   -3.0767 H       1  UNL1        0.0639
     56 H           2.9994   -1.0000   -2.4970 H       1  UNL1        0.0624
     57 H           3.1951   -3.7868    1.2260 H       1  UNL1        0.0854
     58 H           7.7106   -3.6317   -0.1836 H       1  UNL1        0.0521
     59 H           7.5709   -2.2594   -1.3519 H       1  UNL1        0.0521
     60 H           7.6995   -2.0558    1.6739 H       1  UNL1        0.0445
     61 H           9.0577   -1.6820    0.5786 H       1  UNL1        0.0445
     62 H           7.3597    1.3212   -0.7192 H       1  UNL1        0.0449
     63 H           7.4570   -0.2664   -1.5210 H       1  UNL1        0.0449
     64 H           9.7870   -0.4249   -1.1418 H       1  UNL1        0.0572
     65 H           9.5527    1.3591   -1.3464 H       1  UNL1        0.0572
     66 H           8.4477    2.2619    0.7527 H       1  UNL1        0.0572
     67 H           9.3865    1.7655    2.2662 H       1  UNL1        0.0572
     68 H           6.9170    0.9236    2.1329 H       1  UNL1        0.0449
     69 H           8.2415   -0.2432    2.4865 H       1  UNL1        0.0449
     70 H           5.2017   -1.0316   -1.3456 H       1  UNL1        0.0832
     71 H           1.5200   -1.9649    1.3956 H       1  UNL1        0.0635
     72 H          -3.5712   -2.0673   -2.0673 H       1  UNL1        0.0550
     73 H          -5.1115   -1.8536   -2.9115 H       1  UNL1        0.0550
     74 H          -3.5562   -2.6069    0.3263 H       1  UNL1        0.0621
     75 H          -4.7722   -3.6827    2.2411 H       1  UNL1        0.0623
     76 H          -8.4406   -3.1830    0.2527 H       1  UNL1        0.0623
     77 H          -7.2228   -2.0989   -1.6751 H       1  UNL1        0.0621
@<TRIPOS>BOND
     1     1     2    1
     2     2     3    2
     3     2     4    2
     4     2     5    1
     5     5     6    1
     6     6     7    1
     7     7     8   am
     8     8     9    2
     9     8    10    1
    10    10    11    1
    11    11    12   ar
    12    12    13   ar
    13    13    14   ar
    14    14    15   ar
    15    15    16   ar
    16    16    17    1
    17    17    18   ar
    18    18    19   ar
    19    19    20   ar
    20    20    21    1
    21    21    22    1
    22    22    23    1
    23    23    24    1
    24    24    25    1
    25    25    26    1
    26    26    27    1
    27    27    28    1
    28    20    29   ar
    29    16    30   ar
    30    30    31   ar
    31    31    32   ar
    32    10    33    1
    33    33    34    2
    34    33    35    2
    35    33    36    1
    36    36    37    1
    37    37    38   ar
    38    38    39   ar
    39    39    40   ar
    40    40    41    1
    41    41    42    1
    42    41    43    1
    43    41    44    1
    44    40    45   ar
    45    45    46   ar
    46    32    11   ar
    47    46    37   ar
    48    31    13   ar
    49    29    17   ar
    50    28    23    1
    51     1    47    1
    52     1    48    1
    53     5    49    1
    54     5    50    1
    55     6    51    1
    56     6    52    1
    57     7    53    1
    58    10    54    1
    59    14    55    1
    60    15    56    1
    61    18    57    1
    62    21    58    1
    63    21    59    1
    64    22    60    1
    65    22    61    1
    66    24    62    1
    67    24    63    1
    68    25    64    1
    69    25    65    1
    70    27    66    1
    71    27    67    1
    72    28    68    1
    73    28    69    1
    74    29    70    1
    75    30    71    1
    76    36    72    1
    77    36    73    1
    78    38    74    1
    79    39    75    1
    80    45    76    1
    81    46    77    1
