
     RDKit          3D

 77 81  0  0  0  0  0  0  0  0999 V2000
   -4.9909    7.1741    1.3762 N   0  0  0  0  0  0  0  0  0  0  0  0
   -5.9315    6.6533    0.0265 S   0  0  0  0  0  6  0  0  0  0  0  0
   -5.3019    7.1323   -1.2310 O   0  0  0  0  0  0  0  0  0  0  0  0
   -7.3364    7.1713    0.0939 O   0  0  0  0  0  0  0  0  0  0  0  0
   -6.0268    4.8762   -0.0331 C   0  0  0  0  0  0  0  0  0  0  0  0
   -4.6208    4.3167   -0.1608 C   0  0  0  0  0  0  0  0  0  0  0  0
   -4.6949    2.8695   -0.2098 N   0  0  0  0  0  0  0  0  0  0  0  0
   -3.4690    2.1251   -0.3312 C   0  0  0  0  0  0  0  0  0  0  0  0
   -2.3571    2.7063   -0.3939 O   0  0  0  0  0  0  0  0  0  0  0  0
   -3.5675    0.6407   -0.3798 C   0  0  0  0  0  0  0  0  0  0  0  0
   -2.1278    0.1452   -0.5089 C   0  0  0  0  0  0  0  0  0  0  0  0
   -1.2474    0.1207   -1.2897 N   0  0  0  0  0  0  0  0  0  0  0  0
   -0.0446   -0.3852   -1.1471 C   0  0  0  0  0  0  0  0  0  0  0  0
    0.9987   -0.4085   -2.0892 C   0  0  0  0  0  0  0  0  0  0  0  0
    2.1936   -0.9923   -1.7422 C   0  0  0  0  0  0  0  0  0  0  0  0
    2.4624   -1.5655   -0.5327 C   0  0  0  0  0  0  0  0  0  0  0  0
    3.7198   -2.1697   -0.1956 C   0  0  0  0  0  0  0  0  0  0  0  0
    3.9407   -3.2446    0.6726 C   0  0  0  0  0  0  0  0  0  0  0  0
    5.2648   -3.4659    0.6798 N   0  0  0  0  0  0  0  0  0  0  0  0
    5.8921   -2.6283   -0.1042 N   0  0  0  0  0  0  0  0  0  0  0  0
    7.3310   -2.5808   -0.3382 C   0  0  0  0  0  0  0  0  0  0  0  0
    7.9460   -1.6683    0.6629 C   0  0  0  0  0  0  0  0  0  0  0  0
    7.4128   -0.3510    0.5524 N   0  0  0  0  0  0  0  0  0  0  0  0
    7.8172    0.2938   -0.6594 C   0  0  0  0  0  0  0  0  0  0  0  0
    9.3237    0.4884   -0.7174 C   0  0  0  0  0  0  0  0  0  0  0  0
    9.8192    0.7559    0.5661 O   0  0  0  0  0  0  0  0  0  0  0  0
    8.8874    1.4322    1.3431 C   0  0  0  0  0  0  0  0  0  0  0  0
    7.7990    0.4270    1.7280 C   0  0  0  0  0  0  0  0  0  0  0  0
    4.9836   -1.8283   -0.6506 C   0  0  0  0  0  0  0  0  0  0  0  0
    1.4347   -1.5510    0.4170 C   0  0  0  0  0  0  0  0  0  0  0  0
    0.2384   -0.9581    0.0479 C   0  0  0  0  0  0  0  0  0  0  0  0
   -1.3313   -0.7166    0.9338 S   0  0  0  0  0  0  0  0  0  0  0  0
   -4.4629    0.1045   -1.8144 S   0  0  0  0  0  6  0  0  0  0  0  0
   -5.8074    0.7688   -1.9022 O   0  0  0  0  0  0  0  0  0  0  0  0
   -3.6972    0.5622   -3.0446 O   0  0  0  0  0  0  0  0  0  0  0  0
   -4.6104   -1.6433   -1.9320 C   0  0  0  0  0  0  0  0  0  0  0  0
   -5.3135   -2.2786   -0.8060 C   0  0  0  0  0  0  0  0  0  0  0  0
   -4.6304   -2.7281    0.3020 C   0  0  0  0  0  0  0  0  0  0  0  0
   -5.3051   -3.3260    1.3638 C   0  0  0  0  0  0  0  0  0  0  0  0
   -6.6738   -3.4948    1.3573 C   0  0  0  0  0  0  0  0  0  0  0  0
   -7.3956   -4.1344    2.4930 C   0  0  0  0  0  0  0  0  0  0  0  0
   -8.1983   -5.1790    2.0208 F   0  0  0  0  0  0  0  0  0  0  0  0
   -8.1962   -3.2727    3.1767 F   0  0  0  0  0  0  0  0  0  0  0  0
   -6.4845   -4.7026    3.3539 F   0  0  0  0  0  0  0  0  0  0  0  0
   -7.3616   -3.0463    0.2499 C   0  0  0  0  0  0  0  0  0  0  0  0
   -6.6943   -2.4542   -0.8018 C   0  0  0  0  0  0  0  0  0  0  0  0
   -4.0007    6.9111    1.1962 H   0  0  0  0  0  0  0  0  0  0  0  0
   -5.0458    8.2077    1.4217 H   0  0  0  0  0  0  0  0  0  0  0  0
   -6.5168    4.4573    0.8668 H   0  0  0  0  0  0  0  0  0  0  0  0
   -6.6279    4.6127   -0.9194 H   0  0  0  0  0  0  0  0  0  0  0  0
   -3.9625    4.6570    0.6436 H   0  0  0  0  0  0  0  0  0  0  0  0
   -4.1821    4.7105   -1.1163 H   0  0  0  0  0  0  0  0  0  0  0  0
   -5.5824    2.3275   -0.1627 H   0  0  0  0  0  0  0  0  0  0  0  0
   -4.0091    0.3243    0.5645 H   0  0  0  0  0  0  0  0  0  0  0  0
    0.9121    0.0097   -3.0767 H   0  0  0  0  0  0  0  0  0  0  0  0
    2.9994   -1.0000   -2.4970 H   0  0  0  0  0  0  0  0  0  0  0  0
    3.1951   -3.7868    1.2260 H   0  0  0  0  0  0  0  0  0  0  0  0
    7.7106   -3.6317   -0.1836 H   0  0  0  0  0  0  0  0  0  0  0  0
    7.5709   -2.2594   -1.3519 H   0  0  0  0  0  0  0  0  0  0  0  0
    7.6995   -2.0558    1.6739 H   0  0  0  0  0  0  0  0  0  0  0  0
    9.0577   -1.6820    0.5786 H   0  0  0  0  0  0  0  0  0  0  0  0
    7.3597    1.3212   -0.7192 H   0  0  0  0  0  0  0  0  0  0  0  0
    7.4570   -0.2664   -1.5210 H   0  0  0  0  0  0  0  0  0  0  0  0
    9.7870   -0.4249   -1.1418 H   0  0  0  0  0  0  0  0  0  0  0  0
    9.5527    1.3591   -1.3464 H   0  0  0  0  0  0  0  0  0  0  0  0
    8.4477    2.2619    0.7527 H   0  0  0  0  0  0  0  0  0  0  0  0
    9.3865    1.7655    2.2662 H   0  0  0  0  0  0  0  0  0  0  0  0
    6.9170    0.9236    2.1329 H   0  0  0  0  0  0  0  0  0  0  0  0
    8.2415   -0.2432    2.4865 H   0  0  0  0  0  0  0  0  0  0  0  0
    5.2017   -1.0316   -1.3456 H   0  0  0  0  0  0  0  0  0  0  0  0
    1.5200   -1.9649    1.3956 H   0  0  0  0  0  0  0  0  0  0  0  0
   -3.5712   -2.0673   -2.0673 H   0  0  0  0  0  0  0  0  0  0  0  0
   -5.1115   -1.8536   -2.9115 H   0  0  0  0  0  0  0  0  0  0  0  0
   -3.5562   -2.6069    0.3263 H   0  0  0  0  0  0  0  0  0  0  0  0
   -4.7722   -3.6827    2.2411 H   0  0  0  0  0  0  0  0  0  0  0  0
   -8.4406   -3.1830    0.2527 H   0  0  0  0  0  0  0  0  0  0  0  0
   -7.2228   -2.0989   -1.6751 H   0  0  0  0  0  0  0  0  0  0  0  0
  1  2  1  0
  2  3  2  0
  2  4  2  0
  2  5  1  0
  5  6  1  0
  6  7  1  0
  7  8  1  0
  8  9  2  0
  8 10  1  0
 10 11  1  0
 11 12  2  0
 12 13  1  0
 13 14  2  0
 14 15  1  0
 15 16  2  0
 16 17  1  0
 17 18  1  0
 18 19  2  0
 19 20  1  0
 20 21  1  0
 21 22  1  0
 22 23  1  0
 23 24  1  0
 24 25  1  0
 25 26  1  0
 26 27  1  0
 27 28  1  0
 20 29  1  0
 16 30  1  0
 30 31  2  0
 31 32  1  0
 10 33  1  0
 33 34  2  0
 33 35  2  0
 33 36  1  0
 36 37  1  0
 37 38  2  0
 38 39  1  0
 39 40  2  0
 40 41  1  0
 41 42  1  0
 41 43  1  0
 41 44  1  0
 40 45  1  0
 45 46  2  0
 32 11  1  0
 46 37  1  0
 31 13  1  0
 29 17  2  0
 28 23  1  0
  1 47  1  0
  1 48  1  0
  5 49  1  0
  5 50  1  0
  6 51  1  0
  6 52  1  0
  7 53  1  0
 10 54  1  0
 14 55  1  0
 15 56  1  0
 18 57  1  0
 21 58  1  0
 21 59  1  0
 22 60  1  0
 22 61  1  0
 24 62  1  0
 24 63  1  0
 25 64  1  0
 25 65  1  0
 27 66  1  0
 27 67  1  0
 28 68  1  0
 28 69  1  0
 29 70  1  0
 30 71  1  0
 36 72  1  0
 36 73  1  0
 38 74  1  0
 39 75  1  0
 45 76  1  0
 46 77  1  0
M  END
$$$$
