@<TRIPOS>MOLECULE
*****
 54 57 0 0 0
SMALL
GASTEIGER

@<TRIPOS>ATOM
      1 C           8.7442    3.4694    0.3608 C.1     1  UNL1       -0.1158
      2 C           9.0019    2.1378    0.2977 C.1     1  UNL1       -0.0647
      3 C           9.2755    0.6840    0.2238 C.3     1  UNL1        0.1513
      4 O           8.3391   -0.1893    0.6357 O.3     1  UNL1       -0.4624
      5 C           6.9226   -0.0088    0.5255 C.ar    1  UNL1        0.2344
      6 C           6.2082   -1.0574    1.1369 C.ar    1  UNL1        0.0899
      7 N           4.8610   -1.0162    0.9914 N.ar    1  UNL1       -0.2459
      8 C           4.2174   -0.0442    0.3245 C.ar    1  UNL1        0.1172
      9 C           2.7880   -0.1769   -0.0597 C.2     1  UNL1        0.1507
     10 F           2.1644    0.3955   -1.0479 F       1  UNL1       -0.2032
     11 C           2.1205   -0.9928    0.7062 C.2     1  UNL1       -0.0171
     12 C           0.8291   -1.5386    0.8537 C.ar    1  UNL1       -0.0217
     13 C           0.6037   -2.7325    1.4322 C.ar    1  UNL1       -0.0518
     14 C          -0.6597   -3.3495    1.4408 C.ar    1  UNL1       -0.0255
     15 C          -1.7296   -2.7116    0.8468 C.ar    1  UNL1        0.1289
     16 F          -2.9939   -3.1333    0.7966 F       1  UNL1       -0.2051
     17 C          -1.5445   -1.3598    0.1935 C.ar    1  UNL1        0.0158
     18 C          -2.7217   -0.6863   -0.3695 C.3     1  UNL1        0.0935
     19 C          -2.2188    0.5698   -1.1686 C.3     1  UNL1       -0.0351
     20 N          -3.2154   -1.6507   -1.3928 N.2     1  UNL1       -0.2521
     21 C          -4.3471   -1.6910   -1.8545 C.2     1  UNL1        0.1485
     22 N          -4.9713   -2.4936   -2.7596 N.pl3   1  UNL1       -0.3380
     23 S          -5.5472   -0.4294   -1.1933 S.3     1  UNL1       -0.0746
     24 C          -4.8799    0.3250    0.2570 C.3     1  UNL1        0.1052
     25 C          -5.0793    1.8315    0.4435 C.2     1  UNL1        0.2296
     26 O          -4.6111    2.4987    1.3343 O.2     1  UNL1       -0.2743
     27 N          -5.9245    2.4523   -0.5758 N.am    1  UNL1       -0.3172
     28 C          -6.2628    3.8578   -0.5926 C.3     1  UNL1        0.0001
     29 C          -4.6491   -0.5661    1.4784 C.3     1  UNL1       -0.0220
     30 C          -3.5196   -0.1595    0.6887 C.3     1  UNL1        0.0134
     31 C          -0.2962   -1.0192    0.3049 C.ar    1  UNL1       -0.0463
     32 C           4.9437    0.9910   -0.2412 C.ar    1  UNL1        0.0596
     33 N           6.3235    0.9495   -0.1077 N.ar    1  UNL1       -0.2178
     34 H           8.5495    4.3907    0.4088 H       1  UNL1        0.1229
     35 H          10.3013    0.4404    0.6818 H       1  UNL1        0.0837
     36 H           9.4666    0.5137   -0.8826 H       1  UNL1        0.0837
     37 H           6.7198   -1.7751    1.7290 H       1  UNL1        0.0884
     38 H           2.8075   -1.2267    1.6325 H       1  UNL1        0.0653
     39 H           1.4252   -3.2961    1.9191 H       1  UNL1        0.0624
     40 H          -0.7541   -4.2975    1.9307 H       1  UNL1        0.0646
     41 H          -3.1144    1.2342   -1.3695 H       1  UNL1        0.0256
     42 H          -1.7158    0.2232   -2.0827 H       1  UNL1        0.0256
     43 H          -1.5688    1.1210   -0.4906 H       1  UNL1        0.0256
     44 H          -4.5435   -3.4272   -3.1168 H       1  UNL1        0.1442
     45 H          -5.9257   -2.3339   -3.2019 H       1  UNL1        0.1442
     46 H          -6.2716    1.8162   -1.3120 H       1  UNL1        0.1484
     47 H          -7.2289    3.9559   -1.1685 H       1  UNL1        0.0426
     48 H          -6.4236    4.1667    0.4622 H       1  UNL1        0.0426
     49 H          -5.4629    4.4520   -1.1371 H       1  UNL1        0.0426
     50 H          -4.8512   -0.0334    2.4655 H       1  UNL1        0.0287
     51 H          -5.0790   -1.5738    1.4594 H       1  UNL1        0.0287
     52 H          -2.9032    0.7037    1.2473 H       1  UNL1        0.0346
     53 H          -0.0629   -0.0235   -0.2704 H       1  UNL1        0.0628
     54 H           4.4648    1.8136   -0.6984 H       1  UNL1        0.0853
@<TRIPOS>BOND
     1     1     2    3
     2     2     3    1
     3     3     4    1
     4     4     5    1
     5     5     6   ar
     6     6     7   ar
     7     7     8   ar
     8     8     9    1
     9     9    10    1
    10     9    11    2
    11    11    12    1
    12    12    13   ar
    13    13    14   ar
    14    14    15   ar
    15    15    16    1
    16    15    17   ar
    17    17    18    1
    18    18    19    1
    19    18    20    1
    20    20    21    2
    21    21    22    1
    22    21    23    1
    23    23    24    1
    24    24    25    1
    25    25    26    2
    26    25    27   am
    27    27    28    1
    28    24    29    1
    29    29    30    1
    30    17    31   ar
    31     8    32   ar
    32    32    33   ar
    33    33     5   ar
    34    31    12   ar
    35    30    18    1
    36    30    24    1
    37     1    34    1
    38     3    35    1
    39     3    36    1
    40     6    37    1
    41    11    38    1
    42    13    39    1
    43    14    40    1
    44    19    41    1
    45    19    42    1
    46    19    43    1
    47    22    44    1
    48    22    45    1
    49    27    46    1
    50    28    47    1
    51    28    48    1
    52    28    49    1
    53    29    50    1
    54    29    51    1
    55    30    52    1
    56    31    53    1
    57    32    54    1
