
     RDKit          3D

 20 20  0  0  0  0  0  0  0  0999 V2000
   -0.9722   -0.6307    1.2913 N   0  0  0  0  0  0  0  0  0  0  0  0
   -1.0726    0.2655    0.1757 C   0  0  1  0  0  0  0  0  0  0  0  0
   -0.1982   -0.2886   -0.9452 C   0  0  0  0  0  0  0  0  0  0  0  0
    1.1953   -0.3486   -0.4128 C   0  0  0  0  0  0  0  0  0  0  0  0
    2.0736   -1.3150    0.0525 C   0  0  0  0  0  0  0  0  0  0  0  0
    3.1951   -0.7360    0.3924 O   0  0  0  0  0  0  0  0  0  0  0  0
    3.1144    0.5549    0.1811 N   0  0  0  0  0  0  0  0  0  0  0  0
    1.8933    0.8519   -0.3189 C   0  0  0  0  0  0  0  0  0  0  0  0
    1.5797    2.0318   -0.6021 O   0  0  0  0  0  0  0  0  0  0  0  0
   -2.4610    0.5049   -0.2515 C   0  0  0  0  0  0  0  0  0  0  0  0
   -3.7784    0.1441    0.0668 O   0  0  0  0  0  0  0  0  0  0  0  0
   -2.5789    1.2781   -1.2145 O   0  0  0  0  0  0  0  0  0  0  0  0
   -0.0381   -1.0835    1.2953 H   0  0  0  0  0  0  0  0  0  0  0  0
   -1.7517   -1.2978    1.2581 H   0  0  0  0  0  0  0  0  0  0  0  0
   -0.6716    1.2501    0.5205 H   0  0  0  0  0  0  0  0  0  0  0  0
   -0.5206   -1.3161   -1.2151 H   0  0  0  0  0  0  0  0  0  0  0  0
   -0.2533    0.3713   -1.8265 H   0  0  0  0  0  0  0  0  0  0  0  0
    1.7029   -2.3357    0.0564 H   0  0  0  0  0  0  0  0  0  0  0  0
    3.8940    1.2122    0.3820 H   0  0  0  0  0  0  0  0  0  0  0  0
   -4.3518    0.8872    0.4638 H   0  0  0  0  0  0  0  0  0  0  0  0
  1  2  1  0
  2  3  1  0
  3  4  1  0
  4  5  2  0
  5  6  1  0
  6  7  1  0
  7  8  1  0
  8  9  2  0
  2 10  1  0
 10 11  1  0
 10 12  2  0
  8  4  1  0
  1 13  1  0
  1 14  1  0
  2 15  1  1
  3 16  1  0
  3 17  1  0
  5 18  1  0
  7 19  1  0
 11 20  1  0
M  END
$$$$
