@<TRIPOS>MOLECULE
*****
 20 20 0 0 0
SMALL
GASTEIGER

@<TRIPOS>ATOM
      1 N          -0.9722   -0.6307    1.2913 N.3     1  UNL1       -0.3181
      2 CA         -1.0726    0.2655    0.1757 C.3     1  UNL1        0.1075
      3 C          -0.1982   -0.2886   -0.9452 C.3     1  UNL1        0.0062
      4 C           1.1953   -0.3486   -0.4128 C.ar    1  UNL1        0.0586
      5 C           2.0736   -1.3150    0.0525 C.ar    1  UNL1        0.1285
      6 O           3.1951   -0.7360    0.3924 O.2     1  UNL1       -0.3846
      7 N           3.1144    0.5549    0.1811 N.ar    1  UNL1       -0.1845
      8 C           1.8933    0.8519   -0.3189 C.ar    1  UNL1        0.2833
      9 O           1.5797    2.0318   -0.6021 O.2     1  UNL1       -0.2648
     10 C          -2.4610    0.5049   -0.2515 C.2     1  UNL1        0.3220
     11 O          -3.7784    0.1441    0.0668 O.3     1  UNL1       -0.4795
     12 OXT        -2.5789    1.2781   -1.2145 O.2     1  UNL1       -0.2492
     13 H1         -0.0381   -1.0835    1.2953 H       1  UNL1        0.1190
     14 H2         -1.7517   -1.2978    1.2581 H       1  UNL1        0.1190
     15 HA         -0.6716    1.2501    0.5205 H       1  UNL1        0.0577
     16 H          -0.5206   -1.3161   -1.2151 H       1  UNL1        0.0336
     17 H          -0.2533    0.3713   -1.8265 H       1  UNL1        0.0336
     18 H           1.7029   -2.3357    0.0564 H       1  UNL1        0.1060
     19 H           3.8940    1.2122    0.3820 H       1  UNL1        0.2107
     20 H          -4.3518    0.8872    0.4638 H       1  UNL1        0.2951
@<TRIPOS>BOND
     1     1     2    1
     2     2     3    1
     3     3     4    1
     4     4     5   ar
     5     5     6   ar
     6     6     7   ar
     7     7     8   ar
     8     8     9    2
     9     2    10    1
    10    10    11    1
    11    10    12    2
    12     8     4   ar
    13     1    13    1
    14     1    14    1
    15     2    15    1
    16     3    16    1
    17     3    17    1
    18     5    18    1
    19     7    19    1
    20    11    20    1
