@<TRIPOS>MOLECULE
*****
 52 57 0 0 0
SMALL
GASTEIGER

@<TRIPOS>ATOM
      1 C           3.7658    1.4737    1.8685 C.3     1  UNL1       -0.0203
      2 C           3.3711    0.3958    0.8873 C.ar    1  UNL1        0.0660
      3 N           4.2630   -0.3972    0.2218 N.ar    1  UNL1       -0.1752
      4 N           3.6362   -1.2477   -0.5680 N.ar    1  UNL1       -0.2556
      5 C           4.2404   -2.2542   -1.4382 C.3     1  UNL1        0.0537
      6 C           3.9232   -3.6989   -1.0184 C.3     1  UNL1       -0.0285
      7 C           5.3490   -3.1327   -0.8190 C.3     1  UNL1       -0.0285
      8 C           2.3177   -1.0288   -0.4356 C.ar    1  UNL1        0.1297
      9 C           2.1311    0.0012    0.4750 C.ar    1  UNL1        0.0305
     10 C           0.6913    0.2580    0.6194 C.3     1  UNL1        0.0881
     11 C           0.3302    1.6641    0.3477 C.ar    1  UNL1        0.0131
     12 C          -0.1083    2.0360   -0.9239 C.ar    1  UNL1       -0.0523
     13 C          -0.4461    3.3230   -1.2476 C.ar    1  UNL1       -0.0429
     14 C          -0.3417    4.2910   -0.2525 C.ar    1  UNL1        0.0437
     15 CL         -0.7587    5.9549   -0.6046 Cl      1  UNL1       -0.0835
     16 C           0.0831    3.9850    1.0155 C.ar    1  UNL1       -0.0078
     17 C           0.4124    2.6639    1.2883 C.ar    1  UNL1        0.1300
     18 F           0.8147    2.3725    2.5388 F       1  UNL1       -0.2051
     19 N          -0.0033   -0.6778   -0.2072 N.am    1  UNL1       -0.2530
     20 C          -1.4115   -0.7849   -0.3270 C.ar    1  UNL1        0.0545
     21 C          -2.0583   -1.6690   -1.1580 C.ar    1  UNL1       -0.0324
     22 C          -3.4403   -1.7601   -1.2540 C.ar    1  UNL1       -0.0041
     23 C          -4.1001   -2.7324   -2.1667 C.3     1  UNL1       -0.0361
     24 C          -4.1762   -0.9077   -0.4637 C.ar    1  UNL1        0.1641
     25 N          -5.5085   -0.7482   -0.3258 N.ar    1  UNL1       -0.1292
     26 N          -5.7425    0.2097    0.5667 N.ar    1  UNL1       -0.1340
     27 C          -4.5457    0.6582    0.9955 C.ar    1  UNL1        0.1347
     28 C          -4.2792    1.7219    1.9904 C.3     1  UNL1       -0.0041
     29 N          -3.5907   -0.0289    0.3618 N.ar    1  UNL1       -0.2846
     30 C          -2.2576    0.0336    0.4308 C.ar    1  UNL1        0.0344
     31 C           0.9681   -1.4513   -0.8625 C.2     1  UNL1        0.2700
     32 O           0.8291   -2.3800   -1.6972 O.2     1  UNL1       -0.2679
     33 H           3.3978    1.2263    2.8723 H       1  UNL1        0.0293
     34 H           3.3166    2.4131    1.5309 H       1  UNL1        0.0293
     35 H           4.8671    1.5829    1.8757 H       1  UNL1        0.0293
     36 H           4.3308   -2.0544   -2.5092 H       1  UNL1        0.0545
     37 H           3.3017   -3.8386   -0.1129 H       1  UNL1        0.0286
     38 H           3.8001   -4.4333   -1.8415 H       1  UNL1        0.0286
     39 H           6.1342   -3.5046   -1.5042 H       1  UNL1        0.0286
     40 H           5.6241   -2.9188    0.2207 H       1  UNL1        0.0286
     41 H           0.3357    0.0611    1.6756 H       1  UNL1        0.0607
     42 H          -0.1758    1.2622   -1.6643 H       1  UNL1        0.0622
     43 H          -0.7848    3.6480   -2.2053 H       1  UNL1        0.0632
     44 H           0.1569    4.7615    1.7793 H       1  UNL1        0.0661
     45 H          -1.4670   -2.3349   -1.7755 H       1  UNL1        0.0640
     46 H          -4.7319   -3.4171   -1.6043 H       1  UNL1        0.0279
     47 H          -4.7504   -2.2015   -2.9116 H       1  UNL1        0.0279
     48 H          -3.3142   -3.2327   -2.7731 H       1  UNL1        0.0279
     49 H          -3.2081    1.9565    2.0548 H       1  UNL1        0.0308
     50 H          -4.6215    1.4348    3.0072 H       1  UNL1        0.0308
     51 H          -4.7816    2.6923    1.7036 H       1  UNL1        0.0308
     52 H          -1.7875    0.7540    1.1132 H       1  UNL1        0.0833
@<TRIPOS>BOND
     1     1     2    1
     2     2     3   ar
     3     3     4   ar
     4     4     5    1
     5     5     6    1
     6     6     7    1
     7     4     8   ar
     8     8     9   ar
     9     9    10    1
    10    10    11    1
    11    11    12   ar
    12    12    13   ar
    13    13    14   ar
    14    14    15    1
    15    14    16   ar
    16    16    17   ar
    17    17    18    1
    18    10    19    1
    19    19    20    1
    20    20    21   ar
    21    21    22   ar
    22    22    23    1
    23    22    24   ar
    24    24    25   ar
    25    25    26   ar
    26    26    27   ar
    27    27    28    1
    28    27    29   ar
    29    29    30   ar
    30    19    31   am
    31    31    32    2
    32     9     2   ar
    33    17    11   ar
    34    30    20   ar
    35     7     5    1
    36    31     8    1
    37    29    24   ar
    38     1    33    1
    39     1    34    1
    40     1    35    1
    41     5    36    1
    42     6    37    1
    43     6    38    1
    44     7    39    1
    45     7    40    1
    46    10    41    1
    47    12    42    1
    48    13    43    1
    49    16    44    1
    50    21    45    1
    51    23    46    1
    52    23    47    1
    53    23    48    1
    54    28    49    1
    55    28    50    1
    56    28    51    1
    57    30    52    1
