
     RDKit          3D

 52 57  0  0  0  0  0  0  0  0999 V2000
    3.7658    1.4737    1.8685 C   0  0  0  0  0  0  0  0  0  0  0  0
    3.3711    0.3958    0.8873 C   0  0  0  0  0  0  0  0  0  0  0  0
    4.2630   -0.3972    0.2218 N   0  0  0  0  0  0  0  0  0  0  0  0
    3.6362   -1.2477   -0.5680 N   0  0  0  0  0  0  0  0  0  0  0  0
    4.2404   -2.2542   -1.4382 C   0  0  0  0  0  0  0  0  0  0  0  0
    3.9232   -3.6989   -1.0184 C   0  0  0  0  0  0  0  0  0  0  0  0
    5.3490   -3.1327   -0.8190 C   0  0  0  0  0  0  0  0  0  0  0  0
    2.3177   -1.0288   -0.4356 C   0  0  0  0  0  0  0  0  0  0  0  0
    2.1311    0.0012    0.4750 C   0  0  0  0  0  0  0  0  0  0  0  0
    0.6913    0.2580    0.6194 C   0  0  1  0  0  0  0  0  0  0  0  0
    0.3302    1.6641    0.3477 C   0  0  0  0  0  0  0  0  0  0  0  0
   -0.1083    2.0360   -0.9239 C   0  0  0  0  0  0  0  0  0  0  0  0
   -0.4461    3.3230   -1.2476 C   0  0  0  0  0  0  0  0  0  0  0  0
   -0.3417    4.2910   -0.2525 C   0  0  0  0  0  0  0  0  0  0  0  0
   -0.7587    5.9549   -0.6046 Cl  0  0  0  0  0  0  0  0  0  0  0  0
    0.0831    3.9850    1.0155 C   0  0  0  0  0  0  0  0  0  0  0  0
    0.4124    2.6639    1.2883 C   0  0  0  0  0  0  0  0  0  0  0  0
    0.8147    2.3725    2.5388 F   0  0  0  0  0  0  0  0  0  0  0  0
   -0.0033   -0.6778   -0.2072 N   0  0  0  0  0  0  0  0  0  0  0  0
   -1.4115   -0.7849   -0.3270 C   0  0  0  0  0  0  0  0  0  0  0  0
   -2.0583   -1.6690   -1.1580 C   0  0  0  0  0  0  0  0  0  0  0  0
   -3.4403   -1.7601   -1.2540 C   0  0  0  0  0  0  0  0  0  0  0  0
   -4.1001   -2.7324   -2.1667 C   0  0  0  0  0  0  0  0  0  0  0  0
   -4.1762   -0.9077   -0.4637 C   0  0  0  0  0  0  0  0  0  0  0  0
   -5.5085   -0.7482   -0.3258 N   0  0  0  0  0  0  0  0  0  0  0  0
   -5.7425    0.2097    0.5667 N   0  0  0  0  0  0  0  0  0  0  0  0
   -4.5457    0.6582    0.9955 C   0  0  0  0  0  0  0  0  0  0  0  0
   -4.2792    1.7219    1.9904 C   0  0  0  0  0  0  0  0  0  0  0  0
   -3.5907   -0.0289    0.3618 N   0  0  0  0  0  0  0  0  0  0  0  0
   -2.2576    0.0336    0.4308 C   0  0  0  0  0  0  0  0  0  0  0  0
    0.9681   -1.4513   -0.8625 C   0  0  0  0  0  0  0  0  0  0  0  0
    0.8291   -2.3800   -1.6972 O   0  0  0  0  0  0  0  0  0  0  0  0
    3.3978    1.2263    2.8723 H   0  0  0  0  0  0  0  0  0  0  0  0
    3.3166    2.4131    1.5309 H   0  0  0  0  0  0  0  0  0  0  0  0
    4.8671    1.5829    1.8757 H   0  0  0  0  0  0  0  0  0  0  0  0
    4.3308   -2.0544   -2.5092 H   0  0  0  0  0  0  0  0  0  0  0  0
    3.3017   -3.8386   -0.1129 H   0  0  0  0  0  0  0  0  0  0  0  0
    3.8001   -4.4333   -1.8415 H   0  0  0  0  0  0  0  0  0  0  0  0
    6.1342   -3.5046   -1.5042 H   0  0  0  0  0  0  0  0  0  0  0  0
    5.6241   -2.9188    0.2207 H   0  0  0  0  0  0  0  0  0  0  0  0
    0.3357    0.0611    1.6756 H   0  0  0  0  0  0  0  0  0  0  0  0
   -0.1758    1.2622   -1.6643 H   0  0  0  0  0  0  0  0  0  0  0  0
   -0.7848    3.6480   -2.2053 H   0  0  0  0  0  0  0  0  0  0  0  0
    0.1569    4.7615    1.7793 H   0  0  0  0  0  0  0  0  0  0  0  0
   -1.4670   -2.3349   -1.7755 H   0  0  0  0  0  0  0  0  0  0  0  0
   -4.7319   -3.4171   -1.6043 H   0  0  0  0  0  0  0  0  0  0  0  0
   -4.7504   -2.2015   -2.9116 H   0  0  0  0  0  0  0  0  0  0  0  0
   -3.3142   -3.2327   -2.7731 H   0  0  0  0  0  0  0  0  0  0  0  0
   -3.2081    1.9565    2.0548 H   0  0  0  0  0  0  0  0  0  0  0  0
   -4.6215    1.4348    3.0072 H   0  0  0  0  0  0  0  0  0  0  0  0
   -4.7816    2.6923    1.7036 H   0  0  0  0  0  0  0  0  0  0  0  0
   -1.7875    0.7540    1.1132 H   0  0  0  0  0  0  0  0  0  0  0  0
  1  2  1  0
  2  3  2  0
  3  4  1  0
  4  5  1  0
  5  6  1  0
  6  7  1  0
  4  8  1  0
  8  9  2  0
  9 10  1  0
 10 11  1  0
 11 12  2  0
 12 13  1  0
 13 14  2  0
 14 15  1  0
 14 16  1  0
 16 17  2  0
 17 18  1  0
 10 19  1  0
 19 20  1  0
 20 21  1  0
 21 22  2  0
 22 23  1  0
 22 24  1  0
 24 25  2  0
 25 26  1  0
 26 27  2  0
 27 28  1  0
 27 29  1  0
 29 30  1  0
 19 31  1  0
 31 32  2  0
  9  2  1  0
 17 11  1  0
 30 20  2  0
  7  5  1  0
 31  8  1  0
 29 24  1  0
  1 33  1  0
  1 34  1  0
  1 35  1  0
  5 36  1  0
  6 37  1  0
  6 38  1  0
  7 39  1  0
  7 40  1  0
 10 41  1  1
 12 42  1  0
 13 43  1  0
 16 44  1  0
 21 45  1  0
 23 46  1  0
 23 47  1  0
 23 48  1  0
 28 49  1  0
 28 50  1  0
 28 51  1  0
 30 52  1  0
M  END
$$$$
