@<TRIPOS>MOLECULE
*****
 57 60 0 0 0
SMALL
GASTEIGER

@<TRIPOS>ATOM
      1 C          -1.8181    4.4018    1.0924 C.3     1  UNL1       -0.0611
      2 C          -1.1538    4.5531   -0.2461 C.3     1  UNL1       -0.0255
      3 C          -0.0364    3.5847   -0.3229 C.ar    1  UNL1        0.0164
      4 C           1.2916    3.9370   -0.2242 C.ar    1  UNL1        0.0551
      5 N           2.0393    2.8227   -0.3498 N.ar    1  UNL1       -0.1714
      6 N           1.2262    1.7955   -0.5224 N.ar    1  UNL1       -0.2003
      7 C           1.4841    0.4877   -0.6963 C.ar    1  UNL1        0.1260
      8 N           2.8013   -0.0685   -0.6973 N.pl3   1  UNL1       -0.3246
      9 C           3.1701   -0.9946    0.3252 C.3     1  UNL1        0.0413
     10 C           4.5756   -1.4386    0.2204 C.ar    1  UNL1        0.0344
     11 C           4.8883   -2.5107   -0.5873 C.ar    1  UNL1       -0.0458
     12 C           6.1968   -2.9143   -0.6459 C.ar    1  UNL1        0.0037
     13 C           7.1407   -2.2488    0.0899 C.ar    1  UNL1        0.1828
     14 N           6.8247   -1.2016    0.8765 N.ar    1  UNL1       -0.1771
     15 O           7.8241   -0.5904    1.5843 O.co2   1  UNL1       -0.6198
     16 C           5.5411   -0.7833    0.9525 C.ar    1  UNL1        0.1875
     17 C           0.4208   -0.3643   -0.8559 C.ar    1  UNL1        0.0182
     18 C          -0.9165    0.0528   -0.8474 C.ar    1  UNL1        0.1271
     19 N          -1.9632   -0.8661   -1.0268 N.pl3   1  UNL1       -0.3119
     20 C          -1.7606   -2.1044   -1.7413 C.3     1  UNL1        0.0138
     21 C          -2.2998   -3.2461   -0.9120 C.3     1  UNL1       -0.0371
     22 C          -2.6177   -2.8273    0.4989 C.3     1  UNL1       -0.0500
     23 C          -3.4906   -1.6385    0.6225 C.3     1  UNL1       -0.0342
     24 C          -3.2664   -0.6325   -0.4939 C.3     1  UNL1        0.0269
     25 C          -3.5165    0.7737    0.0006 C.3     1  UNL1       -0.0110
     26 C          -4.9534    0.8553    0.5420 C.3     1  UNL1        0.0459
     27 O          -5.8921    0.5639   -0.4257 O.3     1  UNL1       -0.3949
     28 N          -1.1033    1.3708   -0.6700 N.ar    1  UNL1       -0.2127
     29 C          -0.0731    2.2166   -0.5130 C.ar    1  UNL1        0.1627
     30 H          -2.8845    4.7104    0.9971 H       1  UNL1        0.0233
     31 H          -1.2997    4.9574    1.8979 H       1  UNL1        0.0233
     32 H          -1.8340    3.3238    1.4316 H       1  UNL1        0.0233
     33 H          -0.7497    5.6069   -0.2700 H       1  UNL1        0.0312
     34 H          -1.8431    4.4773   -1.1038 H       1  UNL1        0.0312
     35 H           1.7194    4.9236   -0.0719 H       1  UNL1        0.0851
     36 H           3.4504    0.2181   -1.4447 H       1  UNL1        0.1478
     37 H           3.0359   -0.5263    1.3345 H       1  UNL1        0.0513
     38 H           2.4881   -1.8923    0.2732 H       1  UNL1        0.0513
     39 H           4.1338   -3.0455   -1.1790 H       1  UNL1        0.0625
     40 H           6.4614   -3.7440   -1.2675 H       1  UNL1        0.0677
     41 H           8.1806   -2.5628    0.0517 H       1  UNL1        0.1389
     42 H           5.3356    0.0583    1.5954 H       1  UNL1        0.1393
     43 H           0.6502   -1.4255   -0.9937 H       1  UNL1        0.0686
     44 H          -2.4392   -2.0270   -2.6465 H       1  UNL1        0.0464
     45 H          -0.7669   -2.2531   -2.1505 H       1  UNL1        0.0464
     46 H          -1.5040   -4.0140   -0.8568 H       1  UNL1        0.0280
     47 H          -3.2030   -3.6799   -1.3568 H       1  UNL1        0.0280
     48 H          -3.1387   -3.6993    0.9731 H       1  UNL1        0.0266
     49 H          -1.6809   -2.6902    1.1078 H       1  UNL1        0.0266
     50 H          -3.2688   -1.0614    1.5694 H       1  UNL1        0.0283
     51 H          -4.5713   -1.8913    0.7118 H       1  UNL1        0.0283
     52 H          -4.0722   -0.8461   -1.2409 H       1  UNL1        0.0501
     53 H          -2.8560    0.9681    0.8478 H       1  UNL1        0.0305
     54 H          -3.4521    1.5349   -0.7782 H       1  UNL1        0.0305
     55 H          -5.0965    0.1309    1.3716 H       1  UNL1        0.0558
     56 H          -5.1509    1.8589    0.9358 H       1  UNL1        0.0558
     57 H          -6.2070   -0.3955   -0.3690 H       1  UNL1        0.2094
@<TRIPOS>UNITY_ATOM_ATTR
14 1
charge 1
15 1
charge -1
@<TRIPOS>BOND
     1     1     2    1
     2     2     3    1
     3     3     4   ar
     4     4     5   ar
     5     5     6   ar
     6     6     7   ar
     7     7     8    1
     8     8     9    1
     9     9    10    1
    10    10    11   ar
    11    11    12   ar
    12    12    13   ar
    13    13    14   ar
    14    14    15    1
    15    14    16   ar
    16     7    17   ar
    17    17    18   ar
    18    18    19    1
    19    19    20    1
    20    20    21    1
    21    21    22    1
    22    22    23    1
    23    23    24    1
    24    24    25    1
    25    25    26    1
    26    26    27    1
    27    18    28   ar
    28    28    29   ar
    29    29     3   ar
    30    29     6   ar
    31    16    10   ar
    32    24    19    1
    33     1    30    1
    34     1    31    1
    35     1    32    1
    36     2    33    1
    37     2    34    1
    38     4    35    1
    39     8    36    1
    40     9    37    1
    41     9    38    1
    42    11    39    1
    43    12    40    1
    44    13    41    1
    45    16    42    1
    46    17    43    1
    47    20    44    1
    48    20    45    1
    49    21    46    1
    50    21    47    1
    51    22    48    1
    52    22    49    1
    53    23    50    1
    54    23    51    1
    55    24    52    1
    56    25    53    1
    57    25    54    1
    58    26    55    1
    59    26    56    1
    60    27    57    1
