
     RDKit          3D

 57 60  0  0  0  0  0  0  0  0999 V2000
   -1.8181    4.4018    1.0924 C   0  0  0  0  0  0  0  0  0  0  0  0
   -1.1538    4.5531   -0.2461 C   0  0  0  0  0  0  0  0  0  0  0  0
   -0.0364    3.5847   -0.3229 C   0  0  0  0  0  0  0  0  0  0  0  0
    1.2916    3.9370   -0.2242 C   0  0  0  0  0  0  0  0  0  0  0  0
    2.0393    2.8227   -0.3498 N   0  0  0  0  0  0  0  0  0  0  0  0
    1.2262    1.7955   -0.5224 N   0  0  0  0  0  0  0  0  0  0  0  0
    1.4841    0.4877   -0.6963 C   0  0  0  0  0  0  0  0  0  0  0  0
    2.8013   -0.0685   -0.6973 N   0  0  0  0  0  0  0  0  0  0  0  0
    3.1701   -0.9946    0.3252 C   0  0  0  0  0  0  0  0  0  0  0  0
    4.5756   -1.4386    0.2204 C   0  0  0  0  0  0  0  0  0  0  0  0
    4.8883   -2.5107   -0.5873 C   0  0  0  0  0  0  0  0  0  0  0  0
    6.1968   -2.9143   -0.6459 C   0  0  0  0  0  0  0  0  0  0  0  0
    7.1407   -2.2488    0.0899 C   0  0  0  0  0  0  0  0  0  0  0  0
    6.8247   -1.2016    0.8765 N   0  0  0  0  0  4  0  0  0  0  0  0
    7.8241   -0.5904    1.5843 O   0  0  0  0  0  1  0  0  0  0  0  0
    5.5411   -0.7833    0.9525 C   0  0  0  0  0  0  0  0  0  0  0  0
    0.4208   -0.3643   -0.8559 C   0  0  0  0  0  0  0  0  0  0  0  0
   -0.9165    0.0528   -0.8474 C   0  0  0  0  0  0  0  0  0  0  0  0
   -1.9632   -0.8661   -1.0268 N   0  0  0  0  0  0  0  0  0  0  0  0
   -1.7606   -2.1044   -1.7413 C   0  0  0  0  0  0  0  0  0  0  0  0
   -2.2998   -3.2461   -0.9120 C   0  0  0  0  0  0  0  0  0  0  0  0
   -2.6177   -2.8273    0.4989 C   0  0  0  0  0  0  0  0  0  0  0  0
   -3.4906   -1.6385    0.6225 C   0  0  0  0  0  0  0  0  0  0  0  0
   -3.2664   -0.6325   -0.4939 C   0  0  1  0  0  0  0  0  0  0  0  0
   -3.5165    0.7737    0.0006 C   0  0  0  0  0  0  0  0  0  0  0  0
   -4.9534    0.8553    0.5420 C   0  0  0  0  0  0  0  0  0  0  0  0
   -5.8921    0.5639   -0.4257 O   0  0  0  0  0  0  0  0  0  0  0  0
   -1.1033    1.3708   -0.6700 N   0  0  0  0  0  0  0  0  0  0  0  0
   -0.0731    2.2166   -0.5130 C   0  0  0  0  0  0  0  0  0  0  0  0
   -2.8845    4.7104    0.9971 H   0  0  0  0  0  0  0  0  0  0  0  0
   -1.2997    4.9574    1.8979 H   0  0  0  0  0  0  0  0  0  0  0  0
   -1.8340    3.3238    1.4316 H   0  0  0  0  0  0  0  0  0  0  0  0
   -0.7497    5.6069   -0.2700 H   0  0  0  0  0  0  0  0  0  0  0  0
   -1.8431    4.4773   -1.1038 H   0  0  0  0  0  0  0  0  0  0  0  0
    1.7194    4.9236   -0.0719 H   0  0  0  0  0  0  0  0  0  0  0  0
    3.4504    0.2181   -1.4447 H   0  0  0  0  0  0  0  0  0  0  0  0
    3.0359   -0.5263    1.3345 H   0  0  0  0  0  0  0  0  0  0  0  0
    2.4881   -1.8923    0.2732 H   0  0  0  0  0  0  0  0  0  0  0  0
    4.1338   -3.0455   -1.1790 H   0  0  0  0  0  0  0  0  0  0  0  0
    6.4614   -3.7440   -1.2675 H   0  0  0  0  0  0  0  0  0  0  0  0
    8.1806   -2.5628    0.0517 H   0  0  0  0  0  0  0  0  0  0  0  0
    5.3356    0.0583    1.5954 H   0  0  0  0  0  0  0  0  0  0  0  0
    0.6502   -1.4255   -0.9937 H   0  0  0  0  0  0  0  0  0  0  0  0
   -2.4392   -2.0270   -2.6465 H   0  0  0  0  0  0  0  0  0  0  0  0
   -0.7669   -2.2531   -2.1505 H   0  0  0  0  0  0  0  0  0  0  0  0
   -1.5040   -4.0140   -0.8568 H   0  0  0  0  0  0  0  0  0  0  0  0
   -3.2030   -3.6799   -1.3568 H   0  0  0  0  0  0  0  0  0  0  0  0
   -3.1387   -3.6993    0.9731 H   0  0  0  0  0  0  0  0  0  0  0  0
   -1.6809   -2.6902    1.1078 H   0  0  0  0  0  0  0  0  0  0  0  0
   -3.2688   -1.0614    1.5694 H   0  0  0  0  0  0  0  0  0  0  0  0
   -4.5713   -1.8913    0.7118 H   0  0  0  0  0  0  0  0  0  0  0  0
   -4.0722   -0.8461   -1.2409 H   0  0  0  0  0  0  0  0  0  0  0  0
   -2.8560    0.9681    0.8478 H   0  0  0  0  0  0  0  0  0  0  0  0
   -3.4521    1.5349   -0.7782 H   0  0  0  0  0  0  0  0  0  0  0  0
   -5.0965    0.1309    1.3716 H   0  0  0  0  0  0  0  0  0  0  0  0
   -5.1509    1.8589    0.9358 H   0  0  0  0  0  0  0  0  0  0  0  0
   -6.2070   -0.3955   -0.3690 H   0  0  0  0  0  0  0  0  0  0  0  0
  1  2  1  0
  2  3  1  0
  3  4  1  0
  4  5  2  0
  5  6  1  0
  6  7  1  0
  7  8  1  0
  8  9  1  0
  9 10  1  0
 10 11  2  0
 11 12  1  0
 12 13  2  0
 13 14  1  0
 14 15  1  0
 14 16  2  0
  7 17  2  0
 17 18  1  0
 18 19  1  0
 19 20  1  0
 20 21  1  0
 21 22  1  0
 22 23  1  0
 23 24  1  0
 24 25  1  0
 25 26  1  0
 26 27  1  0
 18 28  2  0
 28 29  1  0
 29  3  2  0
 29  6  1  0
 16 10  1  0
 24 19  1  0
  1 30  1  0
  1 31  1  0
  1 32  1  0
  2 33  1  0
  2 34  1  0
  4 35  1  0
  8 36  1  0
  9 37  1  0
  9 38  1  0
 11 39  1  0
 12 40  1  0
 13 41  1  0
 16 42  1  0
 17 43  1  0
 20 44  1  0
 20 45  1  0
 21 46  1  0
 21 47  1  0
 22 48  1  0
 22 49  1  0
 23 50  1  0
 23 51  1  0
 24 52  1  6
 25 53  1  0
 25 54  1  0
 26 55  1  0
 26 56  1  0
 27 57  1  0
M  CHG  2  14   1  15  -1
M  END
$$$$
