@<TRIPOS>MOLECULE
*****
 56 60 0 0 0
SMALL
GASTEIGER

@<TRIPOS>ATOM
      1 O           2.6316   -3.5096    0.5253 O.2     1  UNL1       -0.2705
      2 C           2.7160   -2.2633    0.4282 C.2     1  UNL1        0.2411
      3 C           4.0733   -1.6953    0.4458 C.2     1  UNL1        0.0011
      4 C           4.3786   -0.4448    0.3580 C.2     1  UNL1       -0.0469
      5 C           5.6510    0.2398    0.3587 C.ar    1  UNL1        0.0146
      6 CA          5.8124    1.6286    0.4545 C.ar    1  UNL1        0.1325
      7 C           4.7479    2.6026    0.6143 C.2     1  UNL1        0.3539
      8 O           5.0423    3.8427    0.6886 O.2     1  UNL1       -0.2435
      9 OXT         3.4170    2.3097    0.6965 O.3     1  UNL1       -0.4761
     10 N           7.1281    1.9070    0.3813 N.ar    1  UNL1       -0.3474
     11 C           7.8666    0.8089    0.2430 C.ar    1  UNL1        0.0662
     12 C           9.2199    0.5685    0.1181 C.ar    1  UNL1        0.0648
     13 CL         10.3373    1.9419    0.1471 Cl      1  UNL1       -0.0814
     14 C           9.7121   -0.7076   -0.0271 C.ar    1  UNL1       -0.0414
     15 C           8.8236   -1.7368   -0.0452 C.ar    1  UNL1       -0.0597
     16 C           7.4541   -1.5207    0.0791 C.ar    1  UNL1       -0.0519
     17 C           6.9470   -0.2493    0.2267 C.ar    1  UNL1        0.0091
     18 N           1.5311   -1.5183    0.3122 N.am    1  UNL1       -0.2820
     19 C           0.2025   -1.9967    0.2886 C.ar    1  UNL1        0.0342
     20 C          -0.1270   -3.3064    0.3793 C.ar    1  UNL1       -0.0404
     21 C          -1.4377   -3.7718    0.3555 C.ar    1  UNL1       -0.0595
     22 C          -2.4363   -2.8157    0.2311 C.ar    1  UNL1       -0.0545
     23 C          -2.1689   -1.4806    0.1354 C.ar    1  UNL1       -0.0232
     24 C          -3.2187   -0.4718    0.0043 C.2     1  UNL1       -0.0525
     25 C          -4.5068   -0.7092   -0.0369 C.2     1  UNL1       -0.0357
     26 C          -5.5232    0.3129   -0.1675 C.ar    1  UNL1        0.0646
     27 C          -5.2013    1.6348   -0.2596 C.ar    1  UNL1       -0.0357
     28 C          -6.2147    2.6041   -0.3858 C.ar    1  UNL1       -0.0506
     29 C          -7.5401    2.2337   -0.4180 C.ar    1  UNL1        0.0005
     30 C          -8.5176    3.1969   -0.5420 C.ar    1  UNL1       -0.0512
     31 C          -9.8307    2.7868   -0.5703 C.ar    1  UNL1       -0.0427
     32 C         -10.1467    1.4591   -0.4775 C.ar    1  UNL1        0.0430
     33 CL        -11.8395    0.9714   -0.5174 Cl      1  UNL1       -0.0835
     34 C          -9.1489    0.5204   -0.3545 C.ar    1  UNL1       -0.0174
     35 C          -7.8202    0.8850   -0.3217 C.ar    1  UNL1        0.0730
     36 N          -6.8241   -0.0133   -0.2021 N.ar    1  UNL1       -0.2472
     37 C          -0.8473   -1.0734    0.1644 C.ar    1  UNL1       -0.0333
     38 H           4.8589   -2.4024    0.5698 H       1  UNL1        0.0670
     39 H           3.4951    0.2178    0.2435 H       1  UNL1        0.0626
     40 HXT         2.7248    2.8482    1.1980 H       1  UNL1        0.2955
     41 H           7.5091    2.8718    0.4287 H       1  UNL1        0.1662
     42 H          10.8008   -0.8850   -0.1259 H       1  UNL1        0.0633
     43 H           9.1747   -2.7431   -0.1575 H       1  UNL1        0.0618
     44 H           6.7818   -2.3449    0.0449 H       1  UNL1        0.0624
     45 H           1.6785   -0.4456    0.2325 H       1  UNL1        0.1551
     46 H           0.6067   -4.0925    0.4775 H       1  UNL1        0.0636
     47 H          -1.6430   -4.8260    0.4313 H       1  UNL1        0.0618
     48 H          -3.4801   -3.1514    0.2093 H       1  UNL1        0.0623
     49 H          -2.9235    0.5916   -0.0681 H       1  UNL1        0.0624
     50 H          -4.8233   -1.7583    0.0333 H       1  UNL1        0.0639
     51 H          -4.1983    2.0299   -0.2446 H       1  UNL1        0.0639
     52 H          -5.9745    3.6525   -0.4596 H       1  UNL1        0.0625
     53 H          -8.2769    4.2455   -0.6157 H       1  UNL1        0.0625
     54 H         -10.5963    3.5590   -0.6689 H       1  UNL1        0.0632
     55 H          -9.4307   -0.5101   -0.2842 H       1  UNL1        0.0653
     56 H          -0.6264   -0.0274    0.0900 H       1  UNL1        0.0642
@<TRIPOS>BOND
     1     1     2    2
     2     2     3    1
     3     3     4    2
     4     4     5    1
     5     5     6   ar
     6     6     7    1
     7     7     8    2
     8     7     9    1
     9     6    10   ar
    10    10    11   ar
    11    11    12   ar
    12    12    13    1
    13    12    14   ar
    14    14    15   ar
    15    15    16   ar
    16    16    17   ar
    17     2    18   am
    18    18    19    1
    19    19    20   ar
    20    20    21   ar
    21    21    22   ar
    22    22    23   ar
    23    23    24    1
    24    24    25    2
    25    25    26    1
    26    26    27   ar
    27    27    28   ar
    28    28    29   ar
    29    29    30   ar
    30    30    31   ar
    31    31    32   ar
    32    32    33    1
    33    32    34   ar
    34    34    35   ar
    35    35    36   ar
    36    23    37   ar
    37    17     5   ar
    38    37    19   ar
    39    17    11   ar
    40    36    26   ar
    41    35    29   ar
    42     3    38    1
    43     4    39    1
    44     9    40    1
    45    10    41    1
    46    14    42    1
    47    15    43    1
    48    16    44    1
    49    18    45    1
    50    20    46    1
    51    21    47    1
    52    22    48    1
    53    24    49    1
    54    25    50    1
    55    27    51    1
    56    28    52    1
    57    30    53    1
    58    31    54    1
    59    34    55    1
    60    37    56    1
