@<TRIPOS>MOLECULE
*****
 63 69 0 0 0
SMALL
GASTEIGER

@<TRIPOS>ATOM
      1 N           1.5497    1.9182    1.4123 N.pl3   1  UNL1       -0.3414
      2 C           0.2708    2.0165    0.7826 C.ar    1  UNL1        0.1424
      3 N          -0.3171    3.2228    0.8782 N.ar    1  UNL1       -0.2371
      4 C          -1.5209    3.3893    0.3418 C.ar    1  UNL1        0.0463
      5 C          -2.1313    2.3281   -0.2934 C.ar    1  UNL1        0.0297
      6 N          -1.5738    1.1177   -0.4040 N.ar    1  UNL1       -0.2982
      7 C          -0.3550    0.9693    0.1436 C.ar    1  UNL1        0.1135
      8 C           0.0454   -0.3537   -0.0742 C.ar    1  UNL1        0.1002
      9 C           1.2913   -0.9591    0.3820 C.ar    1  UNL1        0.0046
     10 C           1.2973   -2.1093    1.1450 C.ar    1  UNL1       -0.0518
     11 C           2.4697   -2.6950    1.5729 C.ar    1  UNL1       -0.0519
     12 C           3.6812   -2.1126    1.2279 C.ar    1  UNL1        0.0005
     13 C           4.8842   -2.6238    1.6243 C.ar    1  UNL1       -0.0505
     14 C           6.0592   -1.9808    1.2526 C.ar    1  UNL1       -0.0351
     15 C           6.0670   -0.8402    0.4953 C.ar    1  UNL1        0.0717
     16 C           7.2717   -0.1301    0.0874 C.ar    1  UNL1        0.0004
     17 C           8.5247   -0.5548    0.4389 C.ar    1  UNL1       -0.0526
     18 C           9.6870    0.1205    0.0518 C.ar    1  UNL1       -0.0611
     19 C           9.6076    1.2532   -0.7085 C.ar    1  UNL1       -0.0617
     20 C           8.3522    1.6949   -1.0721 C.ar    1  UNL1       -0.0611
     21 C           7.2087    1.0179   -0.6827 C.ar    1  UNL1       -0.0526
     22 N           4.8438   -0.3640    0.1202 N.ar    1  UNL1       -0.2467
     23 C           3.6981   -0.9557    0.4597 C.ar    1  UNL1        0.0723
     24 C           2.4856   -0.3853    0.0390 C.ar    1  UNL1       -0.0265
     25 N          -0.9545   -0.9235   -0.7357 N.ar    1  UNL1       -0.2309
     26 C          -1.9768   -0.0328   -0.9545 C.ar    1  UNL1        0.1181
     27 C          -3.2016   -0.4410   -1.6308 C.3     1  UNL1        0.0182
     28 C          -4.2079   -1.1838   -0.6524 C.3     1  UNL1       -0.0393
     29 C          -5.2154   -0.8229   -1.7162 C.3     1  UNL1       -0.0270
     30 C          -6.6125   -0.5389   -1.3398 C.3     1  UNL1        0.0018
     31 N          -6.8103    0.5573   -0.4198 N.3     1  UNL1       -0.3020
     32 C          -8.2043    0.9160   -0.2629 C.3     1  UNL1        0.0001
     33 C          -8.3654   -0.1951    0.7305 C.3     1  UNL1       -0.0274
     34 C          -6.8779    0.0022    0.9346 C.3     1  UNL1        0.0001
     35 C          -4.3168    0.4628   -1.8844 C.3     1  UNL1       -0.0393
     36 H           1.7174    1.3907    2.2727 H       1  UNL1        0.1438
     37 H           2.4014    2.4031    1.0016 H       1  UNL1        0.1438
     38 H          -2.0039    4.3534    0.4117 H       1  UNL1        0.0845
     39 H          -3.0781    2.5069   -0.7172 H       1  UNL1        0.0829
     40 H           0.3820   -2.5961    1.4352 H       1  UNL1        0.0624
     41 H           2.5120   -3.5936    2.1692 H       1  UNL1        0.0624
     42 H           4.8885   -3.5287    2.2255 H       1  UNL1        0.0625
     43 H           6.9940   -2.4069    1.5799 H       1  UNL1        0.0639
     44 H           8.6567   -1.4422    1.0435 H       1  UNL1        0.0624
     45 H          10.6583   -0.2315    0.3409 H       1  UNL1        0.0618
     46 H          10.4934    1.8048   -1.0271 H       1  UNL1        0.0618
     47 H           8.2831    2.6018   -1.6825 H       1  UNL1        0.0618
     48 H           6.2413    1.3960   -0.9898 H       1  UNL1        0.0624
     49 H           2.5954    0.4985   -0.5762 H       1  UNL1        0.0645
     50 H          -3.0620   -1.2021   -2.4451 H       1  UNL1        0.0379
     51 H          -3.9519   -2.2321   -0.5353 H       1  UNL1        0.0275
     52 H          -4.1816   -0.5376    0.2523 H       1  UNL1        0.0275
     53 H          -5.0913   -1.4846   -2.5850 H       1  UNL1        0.0313
     54 H          -7.1776   -0.3558   -2.3031 H       1  UNL1        0.0429
     55 H          -7.0550   -1.4833   -0.9403 H       1  UNL1        0.0429
     56 H          -8.8261    0.7837   -1.1748 H       1  UNL1        0.0427
     57 H          -8.3319    1.9220    0.2200 H       1  UNL1        0.0427
     58 H          -8.9675    0.0766    1.6255 H       1  UNL1        0.0290
     59 H          -8.6297   -1.1780    0.3125 H       1  UNL1        0.0290
     60 H          -6.3134   -0.9462    1.0223 H       1  UNL1        0.0427
     61 H          -6.6562    0.7499    1.7246 H       1  UNL1        0.0427
     62 H          -4.4340    0.8110   -2.9340 H       1  UNL1        0.0275
     63 H          -4.7170    1.1359   -1.1159 H       1  UNL1        0.0275
@<TRIPOS>BOND
     1     1     2    1
     2     2     3   ar
     3     3     4   ar
     4     4     5   ar
     5     5     6   ar
     6     6     7   ar
     7     7     8   ar
     8     8     9    1
     9     9    10   ar
    10    10    11   ar
    11    11    12   ar
    12    12    13   ar
    13    13    14   ar
    14    14    15   ar
    15    15    16    1
    16    16    17   ar
    17    17    18   ar
    18    18    19   ar
    19    19    20   ar
    20    20    21   ar
    21    15    22   ar
    22    22    23   ar
    23    23    24   ar
    24     8    25   ar
    25    25    26   ar
    26    26    27    1
    27    27    28    1
    28    28    29    1
    29    29    30    1
    30    30    31    1
    31    31    32    1
    32    32    33    1
    33    33    34    1
    34    29    35    1
    35     7     2   ar
    36    24     9   ar
    37    35    27    1
    38    26     6   ar
    39    34    31    1
    40    23    12   ar
    41    21    16   ar
    42     1    36    1
    43     1    37    1
    44     4    38    1
    45     5    39    1
    46    10    40    1
    47    11    41    1
    48    13    42    1
    49    14    43    1
    50    17    44    1
    51    18    45    1
    52    19    46    1
    53    20    47    1
    54    21    48    1
    55    24    49    1
    56    27    50    1
    57    28    51    1
    58    28    52    1
    59    29    53    1
    60    30    54    1
    61    30    55    1
    62    32    56    1
    63    32    57    1
    64    33    58    1
    65    33    59    1
    66    34    60    1
    67    34    61    1
    68    35    62    1
    69    35    63    1
