@<TRIPOS>MOLECULE
*****
 58 61 0 0 0
SMALL
GASTEIGER

@<TRIPOS>ATOM
      1 C          -3.5667    2.6246    0.5650 C.3     1  UNL1       -0.0220
      2 C          -2.1654    2.7638    1.0436 C.ar    1  UNL1        0.0471
      3 C          -1.1964    1.7941    0.8681 C.ar    1  UNL1        0.0643
      4 C          -1.1834    0.5279    0.2698 C.ar    1  UNL1        0.1324
      5 O          -2.3767    0.1210   -0.2752 O.3     1  UNL1       -0.4880
      6 C          -2.6645   -1.0696   -0.9272 C.3     1  UNL1        0.1021
      7 C          -3.1506   -0.8406   -2.3418 C.3     1  UNL1       -0.0275
      8 C          -3.6877   -1.8183   -0.1005 C.3     1  UNL1        0.0195
      9 C          -4.9659   -1.0770    0.0939 C.3     1  UNL1        0.0182
     10 N          -5.9206   -1.7128   -0.7776 N.am    1  UNL1       -0.3149
     11 C          -5.3078   -2.7928   -1.4680 C.2     1  UNL1        0.2135
     12 O          -5.6816   -3.3681   -2.5205 O.2     1  UNL1       -0.2758
     13 C          -4.0937   -3.1300   -0.6836 C.3     1  UNL1        0.0315
     14 C          -0.0102   -0.1933    0.2725 C.ar    1  UNL1       -0.0113
     15 C           1.1404    0.3019    0.8471 C.ar    1  UNL1       -0.0094
     16 C           2.3927   -0.4462    0.8603 C.ar    1  UNL1        0.0197
     17 C           2.5867   -1.8130    0.9173 C.ar    1  UNL1        0.0571
     18 N           3.9231   -2.0535    0.9077 N.ar    1  UNL1       -0.1790
     19 N           4.5849   -0.8913    0.8467 N.ar    1  UNL1       -0.2706
     20 C           6.0304   -0.7647    0.8194 C.3     1  UNL1        0.0438
     21 C           6.5690   -0.7765   -0.5825 C.3     1  UNL1       -0.0271
     22 C           6.0155    0.3573   -1.4126 C.3     1  UNL1       -0.0610
     23 C           6.3366   -2.0678   -1.3043 C.3     1  UNL1       -0.0610
     24 C           3.6618    0.0910    0.8175 C.ar    1  UNL1        0.0332
     25 C           1.0733    1.5576    1.4244 C.ar    1  UNL1       -0.0259
     26 C          -0.0598    2.3136    1.4499 C.ar    1  UNL1        0.0971
     27 N          -0.3250    3.5443    1.9569 N.ar    1  UNL1       -0.1711
     28 N          -1.5965    3.8047    1.7061 N.ar    1  UNL1       -0.2704
     29 C          -2.3486    4.9946    2.0506 C.3     1  UNL1        0.0305
     30 H          -3.9349    3.6675    0.3706 H       1  UNL1        0.0293
     31 H          -3.6102    2.1098   -0.4296 H       1  UNL1        0.0293
     32 H          -4.1923    2.1352    1.3162 H       1  UNL1        0.0293
     33 H          -1.7622   -1.7007   -0.9749 H       1  UNL1        0.0733
     34 H          -2.6880    0.0964   -2.7129 H       1  UNL1        0.0265
     35 H          -2.8490   -1.6677   -3.0177 H       1  UNL1        0.0265
     36 H          -4.2489   -0.6890   -2.3924 H       1  UNL1        0.0265
     37 H          -3.2237   -1.9856    0.9013 H       1  UNL1        0.0356
     38 H          -5.3373   -1.2359    1.1450 H       1  UNL1        0.0466
     39 H          -4.8919    0.0146   -0.0760 H       1  UNL1        0.0466
     40 H          -6.9240   -1.4484   -0.9097 H       1  UNL1        0.1487
     41 H          -4.3750   -3.8278    0.1466 H       1  UNL1        0.0363
     42 H          -3.3016   -3.5771   -1.3308 H       1  UNL1        0.0363
     43 H           0.0099   -1.1525   -0.1779 H       1  UNL1        0.0660
     44 H           1.7753   -2.5284    0.9606 H       1  UNL1        0.0854
     45 H           6.3803    0.1801    1.2950 H       1  UNL1        0.0511
     46 H           6.5308   -1.5835    1.3710 H       1  UNL1        0.0511
     47 H           7.6720   -0.6200   -0.5058 H       1  UNL1        0.0313
     48 H           5.8387    1.2496   -0.7848 H       1  UNL1        0.0233
     49 H           6.7886    0.6321   -2.1594 H       1  UNL1        0.0233
     50 H           5.1224    0.0150   -1.9646 H       1  UNL1        0.0233
     51 H           6.8730   -2.8714   -0.7535 H       1  UNL1        0.0233
     52 H           5.2483   -2.2438   -1.3803 H       1  UNL1        0.0233
     53 H           6.8151   -1.9706   -2.3066 H       1  UNL1        0.0233
     54 H           3.9122    1.1293    0.7684 H       1  UNL1        0.0832
     55 H           1.9906    1.9321    1.8732 H       1  UNL1        0.0646
     56 H          -3.1768    4.7724    2.7655 H       1  UNL1        0.0473
     57 H          -2.7500    5.4386    1.0930 H       1  UNL1        0.0473
     58 H          -1.7046    5.7489    2.5476 H       1  UNL1        0.0473
@<TRIPOS>BOND
     1     1     2    1
     2     2     3   ar
     3     3     4   ar
     4     4     5    1
     5     5     6    1
     6     6     7    1
     7     6     8    1
     8     8     9    1
     9     9    10    1
    10    10    11   am
    11    11    12    2
    12    11    13    1
    13     4    14   ar
    14    14    15   ar
    15    15    16    1
    16    16    17   ar
    17    17    18   ar
    18    18    19   ar
    19    19    20    1
    20    20    21    1
    21    21    22    1
    22    21    23    1
    23    19    24   ar
    24    15    25   ar
    25    25    26   ar
    26    26    27   ar
    27    27    28   ar
    28    28    29    1
    29    28     2   ar
    30    26     3   ar
    31    13     8    1
    32    24    16   ar
    33     1    30    1
    34     1    31    1
    35     1    32    1
    36     6    33    1
    37     7    34    1
    38     7    35    1
    39     7    36    1
    40     8    37    1
    41     9    38    1
    42     9    39    1
    43    10    40    1
    44    13    41    1
    45    13    42    1
    46    14    43    1
    47    17    44    1
    48    20    45    1
    49    20    46    1
    50    21    47    1
    51    22    48    1
    52    22    49    1
    53    22    50    1
    54    23    51    1
    55    23    52    1
    56    23    53    1
    57    24    54    1
    58    25    55    1
    59    29    56    1
    60    29    57    1
    61    29    58    1
