
     RDKit          3D

 58 61  0  0  0  0  0  0  0  0999 V2000
   -3.5667    2.6246    0.5650 C   0  0  0  0  0  0  0  0  0  0  0  0
   -2.1654    2.7638    1.0436 C   0  0  0  0  0  0  0  0  0  0  0  0
   -1.1964    1.7941    0.8681 C   0  0  0  0  0  0  0  0  0  0  0  0
   -1.1834    0.5279    0.2698 C   0  0  0  0  0  0  0  0  0  0  0  0
   -2.3767    0.1210   -0.2752 O   0  0  0  0  0  0  0  0  0  0  0  0
   -2.6645   -1.0696   -0.9272 C   0  0  2  0  0  0  0  0  0  0  0  0
   -3.1506   -0.8406   -2.3418 C   0  0  0  0  0  0  0  0  0  0  0  0
   -3.6877   -1.8183   -0.1005 C   0  0  1  0  0  0  0  0  0  0  0  0
   -4.9659   -1.0770    0.0939 C   0  0  0  0  0  0  0  0  0  0  0  0
   -5.9206   -1.7128   -0.7776 N   0  0  0  0  0  0  0  0  0  0  0  0
   -5.3078   -2.7928   -1.4680 C   0  0  0  0  0  0  0  0  0  0  0  0
   -5.6816   -3.3681   -2.5205 O   0  0  0  0  0  0  0  0  0  0  0  0
   -4.0937   -3.1300   -0.6836 C   0  0  0  0  0  0  0  0  0  0  0  0
   -0.0102   -0.1933    0.2725 C   0  0  0  0  0  0  0  0  0  0  0  0
    1.1404    0.3019    0.8471 C   0  0  0  0  0  0  0  0  0  0  0  0
    2.3927   -0.4462    0.8603 C   0  0  0  0  0  0  0  0  0  0  0  0
    2.5867   -1.8130    0.9173 C   0  0  0  0  0  0  0  0  0  0  0  0
    3.9231   -2.0535    0.9077 N   0  0  0  0  0  0  0  0  0  0  0  0
    4.5849   -0.8913    0.8467 N   0  0  0  0  0  0  0  0  0  0  0  0
    6.0304   -0.7647    0.8194 C   0  0  0  0  0  0  0  0  0  0  0  0
    6.5690   -0.7765   -0.5825 C   0  0  0  0  0  0  0  0  0  0  0  0
    6.0155    0.3573   -1.4126 C   0  0  0  0  0  0  0  0  0  0  0  0
    6.3366   -2.0678   -1.3043 C   0  0  0  0  0  0  0  0  0  0  0  0
    3.6618    0.0910    0.8175 C   0  0  0  0  0  0  0  0  0  0  0  0
    1.0733    1.5576    1.4244 C   0  0  0  0  0  0  0  0  0  0  0  0
   -0.0598    2.3136    1.4499 C   0  0  0  0  0  0  0  0  0  0  0  0
   -0.3250    3.5443    1.9569 N   0  0  0  0  0  0  0  0  0  0  0  0
   -1.5965    3.8047    1.7061 N   0  0  0  0  0  0  0  0  0  0  0  0
   -2.3486    4.9946    2.0506 C   0  0  0  0  0  0  0  0  0  0  0  0
   -3.9349    3.6675    0.3706 H   0  0  0  0  0  0  0  0  0  0  0  0
   -3.6102    2.1098   -0.4296 H   0  0  0  0  0  0  0  0  0  0  0  0
   -4.1923    2.1352    1.3162 H   0  0  0  0  0  0  0  0  0  0  0  0
   -1.7622   -1.7007   -0.9749 H   0  0  0  0  0  0  0  0  0  0  0  0
   -2.6880    0.0964   -2.7129 H   0  0  0  0  0  0  0  0  0  0  0  0
   -2.8490   -1.6677   -3.0177 H   0  0  0  0  0  0  0  0  0  0  0  0
   -4.2489   -0.6890   -2.3924 H   0  0  0  0  0  0  0  0  0  0  0  0
   -3.2237   -1.9856    0.9013 H   0  0  0  0  0  0  0  0  0  0  0  0
   -5.3373   -1.2359    1.1450 H   0  0  0  0  0  0  0  0  0  0  0  0
   -4.8919    0.0146   -0.0760 H   0  0  0  0  0  0  0  0  0  0  0  0
   -6.9240   -1.4484   -0.9097 H   0  0  0  0  0  0  0  0  0  0  0  0
   -4.3750   -3.8278    0.1466 H   0  0  0  0  0  0  0  0  0  0  0  0
   -3.3016   -3.5771   -1.3308 H   0  0  0  0  0  0  0  0  0  0  0  0
    0.0099   -1.1525   -0.1779 H   0  0  0  0  0  0  0  0  0  0  0  0
    1.7753   -2.5284    0.9606 H   0  0  0  0  0  0  0  0  0  0  0  0
    6.3803    0.1801    1.2950 H   0  0  0  0  0  0  0  0  0  0  0  0
    6.5308   -1.5835    1.3710 H   0  0  0  0  0  0  0  0  0  0  0  0
    7.6720   -0.6200   -0.5058 H   0  0  0  0  0  0  0  0  0  0  0  0
    5.8387    1.2496   -0.7848 H   0  0  0  0  0  0  0  0  0  0  0  0
    6.7886    0.6321   -2.1594 H   0  0  0  0  0  0  0  0  0  0  0  0
    5.1224    0.0150   -1.9646 H   0  0  0  0  0  0  0  0  0  0  0  0
    6.8730   -2.8714   -0.7535 H   0  0  0  0  0  0  0  0  0  0  0  0
    5.2483   -2.2438   -1.3803 H   0  0  0  0  0  0  0  0  0  0  0  0
    6.8151   -1.9706   -2.3066 H   0  0  0  0  0  0  0  0  0  0  0  0
    3.9122    1.1293    0.7684 H   0  0  0  0  0  0  0  0  0  0  0  0
    1.9906    1.9321    1.8732 H   0  0  0  0  0  0  0  0  0  0  0  0
   -3.1768    4.7724    2.7655 H   0  0  0  0  0  0  0  0  0  0  0  0
   -2.7500    5.4386    1.0930 H   0  0  0  0  0  0  0  0  0  0  0  0
   -1.7046    5.7489    2.5476 H   0  0  0  0  0  0  0  0  0  0  0  0
  1  2  1  0
  2  3  2  0
  3  4  1  0
  4  5  1  0
  5  6  1  0
  6  7  1  0
  6  8  1  0
  8  9  1  0
  9 10  1  0
 10 11  1  0
 11 12  2  0
 11 13  1  0
  4 14  2  0
 14 15  1  0
 15 16  1  0
 16 17  1  0
 17 18  2  0
 18 19  1  0
 19 20  1  0
 20 21  1  0
 21 22  1  0
 21 23  1  0
 19 24  1  0
 15 25  2  0
 25 26  1  0
 26 27  2  0
 27 28  1  0
 28 29  1  0
 28  2  1  0
 26  3  1  0
 13  8  1  0
 24 16  2  0
  1 30  1  0
  1 31  1  0
  1 32  1  0
  6 33  1  6
  7 34  1  0
  7 35  1  0
  7 36  1  0
  8 37  1  1
  9 38  1  0
  9 39  1  0
 10 40  1  0
 13 41  1  0
 13 42  1  0
 14 43  1  0
 17 44  1  0
 20 45  1  0
 20 46  1  0
 21 47  1  0
 22 48  1  0
 22 49  1  0
 22 50  1  0
 23 51  1  0
 23 52  1  0
 23 53  1  0
 24 54  1  0
 25 55  1  0
 29 56  1  0
 29 57  1  0
 29 58  1  0
M  END
$$$$
