
     RDKit          3D

 86 91  0  0  0  0  0  0  0  0999 V2000
   11.0357   -0.2226    0.7633 C   0  0  0  0  0  0  0  0  0  0  0  0
   10.7285   -0.0207   -0.5762 O   0  0  0  0  0  0  0  0  0  0  0  0
    9.4736    0.1851   -1.0766 C   0  0  0  0  0  0  0  0  0  0  0  0
    8.3591    0.1969   -0.3343 C   0  0  0  0  0  0  0  0  0  0  0  0
    7.1432    0.4291   -0.9289 C   0  0  0  0  0  0  0  0  0  0  0  0
    7.0468    0.6521   -2.2763 C   0  0  0  0  0  0  0  0  0  0  0  0
    8.1675    0.6420   -3.0669 C   0  0  0  0  0  0  0  0  0  0  0  0
    9.4150    0.4124   -2.5246 C   0  0  0  0  0  0  0  0  0  0  0  0
   10.5195    0.3755   -3.1683 O   0  0  0  0  0  0  0  0  0  0  0  0
   11.5732    0.3587   -3.9073 C   0  0  0  0  0  0  0  0  0  0  0  0
    5.7090    0.9786   -2.8703 C   0  0  0  0  0  0  0  0  0  0  0  0
    4.6236    0.3751   -2.2554 N   0  0  0  0  0  0  0  0  0  0  0  0
    3.4066    1.2331   -2.1345 C   0  0  0  0  0  0  0  0  0  0  0  0
    2.2768    0.2590   -1.9140 C   0  0  0  0  0  0  0  0  0  0  0  0
    1.0317    0.9243   -1.4753 C   0  0  0  0  0  0  0  0  0  0  0  0
    0.9874    1.1260   -0.0631 C   0  0  0  0  0  0  0  0  0  0  0  0
   -0.1447    1.5964    0.5167 C   0  0  0  0  0  0  0  0  0  0  0  0
   -1.3157    1.9053   -0.2248 C   0  0  0  0  0  0  0  0  0  0  0  0
   -2.3774    2.2568    0.6687 N   0  0  0  0  0  0  0  0  0  0  0  0
   -3.1946    1.1737    1.1637 C   0  0  0  0  0  0  0  0  0  0  0  0
   -2.9154    0.0397    0.5964 O   0  0  0  0  0  0  0  0  0  0  0  0
   -4.2047    1.2374    2.1924 C   0  0  0  0  0  0  0  0  0  0  0  0
   -4.2058    2.2865    3.1385 C   0  0  0  0  0  0  0  0  0  0  0  0
   -4.9013    2.1753    4.3030 C   0  0  0  0  0  0  0  0  0  0  0  0
   -4.9581    3.1644    5.2832 O   0  0  0  0  0  0  0  0  0  0  0  0
   -4.3008    4.3840    5.0740 C   0  0  0  0  0  0  0  0  0  0  0  0
   -5.6306    1.0162    4.5929 C   0  0  0  0  0  0  0  0  0  0  0  0
   -6.2574    0.8675    5.7014 O   0  0  0  0  0  0  0  0  0  0  0  0
   -6.9076    0.6558    6.7863 C   0  0  0  0  0  0  0  0  0  0  0  0
   -5.6174    0.0027    3.6208 C   0  0  0  0  0  0  0  0  0  0  0  0
   -4.9217    0.0965    2.4376 C   0  0  0  0  0  0  0  0  0  0  0  0
   -4.9564   -0.9677    1.4732 N   0  0  0  0  0  0  0  0  0  0  0  0
   -6.0815   -1.0591    0.5861 C   0  0  0  0  0  0  0  0  0  0  0  0
   -6.9804   -0.1790    0.7088 O   0  0  0  0  0  0  0  0  0  0  0  0
   -6.2548   -2.0909   -0.4232 C   0  0  0  0  0  0  0  0  0  0  0  0
   -5.2269   -2.7718   -1.0252 C   0  0  0  0  0  0  0  0  0  0  0  0
   -5.4307   -3.7912   -1.9212 N   0  0  0  0  0  0  0  0  0  0  0  0
   -6.6513   -4.1836   -2.2649 C   0  0  0  0  0  0  0  0  0  0  0  0
   -6.8352   -5.2271   -3.1828 C   0  0  0  0  0  0  0  0  0  0  0  0
   -8.0898   -5.6442   -3.5413 C   0  0  0  0  0  0  0  0  0  0  0  0
   -9.1838   -4.9862   -2.9509 C   0  0  0  0  0  0  0  0  0  0  0  0
   -9.0116   -3.9613   -2.0548 C   0  0  0  0  0  0  0  0  0  0  0  0
   -7.7550   -3.5429   -1.6979 C   0  0  0  0  0  0  0  0  0  0  0  0
   -7.5465   -2.5221   -0.8001 C   0  0  0  0  0  0  0  0  0  0  0  0
   -1.2365    1.7111   -1.5371 C   0  0  0  0  0  0  0  0  0  0  0  0
   -0.0800    1.2249   -2.1908 C   0  0  0  0  0  0  0  0  0  0  0  0
    4.8008   -0.1289   -0.9375 C   0  0  0  0  0  0  0  0  0  0  0  0
    5.9236    0.3738   -0.0898 C   0  0  0  0  0  0  0  0  0  0  0  0
   10.1262   -0.3418    1.3861 H   0  0  0  0  0  0  0  0  0  0  0  0
   11.5190    0.7246    1.2067 H   0  0  0  0  0  0  0  0  0  0  0  0
   11.7114   -1.0637    0.9085 H   0  0  0  0  0  0  0  0  0  0  0  0
    8.3474    0.0197    0.7541 H   0  0  0  0  0  0  0  0  0  0  0  0
    8.0872    0.8293   -4.1395 H   0  0  0  0  0  0  0  0  0  0  0  0
   12.5370    0.3949   -3.2755 H   0  0  0  0  0  0  0  0  0  0  0  0
   11.6910    1.1872   -4.6733 H   0  0  0  0  0  0  0  0  0  0  0  0
   11.6784   -0.6167   -4.5205 H   0  0  0  0  0  0  0  0  0  0  0  0
    5.6180    2.0966   -2.9944 H   0  0  0  0  0  0  0  0  0  0  0  0
    5.7760    0.6458   -3.9969 H   0  0  0  0  0  0  0  0  0  0  0  0
    3.2851    1.8579   -3.0371 H   0  0  0  0  0  0  0  0  0  0  0  0
    3.4973    1.9131   -1.2586 H   0  0  0  0  0  0  0  0  0  0  0  0
    2.0728   -0.2890   -2.9053 H   0  0  0  0  0  0  0  0  0  0  0  0
    2.5357   -0.5731   -1.2456 H   0  0  0  0  0  0  0  0  0  0  0  0
    1.8811    0.8882    0.5125 H   0  0  0  0  0  0  0  0  0  0  0  0
   -0.1385    1.7474    1.5868 H   0  0  0  0  0  0  0  0  0  0  0  0
   -2.5730    3.2143    0.9460 H   0  0  0  0  0  0  0  0  0  0  0  0
   -3.6406    3.1757    2.9268 H   0  0  0  0  0  0  0  0  0  0  0  0
   -4.3762    4.7321    4.0235 H   0  0  0  0  0  0  0  0  0  0  0  0
   -3.2381    4.3985    5.3638 H   0  0  0  0  0  0  0  0  0  0  0  0
   -4.8270    5.1805    5.6732 H   0  0  0  0  0  0  0  0  0  0  0  0
   -8.0332    0.7572    6.6334 H   0  0  0  0  0  0  0  0  0  0  0  0
   -6.7160   -0.3281    7.3396 H   0  0  0  0  0  0  0  0  0  0  0  0
   -6.7152    1.4769    7.5574 H   0  0  0  0  0  0  0  0  0  0  0  0
   -6.2076   -0.8868    3.8417 H   0  0  0  0  0  0  0  0  0  0  0  0
   -4.2286   -1.6924    1.3654 H   0  0  0  0  0  0  0  0  0  0  0  0
   -4.2027   -2.4710   -0.7582 H   0  0  0  0  0  0  0  0  0  0  0  0
   -5.9717   -5.7116   -3.6144 H   0  0  0  0  0  0  0  0  0  0  0  0
   -8.2828   -6.4321   -4.2484 H   0  0  0  0  0  0  0  0  0  0  0  0
  -10.1663   -5.3482   -3.2626 H   0  0  0  0  0  0  0  0  0  0  0  0
   -9.8729   -3.4954   -1.6305 H   0  0  0  0  0  0  0  0  0  0  0  0
   -8.3834   -1.9832   -0.3181 H   0  0  0  0  0  0  0  0  0  0  0  0
   -2.1353    1.9398   -2.1439 H   0  0  0  0  0  0  0  0  0  0  0  0
   -0.0818    1.0965   -3.2574 H   0  0  0  0  0  0  0  0  0  0  0  0
    3.8710    0.1578   -0.3217 H   0  0  0  0  0  0  0  0  0  0  0  0
    4.7668   -1.2667   -1.0165 H   0  0  0  0  0  0  0  0  0  0  0  0
    6.0978   -0.3386    0.7833 H   0  0  0  0  0  0  0  0  0  0  0  0
    5.6439    1.3875    0.3196 H   0  0  0  0  0  0  0  0  0  0  0  0
  1  2  1  0
  2  3  1  0
  3  4  2  0
  4  5  1  0
  5  6  2  0
  6  7  1  0
  7  8  2  0
  8  9  1  0
  9 10  1  0
  6 11  1  0
 11 12  1  0
 12 13  1  0
 13 14  1  0
 14 15  1  0
 15 16  2  0
 16 17  1  0
 17 18  2  0
 18 19  1  0
 19 20  1  0
 20 21  2  0
 20 22  1  0
 22 23  2  0
 23 24  1  0
 24 25  1  0
 25 26  1  0
 24 27  2  0
 27 28  1  0
 28 29  1  0
 27 30  1  0
 30 31  2  0
 31 32  1  0
 32 33  1  0
 33 34  2  0
 33 35  1  0
 35 36  2  0
 36 37  1  0
 37 38  2  0
 38 39  1  0
 39 40  2  0
 40 41  1  0
 41 42  2  0
 42 43  1  0
 43 44  2  0
 18 45  1  0
 45 46  2  0
 12 47  1  0
 47 48  1  0
  8  3  1  0
 46 15  1  0
 48  5  1  0
 31 22  1  0
 44 35  1  0
 43 38  1  0
  1 49  1  0
  1 50  1  0
  1 51  1  0
  4 52  1  0
  7 53  1  0
 10 54  1  0
 10 55  1  0
 10 56  1  0
 11 57  1  0
 11 58  1  0
 13 59  1  0
 13 60  1  0
 14 61  1  0
 14 62  1  0
 16 63  1  0
 17 64  1  0
 19 65  1  0
 23 66  1  0
 26 67  1  0
 26 68  1  0
 26 69  1  0
 29 70  1  0
 29 71  1  0
 29 72  1  0
 30 73  1  0
 32 74  1  0
 36 75  1  0
 39 76  1  0
 40 77  1  0
 41 78  1  0
 42 79  1  0
 44 80  1  0
 45 81  1  0
 46 82  1  0
 47 83  1  0
 47 84  1  0
 48 85  1  0
 48 86  1  0
M  END
$$$$
