@<TRIPOS>MOLECULE
*****
 86 91 0 0 0
SMALL
GASTEIGER

@<TRIPOS>ATOM
      1 C          11.0357   -0.2226    0.7633 C.3     1  UNL1        0.0790
      2 O          10.7285   -0.0207   -0.5762 O.3     1  UNL1       -0.4914
      3 C           9.4736    0.1851   -1.0766 C.ar    1  UNL1        0.1618
      4 C           8.3591    0.1969   -0.3343 C.ar    1  UNL1       -0.0128
      5 C           7.1432    0.4291   -0.9289 C.ar    1  UNL1       -0.0381
      6 C           7.0468    0.6521   -2.2763 C.ar    1  UNL1       -0.0265
      7 C           8.1675    0.6420   -3.0669 C.ar    1  UNL1       -0.0116
      8 C           9.4150    0.4124   -2.5246 C.ar    1  UNL1        0.1618
      9 O          10.5195    0.3755   -3.1683 O.3     1  UNL1       -0.4914
     10 C          11.5732    0.3587   -3.9073 C.3     1  UNL1        0.0790
     11 C           5.7090    0.9786   -2.8703 C.3     1  UNL1        0.0244
     12 N           4.6236    0.3751   -2.2554 N.3     1  UNL1       -0.2975
     13 C           3.4066    1.2331   -2.1345 C.3     1  UNL1        0.0032
     14 C           2.2768    0.2590   -1.9140 C.3     1  UNL1       -0.0149
     15 C           1.0317    0.9243   -1.4753 C.ar    1  UNL1       -0.0460
     16 C           0.9874    1.1260   -0.0631 C.ar    1  UNL1       -0.0568
     17 C          -0.1447    1.5964    0.5167 C.ar    1  UNL1       -0.0402
     18 C          -1.3157    1.9053   -0.2248 C.ar    1  UNL1        0.0337
     19 N          -2.3774    2.2568    0.6687 N.am    1  UNL1       -0.2815
     20 C          -3.1946    1.1737    1.1637 C.2     1  UNL1        0.2502
     21 O          -2.9154    0.0397    0.5964 O.2     1  UNL1       -0.2698
     22 C          -4.2047    1.2374    2.1924 C.ar    1  UNL1        0.0619
     23 C          -4.2058    2.2865    3.1385 C.ar    1  UNL1       -0.0024
     24 C          -4.9013    2.1753    4.3030 C.ar    1  UNL1        0.1623
     25 O          -4.9581    3.1644    5.2832 O.3     1  UNL1       -0.4914
     26 C          -4.3008    4.3840    5.0740 C.3     1  UNL1        0.0790
     27 C          -5.6306    1.0162    4.5929 C.ar    1  UNL1        0.1633
     28 O          -6.2574    0.8675    5.7014 O.3     1  UNL1       -0.4914
     29 C          -6.9076    0.6558    6.7863 C.3     1  UNL1        0.0790
     30 C          -5.6174    0.0027    3.6208 C.ar    1  UNL1        0.0057
     31 C          -4.9217    0.0965    2.4376 C.ar    1  UNL1        0.0495
     32 N          -4.9564   -0.9677    1.4732 N.am    1  UNL1       -0.2807
     33 C          -6.0815   -1.0591    0.5861 C.2     1  UNL1        0.2498
     34 O          -6.9804   -0.1790    0.7088 O.2     1  UNL1       -0.2698
     35 C          -6.2548   -2.0909   -0.4232 C.ar    1  UNL1        0.0557
     36 C          -5.2269   -2.7718   -1.0252 C.ar    1  UNL1        0.0404
     37 N          -5.4307   -3.7912   -1.9212 N.ar    1  UNL1       -0.2542
     38 C          -6.6513   -4.1836   -2.2649 C.ar    1  UNL1        0.0710
     39 C          -6.8352   -5.2271   -3.1828 C.ar    1  UNL1       -0.0357
     40 C          -8.0898   -5.6442   -3.5413 C.ar    1  UNL1       -0.0597
     41 C          -9.1838   -4.9862   -2.9509 C.ar    1  UNL1       -0.0611
     42 C          -9.0116   -3.9613   -2.0548 C.ar    1  UNL1       -0.0525
     43 C          -7.7550   -3.5429   -1.6979 C.ar    1  UNL1        0.0011
     44 C          -7.5465   -2.5221   -0.8001 C.ar    1  UNL1       -0.0390
     45 C          -1.2365    1.7111   -1.5371 C.ar    1  UNL1       -0.0402
     46 C          -0.0800    1.2249   -2.1908 C.ar    1  UNL1       -0.0568
     47 C           4.8008   -0.1289   -0.9375 C.3     1  UNL1        0.0032
     48 C           5.9236    0.3738   -0.0898 C.3     1  UNL1       -0.0144
     49 H          10.1262   -0.3418    1.3861 H       1  UNL1        0.0660
     50 H          11.5190    0.7246    1.2067 H       1  UNL1        0.0660
     51 H          11.7114   -1.0637    0.9085 H       1  UNL1        0.0660
     52 H           8.3474    0.0197    0.7541 H       1  UNL1        0.0658
     53 H           8.0872    0.8293   -4.1395 H       1  UNL1        0.0658
     54 H          12.5370    0.3949   -3.2755 H       1  UNL1        0.0660
     55 H          11.6910    1.1872   -4.6733 H       1  UNL1        0.0660
     56 H          11.6784   -0.6167   -4.5205 H       1  UNL1        0.0660
     57 H           5.6180    2.0966   -2.9944 H       1  UNL1        0.0476
     58 H           5.7760    0.6458   -3.9969 H       1  UNL1        0.0476
     59 H           3.2851    1.8579   -3.0371 H       1  UNL1        0.0430
     60 H           3.4973    1.9131   -1.2586 H       1  UNL1        0.0430
     61 H           2.0728   -0.2890   -2.9053 H       1  UNL1        0.0326
     62 H           2.5357   -0.5731   -1.2456 H       1  UNL1        0.0326
     63 H           1.8811    0.8882    0.5125 H       1  UNL1        0.0621
     64 H          -0.1385    1.7474    1.5868 H       1  UNL1        0.0636
     65 H          -2.5730    3.2143    0.9460 H       1  UNL1        0.1551
     66 H          -3.6406    3.1757    2.9268 H       1  UNL1        0.0663
     67 H          -4.3762    4.7321    4.0235 H       1  UNL1        0.0660
     68 H          -3.2381    4.3985    5.3638 H       1  UNL1        0.0660
     69 H          -4.8270    5.1805    5.6732 H       1  UNL1        0.0660
     70 H          -8.0332    0.7572    6.6334 H       1  UNL1        0.0660
     71 H          -6.7160   -0.3281    7.3396 H       1  UNL1        0.0660
     72 H          -6.7152    1.4769    7.5574 H       1  UNL1        0.0660
     73 H          -6.2076   -0.8868    3.8417 H       1  UNL1        0.0674
     74 H          -4.2286   -1.6924    1.3654 H       1  UNL1        0.1552
     75 H          -4.2027   -2.4710   -0.7582 H       1  UNL1        0.0837
     76 H          -5.9717   -5.7116   -3.6144 H       1  UNL1        0.0639
     77 H          -8.2828   -6.4321   -4.2484 H       1  UNL1        0.0618
     78 H         -10.1663   -5.3482   -3.2626 H       1  UNL1        0.0618
     79 H          -9.8729   -3.4954   -1.6305 H       1  UNL1        0.0624
     80 H          -8.3834   -1.9832   -0.3181 H       1  UNL1        0.0632
     81 H          -2.1353    1.9398   -2.1439 H       1  UNL1        0.0636
     82 H          -0.0818    1.0965   -3.2574 H       1  UNL1        0.0621
     83 H           3.8710    0.1578   -0.3217 H       1  UNL1        0.0430
     84 H           4.7668   -1.2667   -1.0165 H       1  UNL1        0.0430
     85 H           6.0978   -0.3386    0.7833 H       1  UNL1        0.0326
     86 H           5.6439    1.3875    0.3196 H       1  UNL1        0.0326
@<TRIPOS>BOND
     1     1     2    1
     2     2     3    1
     3     3     4   ar
     4     4     5   ar
     5     5     6   ar
     6     6     7   ar
     7     7     8   ar
     8     8     9    1
     9     9    10    1
    10     6    11    1
    11    11    12    1
    12    12    13    1
    13    13    14    1
    14    14    15    1
    15    15    16   ar
    16    16    17   ar
    17    17    18   ar
    18    18    19    1
    19    19    20   am
    20    20    21    2
    21    20    22    1
    22    22    23   ar
    23    23    24   ar
    24    24    25    1
    25    25    26    1
    26    24    27   ar
    27    27    28    1
    28    28    29    1
    29    27    30   ar
    30    30    31   ar
    31    31    32    1
    32    32    33   am
    33    33    34    2
    34    33    35    1
    35    35    36   ar
    36    36    37   ar
    37    37    38   ar
    38    38    39   ar
    39    39    40   ar
    40    40    41   ar
    41    41    42   ar
    42    42    43   ar
    43    43    44   ar
    44    18    45   ar
    45    45    46   ar
    46    12    47    1
    47    47    48    1
    48     8     3   ar
    49    46    15   ar
    50    48     5    1
    51    31    22   ar
    52    44    35   ar
    53    43    38   ar
    54     1    49    1
    55     1    50    1
    56     1    51    1
    57     4    52    1
    58     7    53    1
    59    10    54    1
    60    10    55    1
    61    10    56    1
    62    11    57    1
    63    11    58    1
    64    13    59    1
    65    13    60    1
    66    14    61    1
    67    14    62    1
    68    16    63    1
    69    17    64    1
    70    19    65    1
    71    23    66    1
    72    26    67    1
    73    26    68    1
    74    26    69    1
    75    29    70    1
    76    29    71    1
    77    29    72    1
    78    30    73    1
    79    32    74    1
    80    36    75    1
    81    39    76    1
    82    40    77    1
    83    41    78    1
    84    42    79    1
    85    44    80    1
    86    45    81    1
    87    46    82    1
    88    47    83    1
    89    47    84    1
    90    48    85    1
    91    48    86    1
