@<TRIPOS>MOLECULE
*****
 54 57 0 0 0
SMALL
GASTEIGER

@<TRIPOS>ATOM
      1 C           5.7161   -0.8040   -0.7935 C.3     1  UNL1        0.0092
      2 C           6.5830   -2.0077   -0.2867 C.3     1  UNL1       -0.0564
      3 C           6.7132    0.3122   -0.8514 C.3     1  UNL1        0.0329
      4 C           6.8863    0.8620    0.5857 C.2     1  UNL1        0.2078
      5 O           8.1584    1.4954    0.7496 O.2     1  UNL1       -0.4944
      6 N           6.1952    0.8398    1.5780 N.2     1  UNL1       -0.1160
      7 N           5.0538    0.1456    1.3886 N.2     1  UNL1       -0.1502
      8 C           4.7617   -0.5970    0.2770 C.2     1  UNL1        0.0740
      9 C           3.2757   -0.5760    0.0588 C.ar    1  UNL1       -0.0016
     10 C           2.3882   -1.4158   -0.5680 C.ar    1  UNL1       -0.0511
     11 C           1.0105   -1.1374   -0.8144 C.ar    1  UNL1       -0.0399
     12 C           0.6969    0.0693   -0.3160 C.ar    1  UNL1        0.0311
     13 N          -0.6908    0.4143   -0.1598 N.pl3   1  UNL1       -0.3175
     14 C          -1.8906    0.7253   -0.0424 C.2     1  UNL1        0.0149
     15 C          -3.1618    0.3576    0.2809 C.2     1  UNL1        0.0163
     16 C          -3.1947   -1.1639    0.5896 C.3     1  UNL1        0.0024
     17 C          -4.5695   -1.5768    0.1532 C.ar    1  UNL1       -0.0419
     18 C          -4.8002   -1.6401   -1.0954 C.ar    1  UNL1       -0.0451
     19 C          -6.1490   -1.8055   -1.4828 C.ar    1  UNL1        0.0136
     20 I          -6.7548   -1.7078   -3.4868 I       1  UNL1       -0.0438
     21 C          -7.0679   -1.9053   -0.4474 C.ar    1  UNL1       -0.0486
     22 C          -6.7850   -1.8047    0.8677 C.ar    1  UNL1       -0.0605
     23 C          -5.4113   -1.6118    1.2182 C.ar    1  UNL1       -0.0582
     24 C          -4.2138    1.2343    0.1714 C.2     1  UNL1        0.1610
     25 O          -5.3628    0.8386    0.0324 O.2     1  UNL1       -0.2923
     26 C          -3.9417    2.6762    0.2350 C.3     1  UNL1        0.0105
     27 C          -2.7427    3.0897   -0.5414 C.3     1  UNL1       -0.0409
     28 C          -1.7356    2.0470   -0.7735 C.3     1  UNL1       -0.0138
     29 C           1.3199    1.1003    0.3123 C.ar    1  UNL1       -0.0399
     30 C           2.6012    0.6485    0.4437 C.ar    1  UNL1       -0.0511
     31 H           5.2773   -1.1467   -1.6922 H       1  UNL1        0.0367
     32 H           7.5311   -1.9621   -0.7462 H       1  UNL1        0.0236
     33 H           6.0438   -2.9677   -0.4821 H       1  UNL1        0.0236
     34 H           6.7132   -1.8973    0.8392 H       1  UNL1        0.0236
     35 H           7.5199    0.3283   -1.4877 H       1  UNL1        0.0366
     36 H           5.9586    1.2336   -1.2483 H       1  UNL1        0.0366
     37 H           8.1926    2.1869    1.5297 H       1  UNL1        0.2934
     38 H           2.8672   -2.3184   -0.8463 H       1  UNL1        0.0625
     39 H           0.3641   -1.8244   -1.2429 H       1  UNL1        0.0636
     40 H          -0.8283   -0.1609    0.8623 H       1  UNL1        0.1519
     41 H          -2.4910   -1.6692   -0.0333 H       1  UNL1        0.0363
     42 H          -3.0070   -1.2585    1.6514 H       1  UNL1        0.0363
     43 H          -4.0521   -1.5179   -1.9108 H       1  UNL1        0.0631
     44 H          -8.1859   -1.9497   -0.7228 H       1  UNL1        0.0628
     45 H          -7.5221   -1.9784    1.6315 H       1  UNL1        0.0618
     46 H          -5.1742   -1.6606    2.2600 H       1  UNL1        0.0620
     47 H          -4.8023    3.3085   -0.0434 H       1  UNL1        0.0345
     48 H          -3.7343    2.8982    1.3313 H       1  UNL1        0.0345
     49 H          -3.0753    3.5899   -1.5014 H       1  UNL1        0.0273
     50 H          -2.1944    3.9522   -0.0451 H       1  UNL1        0.0273
     51 H          -0.7314    2.4597   -0.8298 H       1  UNL1        0.0326
     52 H          -1.9080    1.7077   -1.8882 H       1  UNL1        0.0326
     53 H           1.0537    2.0774    0.6871 H       1  UNL1        0.0636
     54 H           3.2971    1.4669    0.8180 H       1  UNL1        0.0625
@<TRIPOS>BOND
     1     1     2    1
     2     1     3    1
     3     3     4    1
     4     4     5    1
     5     4     6    2
     6     6     7    1
     7     7     8    2
     8     8     9    1
     9     9    10   ar
    10    10    11   ar
    11    11    12   ar
    12    12    13    1
    13    13    14    1
    14    14    15    2
    15    15    16    1
    16    16    17    1
    17    17    18   ar
    18    18    19   ar
    19    19    20    1
    20    19    21   ar
    21    21    22   ar
    22    22    23   ar
    23    15    24    1
    24    24    25    2
    25    24    26    1
    26    26    27    1
    27    27    28    1
    28    12    29   ar
    29    29    30   ar
    30     8     1    1
    31    30     9   ar
    32    28    14    1
    33    23    17   ar
    34     1    31    1
    35     2    32    1
    36     2    33    1
    37     2    34    1
    38     3    35    1
    39     3    36    1
    40     5    37    1
    41    10    38    1
    42    11    39    1
    43    13    40    1
    44    16    41    1
    45    16    42    1
    46    18    43    1
    47    21    44    1
    48    22    45    1
    49    23    46    1
    50    26    47    1
    51    26    48    1
    52    27    49    1
    53    27    50    1
    54    28    51    1
    55    28    52    1
    56    29    53    1
    57    30    54    1
