
     RDKit          3D

 45 48  0  0  0  0  0  0  0  0999 V2000
   -1.8410   -2.6442   -1.8288 C   0  0  0  0  0  0  0  0  0  0  0  0
   -1.6704   -1.7003   -0.6410 C   0  0  1  0  0  0  0  0  0  0  0  0
   -1.4417   -0.3830   -1.0555 O   0  0  0  0  0  0  0  0  0  0  0  0
   -0.2348    0.2153   -0.7432 C   0  0  0  0  0  0  0  0  0  0  0  0
    0.7449   -0.4076   -0.0534 N   0  0  0  0  0  0  0  0  0  0  0  0
    1.9056    0.1591    0.2505 C   0  0  0  0  0  0  0  0  0  0  0  0
    2.9677   -0.5068    0.9945 C   0  0  0  0  0  0  0  0  0  0  0  0
    2.8315   -1.8233    1.4506 C   0  0  0  0  0  0  0  0  0  0  0  0
    3.9576   -2.1245    2.0802 N   0  0  0  0  0  0  0  0  0  0  0  0
    4.7754   -1.0896    2.0443 N   0  0  0  0  0  0  0  0  0  0  0  0
    6.0888   -1.0678    2.6319 C   0  0  0  0  0  0  0  0  0  0  0  0
    4.1920   -0.0599    1.3744 C   0  0  0  0  0  0  0  0  0  0  0  0
    2.1321    1.4565   -0.1571 C   0  0  0  0  0  0  0  0  0  0  0  0
    1.1842    2.1718   -0.8688 C   0  0  0  0  0  0  0  0  0  0  0  0
    1.1113    3.4082   -1.3882 N   0  0  0  0  0  0  0  0  0  0  0  0
   -0.0484    3.5750   -1.9802 N   0  0  0  0  0  0  0  0  0  0  0  0
   -0.5004    4.7851   -2.6615 C   0  0  0  0  0  0  0  0  0  0  0  0
   -0.7547    2.4560   -1.8606 C   0  0  0  0  0  0  0  0  0  0  0  0
   -0.0038    1.5138   -1.1491 C   0  0  0  0  0  0  0  0  0  0  0  0
   -2.8637   -1.8283    0.2764 C   0  0  1  0  0  0  0  0  0  0  0  0
   -2.7536   -0.9257    1.4610 C   0  0  0  0  0  0  0  0  0  0  0  0
   -3.8297    0.0353    1.3345 N   0  0  0  0  0  0  0  0  0  0  0  0
   -4.6656   -0.2904    0.2349 C   0  0  0  0  0  0  0  0  0  0  0  0
   -5.6635    0.3878   -0.1183 O   0  0  0  0  0  0  0  0  0  0  0  0
   -4.1613   -1.5365   -0.3988 C   0  0  0  0  0  0  0  0  0  0  0  0
   -2.5039   -2.2273   -2.5977 H   0  0  0  0  0  0  0  0  0  0  0  0
   -0.8460   -2.9438   -2.2350 H   0  0  0  0  0  0  0  0  0  0  0  0
   -2.3168   -3.5647   -1.4395 H   0  0  0  0  0  0  0  0  0  0  0  0
   -0.7826   -2.0676   -0.0935 H   0  0  0  0  0  0  0  0  0  0  0  0
    1.9680   -2.4688    1.3125 H   0  0  0  0  0  0  0  0  0  0  0  0
    6.3564   -0.0836    3.0375 H   0  0  0  0  0  0  0  0  0  0  0  0
    6.8361   -1.4008    1.8947 H   0  0  0  0  0  0  0  0  0  0  0  0
    6.1147   -1.7892    3.4908 H   0  0  0  0  0  0  0  0  0  0  0  0
    4.5863    0.9109    1.1715 H   0  0  0  0  0  0  0  0  0  0  0  0
    3.0710    1.9590    0.0714 H   0  0  0  0  0  0  0  0  0  0  0  0
    0.1520    5.6440   -2.3887 H   0  0  0  0  0  0  0  0  0  0  0  0
   -0.4589    4.6769   -3.7583 H   0  0  0  0  0  0  0  0  0  0  0  0
   -1.5428    5.0566   -2.3519 H   0  0  0  0  0  0  0  0  0  0  0  0
   -1.7466    2.2599   -2.2337 H   0  0  0  0  0  0  0  0  0  0  0  0
   -2.8414   -2.8899    0.6599 H   0  0  0  0  0  0  0  0  0  0  0  0
   -2.8729   -1.4727    2.4180 H   0  0  0  0  0  0  0  0  0  0  0  0
   -1.7511   -0.4386    1.4453 H   0  0  0  0  0  0  0  0  0  0  0  0
   -3.9348    0.8470    1.9924 H   0  0  0  0  0  0  0  0  0  0  0  0
   -4.0634   -1.4263   -1.4984 H   0  0  0  0  0  0  0  0  0  0  0  0
   -4.8819   -2.3569   -0.1406 H   0  0  0  0  0  0  0  0  0  0  0  0
  1  2  1  0
  2  3  1  0
  3  4  1  0
  4  5  2  0
  5  6  1  0
  6  7  1  0
  7  8  1  0
  8  9  2  0
  9 10  1  0
 10 11  1  0
 10 12  1  0
  6 13  2  0
 13 14  1  0
 14 15  2  0
 15 16  1  0
 16 17  1  0
 16 18  1  0
 18 19  2  0
  2 20  1  0
 20 21  1  0
 21 22  1  0
 22 23  1  0
 23 24  2  0
 23 25  1  0
 19  4  1  0
 25 20  1  0
 12  7  2  0
 19 14  1  0
  1 26  1  0
  1 27  1  0
  1 28  1  0
  2 29  1  1
  8 30  1  0
 11 31  1  0
 11 32  1  0
 11 33  1  0
 12 34  1  0
 13 35  1  0
 17 36  1  0
 17 37  1  0
 17 38  1  0
 18 39  1  0
 20 40  1  1
 21 41  1  0
 21 42  1  0
 22 43  1  0
 25 44  1  0
 25 45  1  0
M  END
$$$$
