@<TRIPOS>MOLECULE
*****
 45 48 0 0 0
SMALL
GASTEIGER

@<TRIPOS>ATOM
      1 C          -1.8410   -2.6442   -1.8288 C.3     1  UNL1       -0.0274
      2 C          -1.6704   -1.7003   -0.6410 C.3     1  UNL1        0.1037
      3 O          -1.4417   -0.3830   -1.0555 O.3     1  UNL1       -0.4725
      4 C          -0.2348    0.2153   -0.7432 C.ar    1  UNL1        0.2265
      5 N           0.7449   -0.4076   -0.0534 N.ar    1  UNL1       -0.2121
      6 C           1.9056    0.1591    0.2505 C.ar    1  UNL1        0.0798
      7 C           2.9677   -0.5068    0.9945 C.ar    1  UNL1        0.0379
      8 C           2.8315   -1.8233    1.4506 C.ar    1  UNL1        0.0585
      9 N           3.9576   -2.1245    2.0802 N.ar    1  UNL1       -0.1792
     10 N           4.7754   -1.0896    2.0443 N.ar    1  UNL1       -0.2738
     11 C           6.0888   -1.0678    2.6319 C.3     1  UNL1        0.0302
     12 C           4.1920   -0.0599    1.3744 C.ar    1  UNL1        0.0344
     13 C           2.1321    1.4565   -0.1571 C.ar    1  UNL1       -0.0076
     14 C           1.1842    2.1718   -0.8688 C.ar    1  UNL1        0.0999
     15 N           1.1113    3.4082   -1.3882 N.ar    1  UNL1       -0.1712
     16 N          -0.0484    3.5750   -1.9802 N.ar    1  UNL1       -0.2732
     17 C          -0.5004    4.7851   -2.6615 C.3     1  UNL1        0.0302
     18 C          -0.7547    2.4560   -1.8606 C.ar    1  UNL1        0.0380
     19 C          -0.0038    1.5138   -1.1491 C.ar    1  UNL1        0.0812
     20 C          -2.8637   -1.8283    0.2764 C.3     1  UNL1        0.0196
     21 C          -2.7536   -0.9257    1.4610 C.3     1  UNL1        0.0182
     22 N          -3.8297    0.0353    1.3345 N.am    1  UNL1       -0.3149
     23 C          -4.6656   -0.2904    0.2349 C.2     1  UNL1        0.2135
     24 O          -5.6635    0.3878   -0.1183 O.2     1  UNL1       -0.2758
     25 C          -4.1613   -1.5365   -0.3988 C.3     1  UNL1        0.0315
     26 H          -2.5039   -2.2273   -2.5977 H       1  UNL1        0.0265
     27 H          -0.8460   -2.9438   -2.2350 H       1  UNL1        0.0265
     28 H          -2.3168   -3.5647   -1.4395 H       1  UNL1        0.0265
     29 H          -0.7826   -2.0676   -0.0935 H       1  UNL1        0.0734
     30 H           1.9680   -2.4688    1.3125 H       1  UNL1        0.0854
     31 H           6.3564   -0.0836    3.0375 H       1  UNL1        0.0473
     32 H           6.8361   -1.4008    1.8947 H       1  UNL1        0.0473
     33 H           6.1147   -1.7892    3.4908 H       1  UNL1        0.0473
     34 H           4.5863    0.9109    1.1715 H       1  UNL1        0.0833
     35 H           3.0710    1.9590    0.0714 H       1  UNL1        0.0661
     36 H           0.1520    5.6440   -2.3887 H       1  UNL1        0.0473
     37 H          -0.4589    4.6769   -3.7583 H       1  UNL1        0.0473
     38 H          -1.5428    5.0566   -2.3519 H       1  UNL1        0.0473
     39 H          -1.7466    2.2599   -2.2337 H       1  UNL1        0.0834
     40 H          -2.8414   -2.8899    0.6599 H       1  UNL1        0.0356
     41 H          -2.8729   -1.4727    2.4180 H       1  UNL1        0.0466
     42 H          -1.7511   -0.4386    1.4453 H       1  UNL1        0.0466
     43 H          -3.9348    0.8470    1.9924 H       1  UNL1        0.1487
     44 H          -4.0634   -1.4263   -1.4984 H       1  UNL1        0.0363
     45 H          -4.8819   -2.3569   -0.1406 H       1  UNL1        0.0363
@<TRIPOS>BOND
     1     1     2    1
     2     2     3    1
     3     3     4    1
     4     4     5   ar
     5     5     6   ar
     6     6     7    1
     7     7     8   ar
     8     8     9   ar
     9     9    10   ar
    10    10    11    1
    11    10    12   ar
    12     6    13   ar
    13    13    14   ar
    14    14    15   ar
    15    15    16   ar
    16    16    17    1
    17    16    18   ar
    18    18    19   ar
    19     2    20    1
    20    20    21    1
    21    21    22    1
    22    22    23   am
    23    23    24    2
    24    23    25    1
    25    19     4   ar
    26    25    20    1
    27    12     7   ar
    28    19    14   ar
    29     1    26    1
    30     1    27    1
    31     1    28    1
    32     2    29    1
    33     8    30    1
    34    11    31    1
    35    11    32    1
    36    11    33    1
    37    12    34    1
    38    13    35    1
    39    17    36    1
    40    17    37    1
    41    17    38    1
    42    18    39    1
    43    20    40    1
    44    21    41    1
    45    21    42    1
    46    22    43    1
    47    25    44    1
    48    25    45    1
