
     RDKit          3D

 64 68  0  0  0  0  0  0  0  0999 V2000
   -6.1178    0.8049   -2.1828 C   0  0  0  0  0  0  0  0  0  0  0  0
   -5.8124    0.5969   -0.7796 N   0  0  0  0  0  0  0  0  0  0  0  0
   -4.6182    0.7380   -0.2265 N   0  0  0  0  0  0  0  0  0  0  0  0
   -4.6757    0.4718    1.0888 C   0  0  0  0  0  0  0  0  0  0  0  0
   -3.6254    0.5056    2.0435 N   0  0  0  0  0  0  0  0  0  0  0  0
   -2.2715    0.8591    1.6697 C   0  0  0  0  0  0  0  0  0  0  0  0
   -1.7958   -0.1104    0.6599 C   0  0  0  0  0  0  0  0  0  0  0  0
   -2.5610   -1.0308    0.2923 O   0  0  0  0  0  0  0  0  0  0  0  0
   -0.4790   -0.0034    0.1060 N   0  0  0  0  0  0  0  0  0  0  0  0
   -0.0133   -0.9493   -0.8799 C   0  0  0  0  0  0  0  0  0  0  0  0
    1.2955   -1.5916   -0.4213 C   0  0  0  0  0  0  0  0  0  0  0  0
    1.9779   -0.4683   -1.0265 N   0  0  0  0  0  0  0  0  0  0  0  0
    3.1888   -0.8063   -1.7447 C   0  0  1  0  0  0  0  0  0  0  0  0
    3.7485    0.4727   -2.2966 C   0  0  0  0  0  0  0  0  0  0  0  0
    4.8203    1.0591   -1.3886 C   0  0  0  0  0  0  0  0  0  0  0  0
    6.0361    0.1637   -1.4667 C   0  0  1  0  0  0  0  0  0  0  0  0
    7.0987    0.5519   -0.5242 C   0  0  0  0  0  0  0  0  0  0  0  0
    6.8517    0.4858    0.8362 C   0  0  0  0  0  0  0  0  0  0  0  0
    7.8238    0.8416    1.7540 C   0  0  0  0  0  0  0  0  0  0  0  0
    9.0443    1.2636    1.2789 C   0  0  0  0  0  0  0  0  0  0  0  0
    9.2847    1.3278   -0.0530 N   0  0  0  0  0  0  0  0  0  0  0  0
    8.3524    0.9862   -0.9564 C   0  0  0  0  0  0  0  0  0  0  0  0
    5.6369   -1.2870   -1.3641 C   0  0  0  0  0  0  0  0  0  0  0  0
    4.2122   -1.4762   -0.8948 C   0  0  0  0  0  0  0  0  0  0  0  0
    0.8671   -0.3763   -1.9625 C   0  0  0  0  0  0  0  0  0  0  0  0
   -5.9839    0.1508    1.3436 C   0  0  0  0  0  0  0  0  0  0  0  0
   -6.6714   -0.2123    2.4831 C   0  0  0  0  0  0  0  0  0  0  0  0
   -8.0216   -0.4874    2.4554 C   0  0  0  0  0  0  0  0  0  0  0  0
   -8.6847   -0.8692    3.7155 C   0  0  0  0  0  0  0  0  0  0  0  0
   -8.9047    0.2949    4.4380 F   0  0  0  0  0  0  0  0  0  0  0  0
   -9.8633   -1.5443    3.5080 F   0  0  0  0  0  0  0  0  0  0  0  0
   -7.8472   -1.6685    4.4838 F   0  0  0  0  0  0  0  0  0  0  0  0
   -8.7457   -0.4072    1.2628 C   0  0  0  0  0  0  0  0  0  0  0  0
   -8.0655   -0.0469    0.1301 C   0  0  0  0  0  0  0  0  0  0  0  0
   -6.7180    0.2261    0.1659 C   0  0  0  0  0  0  0  0  0  0  0  0
   -7.2079    0.9271   -2.3239 H   0  0  0  0  0  0  0  0  0  0  0  0
   -5.7945   -0.0191   -2.8295 H   0  0  0  0  0  0  0  0  0  0  0  0
   -5.6181    1.7457   -2.5387 H   0  0  0  0  0  0  0  0  0  0  0  0
   -3.8246    0.2722    3.0383 H   0  0  0  0  0  0  0  0  0  0  0  0
   -2.2532    1.8960    1.2285 H   0  0  0  0  0  0  0  0  0  0  0  0
   -1.6055    0.8139    2.5636 H   0  0  0  0  0  0  0  0  0  0  0  0
    0.1016    0.7768    0.4506 H   0  0  0  0  0  0  0  0  0  0  0  0
   -0.7181   -1.7280   -1.1657 H   0  0  0  0  0  0  0  0  0  0  0  0
    1.3930   -1.5452    0.6832 H   0  0  0  0  0  0  0  0  0  0  0  0
    1.5076   -2.5733   -0.8677 H   0  0  0  0  0  0  0  0  0  0  0  0
    2.9534   -1.4714   -2.6102 H   0  0  0  0  0  0  0  0  0  0  0  0
    2.9836    1.2504   -2.4725 H   0  0  0  0  0  0  0  0  0  0  0  0
    4.2246    0.2559   -3.2693 H   0  0  0  0  0  0  0  0  0  0  0  0
    5.0519    2.0661   -1.8103 H   0  0  0  0  0  0  0  0  0  0  0  0
    4.4403    1.2071   -0.3756 H   0  0  0  0  0  0  0  0  0  0  0  0
    6.4536    0.3084   -2.5055 H   0  0  0  0  0  0  0  0  0  0  0  0
    5.8651    0.1443    1.1860 H   0  0  0  0  0  0  0  0  0  0  0  0
    7.5737    0.7696    2.8062 H   0  0  0  0  0  0  0  0  0  0  0  0
    9.8125    1.5447    1.9972 H   0  0  0  0  0  0  0  0  0  0  0  0
    8.5578    1.0423   -2.0159 H   0  0  0  0  0  0  0  0  0  0  0  0
    6.2806   -1.7230   -0.5482 H   0  0  0  0  0  0  0  0  0  0  0  0
    5.8405   -1.8419   -2.3046 H   0  0  0  0  0  0  0  0  0  0  0  0
    4.0402   -2.5926   -0.9309 H   0  0  0  0  0  0  0  0  0  0  0  0
    4.1677   -1.2054    0.1696 H   0  0  0  0  0  0  0  0  0  0  0  0
    0.9363   -1.0042   -2.8536 H   0  0  0  0  0  0  0  0  0  0  0  0
    0.5562    0.6812   -2.1568 H   0  0  0  0  0  0  0  0  0  0  0  0
   -6.0848   -0.2693    3.4071 H   0  0  0  0  0  0  0  0  0  0  0  0
   -9.7996   -0.6345    1.3068 H   0  0  0  0  0  0  0  0  0  0  0  0
   -8.5966    0.0237   -0.8054 H   0  0  0  0  0  0  0  0  0  0  0  0
  1  2  1  0
  2  3  1  0
  3  4  2  0
  4  5  1  0
  5  6  1  0
  6  7  1  0
  7  8  2  0
  7  9  1  0
  9 10  1  0
 10 11  1  0
 11 12  1  0
 12 13  1  0
 13 14  1  0
 14 15  1  0
 15 16  1  0
 16 17  1  0
 17 18  2  0
 18 19  1  0
 19 20  2  0
 20 21  1  0
 21 22  2  0
 16 23  1  0
 23 24  1  0
 12 25  1  0
  4 26  1  0
 26 27  2  0
 27 28  1  0
 28 29  1  0
 29 30  1  0
 29 31  1  0
 29 32  1  0
 28 33  2  0
 33 34  1  0
 34 35  2  0
 35  2  1  0
 25 10  1  0
 35 26  1  0
 24 13  1  0
 22 17  1  0
  1 36  1  0
  1 37  1  0
  1 38  1  0
  5 39  1  0
  6 40  1  0
  6 41  1  0
  9 42  1  0
 10 43  1  0
 11 44  1  0
 11 45  1  0
 13 46  1  6
 14 47  1  0
 14 48  1  0
 15 49  1  0
 15 50  1  0
 16 51  1  6
 18 52  1  0
 19 53  1  0
 20 54  1  0
 22 55  1  0
 23 56  1  0
 23 57  1  0
 24 58  1  0
 24 59  1  0
 25 60  1  0
 25 61  1  0
 27 62  1  0
 33 63  1  0
 34 64  1  0
M  END
$$$$
