@<TRIPOS>MOLECULE
*****
 64 68 0 0 0
SMALL
GASTEIGER

@<TRIPOS>ATOM
      1 C          -6.1178    0.8049   -2.1828 C.3     1  UNL1        0.0309
      2 N          -5.8124    0.5969   -0.7796 N.ar    1  UNL1       -0.2650
      3 N          -4.6182    0.7380   -0.2265 N.ar    1  UNL1       -0.1554
      4 C          -4.6757    0.4718    1.0888 C.ar    1  UNL1        0.1488
      5 N          -3.6254    0.5056    2.0435 N.pl3   1  UNL1       -0.3186
      6 C          -2.2715    0.8591    1.6697 C.3     1  UNL1        0.0870
      7 C          -1.7958   -0.1104    0.6599 C.2     1  UNL1        0.2305
      8 O          -2.5610   -1.0308    0.2923 O.2     1  UNL1       -0.2741
      9 N          -0.4790   -0.0034    0.1060 N.am    1  UNL1       -0.3087
     10 C          -0.0133   -0.9493   -0.8799 C.3     1  UNL1        0.0486
     11 C           1.2955   -1.5916   -0.4213 C.3     1  UNL1        0.0189
     12 N           1.9779   -0.4683   -1.0265 N.3     1  UNL1       -0.2958
     13 C           3.1888   -0.8063   -1.7447 C.3     1  UNL1        0.0106
     14 C           3.7485    0.4727   -2.2966 C.3     1  UNL1       -0.0368
     15 C           4.8203    1.0591   -1.3886 C.3     1  UNL1       -0.0447
     16 C           6.0361    0.1637   -1.4667 C.3     1  UNL1       -0.0143
     17 C           7.0987    0.5519   -0.5242 C.ar    1  UNL1       -0.0262
     18 C           6.8517    0.4858    0.8362 C.ar    1  UNL1       -0.0554
     19 C           7.8238    0.8416    1.7540 C.ar    1  UNL1       -0.0433
     20 C           9.0443    1.2636    1.2789 C.ar    1  UNL1        0.0276
     21 N           9.2847    1.3278   -0.0530 N.ar    1  UNL1       -0.2630
     22 C           8.3524    0.9862   -0.9564 C.ar    1  UNL1        0.0310
     23 C           5.6369   -1.2870   -1.3641 C.3     1  UNL1       -0.0447
     24 C           4.2122   -1.4762   -0.8948 C.3     1  UNL1       -0.0368
     25 C           0.8671   -0.3763   -1.9625 C.3     1  UNL1        0.0189
     26 C          -5.9839    0.1508    1.3436 C.ar    1  UNL1        0.0419
     27 C          -6.6714   -0.2123    2.4831 C.ar    1  UNL1       -0.0376
     28 C          -8.0216   -0.4874    2.4554 C.ar    1  UNL1        0.0556
     29 C          -8.6847   -0.8692    3.7155 C.3     1  UNL1        0.4174
     30 F          -8.9047    0.2949    4.4380 F       1  UNL1       -0.1659
     31 F          -9.8633   -1.5443    3.5080 F       1  UNL1       -0.1659
     32 F          -7.8472   -1.6685    4.4838 F       1  UNL1       -0.1659
     33 C          -8.7457   -0.4072    1.2628 C.ar    1  UNL1       -0.0481
     34 C          -8.0655   -0.0469    0.1301 C.ar    1  UNL1       -0.0355
     35 C          -6.7180    0.2261    0.1659 C.ar    1  UNL1        0.0705
     36 H          -7.2079    0.9271   -2.3239 H       1  UNL1        0.0473
     37 H          -5.7945   -0.0191   -2.8295 H       1  UNL1        0.0473
     38 H          -5.6181    1.7457   -2.5387 H       1  UNL1        0.0473
     39 H          -3.8246    0.2722    3.0383 H       1  UNL1        0.1480
     40 H          -2.2532    1.8960    1.2285 H       1  UNL1        0.0557
     41 H          -1.6055    0.8139    2.5636 H       1  UNL1        0.0557
     42 H           0.1016    0.7768    0.4506 H       1  UNL1        0.1491
     43 H          -0.7181   -1.7280   -1.1657 H       1  UNL1        0.0523
     44 H           1.3930   -1.5452    0.6832 H       1  UNL1        0.0445
     45 H           1.5076   -2.5733   -0.8677 H       1  UNL1        0.0445
     46 H           2.9534   -1.4714   -2.6102 H       1  UNL1        0.0462
     47 H           2.9836    1.2504   -2.4725 H       1  UNL1        0.0280
     48 H           4.2246    0.2559   -3.2693 H       1  UNL1        0.0280
     49 H           5.0519    2.0661   -1.8103 H       1  UNL1        0.0272
     50 H           4.4403    1.2071   -0.3756 H       1  UNL1        0.0272
     51 H           6.4536    0.3084   -2.5055 H       1  UNL1        0.0349
     52 H           5.8651    0.1443    1.1860 H       1  UNL1        0.0621
     53 H           7.5737    0.7696    2.8062 H       1  UNL1        0.0633
     54 H           9.8125    1.5447    1.9972 H       1  UNL1        0.0829
     55 H           8.5578    1.0423   -2.0159 H       1  UNL1        0.0832
     56 H           6.2806   -1.7230   -0.5482 H       1  UNL1        0.0272
     57 H           5.8405   -1.8419   -2.3046 H       1  UNL1        0.0272
     58 H           4.0402   -2.5926   -0.9309 H       1  UNL1        0.0280
     59 H           4.1677   -1.2054    0.1696 H       1  UNL1        0.0280
     60 H           0.9363   -1.0042   -2.8536 H       1  UNL1        0.0445
     61 H           0.5562    0.6812   -2.1568 H       1  UNL1        0.0445
     62 H          -6.0848   -0.2693    3.4071 H       1  UNL1        0.0631
     63 H          -9.7996   -0.6345    1.3068 H       1  UNL1        0.0624
     64 H          -8.5966    0.0237   -0.8054 H       1  UNL1        0.0639
@<TRIPOS>BOND
     1     1     2    1
     2     2     3   ar
     3     3     4   ar
     4     4     5    1
     5     5     6    1
     6     6     7    1
     7     7     8    2
     8     7     9   am
     9     9    10    1
    10    10    11    1
    11    11    12    1
    12    12    13    1
    13    13    14    1
    14    14    15    1
    15    15    16    1
    16    16    17    1
    17    17    18   ar
    18    18    19   ar
    19    19    20   ar
    20    20    21   ar
    21    21    22   ar
    22    16    23    1
    23    23    24    1
    24    12    25    1
    25     4    26   ar
    26    26    27   ar
    27    27    28   ar
    28    28    29    1
    29    29    30    1
    30    29    31    1
    31    29    32    1
    32    28    33   ar
    33    33    34   ar
    34    34    35   ar
    35    35     2   ar
    36    25    10    1
    37    35    26   ar
    38    24    13    1
    39    22    17   ar
    40     1    36    1
    41     1    37    1
    42     1    38    1
    43     5    39    1
    44     6    40    1
    45     6    41    1
    46     9    42    1
    47    10    43    1
    48    11    44    1
    49    11    45    1
    50    13    46    1
    51    14    47    1
    52    14    48    1
    53    15    49    1
    54    15    50    1
    55    16    51    1
    56    18    52    1
    57    19    53    1
    58    20    54    1
    59    22    55    1
    60    23    56    1
    61    23    57    1
    62    24    58    1
    63    24    59    1
    64    25    60    1
    65    25    61    1
    66    27    62    1
    67    33    63    1
    68    34    64    1
