
     RDKit          3D

 31 31  0  0  0  0  0  0  0  0999 V2000
   -3.2844   -0.9167    0.1940 C   0  0  0  0  0  0  0  0  0  0  0  0
   -2.6370    0.3580   -0.2870 C   0  0  0  0  0  0  0  0  0  0  0  0
   -2.7269    1.4685    0.7162 C   0  0  0  0  0  0  0  0  0  0  0  0
   -1.2896    0.0557   -0.7703 C   0  0  0  0  0  0  0  0  0  0  0  0
   -1.0728   -0.2832   -2.1015 C   0  0  0  0  0  0  0  0  0  0  0  0
    0.1653   -0.5814   -2.6337 C   0  0  0  0  0  0  0  0  0  0  0  0
    1.2615   -0.5359   -1.7686 C   0  0  0  0  0  0  0  0  0  0  0  0
    1.1260   -0.2091   -0.4404 C   0  0  0  0  0  0  0  0  0  0  0  0
    2.2595   -0.1468    0.5196 C   0  0  0  0  0  0  0  0  0  0  0  0
    2.8855    1.2289    0.5746 C   0  0  0  0  0  0  0  0  0  0  0  0
    3.3431   -1.1574    0.2163 C   0  0  0  0  0  0  0  0  0  0  0  0
   -0.1607    0.0801    0.0236 C   0  0  0  0  0  0  0  0  0  0  0  0
   -0.3121    0.4078    1.3460 O   0  0  0  0  0  0  0  0  0  0  0  0
   -3.9982   -0.7428    1.0159 H   0  0  0  0  0  0  0  0  0  0  0  0
   -3.8300   -1.4263   -0.6268 H   0  0  0  0  0  0  0  0  0  0  0  0
   -2.4722   -1.5970    0.5485 H   0  0  0  0  0  0  0  0  0  0  0  0
   -3.2473    0.6870   -1.1758 H   0  0  0  0  0  0  0  0  0  0  0  0
   -2.5891    1.1089    1.7555 H   0  0  0  0  0  0  0  0  0  0  0  0
   -2.0710    2.2886    0.4142 H   0  0  0  0  0  0  0  0  0  0  0  0
   -3.7713    1.8692    0.6724 H   0  0  0  0  0  0  0  0  0  0  0  0
   -1.9468   -0.3105   -2.7522 H   0  0  0  0  0  0  0  0  0  0  0  0
    0.2823   -0.8398   -3.6780 H   0  0  0  0  0  0  0  0  0  0  0  0
    2.2382   -0.7637   -2.1561 H   0  0  0  0  0  0  0  0  0  0  0  0
    1.8466   -0.3675    1.5329 H   0  0  0  0  0  0  0  0  0  0  0  0
    4.0022    1.1657    0.5110 H   0  0  0  0  0  0  0  0  0  0  0  0
    2.5695    1.8645   -0.2791 H   0  0  0  0  0  0  0  0  0  0  0  0
    2.6754    1.7379    1.5498 H   0  0  0  0  0  0  0  0  0  0  0  0
    4.2852   -0.6896   -0.1557 H   0  0  0  0  0  0  0  0  0  0  0  0
    2.9768   -1.8314   -0.5827 H   0  0  0  0  0  0  0  0  0  0  0  0
    3.6011   -1.7460    1.1260 H   0  0  0  0  0  0  0  0  0  0  0  0
   -0.1090   -0.1756    2.1288 H   0  0  0  0  0  0  0  0  0  0  0  0
  1  2  1  0
  2  3  1  0
  2  4  1  0
  4  5  2  0
  5  6  1  0
  6  7  2  0
  7  8  1  0
  8  9  1  0
  9 10  1  0
  9 11  1  0
  8 12  2  0
 12 13  1  0
 12  4  1  0
  1 14  1  0
  1 15  1  0
  1 16  1  0
  2 17  1  0
  3 18  1  0
  3 19  1  0
  3 20  1  0
  5 21  1  0
  6 22  1  0
  7 23  1  0
  9 24  1  0
 10 25  1  0
 10 26  1  0
 10 27  1  0
 11 28  1  0
 11 29  1  0
 11 30  1  0
 13 31  1  0
M  END
$$$$
