
     RDKit          3D

 53 55  0  0  0  0  0  0  0  0999 V2000
    6.5271    3.6219    0.1955 C   0  0  0  0  0  0  0  0  0  0  0  0
    5.8396    2.3068    0.1106 C   0  0  0  0  0  0  0  0  0  0  0  0
    4.4645    2.2176    0.1295 C   0  0  0  0  0  0  0  0  0  0  0  0
    3.8888    0.9831    0.0485 C   0  0  0  0  0  0  0  0  0  0  0  0
    2.1068    0.8856    0.0740 S   0  0  0  0  0  0  0  0  0  0  0  0
    1.5574   -0.8557   -0.0449 C   0  0  0  0  0  0  0  0  0  0  0  0
    0.0540   -0.8061   -0.0136 C   0  0  0  0  0  0  0  0  0  0  0  0
   -0.6774   -0.6954   -1.1775 C   0  0  0  0  0  0  0  0  0  0  0  0
   -2.0520   -0.6492   -1.1610 C   0  0  0  0  0  0  0  0  0  0  0  0
   -2.7386   -0.7128    0.0283 C   0  0  0  0  0  0  0  0  0  0  0  0
   -4.1234   -0.6706    0.1037 O   0  0  0  0  0  0  0  0  0  0  0  0
   -4.9258   -0.5579   -1.0531 C   0  0  0  0  0  0  0  0  0  0  0  0
   -6.3544   -0.5408   -0.6152 C   0  0  0  0  0  0  0  0  0  0  0  0
   -6.9853    0.6535   -0.3222 C   0  0  0  0  0  0  0  0  0  0  0  0
   -8.2988    0.6670    0.0802 C   0  0  0  0  0  0  0  0  0  0  0  0
   -9.0482   -0.4860    0.2123 C   0  0  0  0  0  0  0  0  0  0  0  0
  -10.4690   -0.4648    0.6482 C   0  0  0  0  0  0  0  0  0  0  0  0
  -11.1076    0.4857   -0.1348 F   0  0  0  0  0  0  0  0  0  0  0  0
  -10.5432   -0.0976    1.9876 F   0  0  0  0  0  0  0  0  0  0  0  0
  -11.0286   -1.6901    0.4129 F   0  0  0  0  0  0  0  0  0  0  0  0
   -8.4228   -1.6836   -0.0793 C   0  0  0  0  0  0  0  0  0  0  0  0
   -7.0999   -1.6942   -0.4843 C   0  0  0  0  0  0  0  0  0  0  0  0
   -2.0122   -0.8236    1.1958 C   0  0  0  0  0  0  0  0  0  0  0  0
   -0.6140   -0.8715    1.1915 C   0  0  0  0  0  0  0  0  0  0  0  0
    4.6467   -0.1575   -0.0499 C   0  0  0  0  0  0  0  0  0  0  0  0
    6.0219   -0.0873   -0.0700 C   0  0  0  0  0  0  0  0  0  0  0  0
    6.6218    1.1482    0.0101 C   0  0  0  0  0  0  0  0  0  0  0  0
    7.9923    1.2398   -0.0071 O   0  0  0  0  0  0  0  0  0  0  0  0
    8.9220    0.2209   -0.1106 C   0  0  0  0  0  0  0  0  0  0  0  0
    8.8660   -0.5699   -1.3523 C   0  0  0  0  0  0  0  0  0  0  0  0
    8.0780   -0.3488   -2.3072 O   0  0  0  0  0  0  0  0  0  0  0  0
    9.7301   -1.6624   -1.5424 O   0  0  0  0  0  0  0  0  0  0  0  0
    7.1809    3.8138   -0.6702 H   0  0  0  0  0  0  0  0  0  0  0  0
    5.7743    4.4200    0.2480 H   0  0  0  0  0  0  0  0  0  0  0  0
    7.1669    3.6958    1.1021 H   0  0  0  0  0  0  0  0  0  0  0  0
    3.9017    3.1404    0.2084 H   0  0  0  0  0  0  0  0  0  0  0  0
    1.8562   -1.4377    0.8438 H   0  0  0  0  0  0  0  0  0  0  0  0
    1.8615   -1.3058   -1.0030 H   0  0  0  0  0  0  0  0  0  0  0  0
   -0.1226   -0.6463   -2.1067 H   0  0  0  0  0  0  0  0  0  0  0  0
   -2.6221   -0.5635   -2.0594 H   0  0  0  0  0  0  0  0  0  0  0  0
   -4.6377    0.3608   -1.5851 H   0  0  0  0  0  0  0  0  0  0  0  0
   -4.7315   -1.4533   -1.7107 H   0  0  0  0  0  0  0  0  0  0  0  0
   -6.4211    1.5769   -0.4170 H   0  0  0  0  0  0  0  0  0  0  0  0
   -8.7885    1.6081    0.3089 H   0  0  0  0  0  0  0  0  0  0  0  0
   -8.9675   -2.6026    0.0100 H   0  0  0  0  0  0  0  0  0  0  0  0
   -6.5975   -2.6326   -0.7166 H   0  0  0  0  0  0  0  0  0  0  0  0
   -2.5647   -0.8739    2.1400 H   0  0  0  0  0  0  0  0  0  0  0  0
   -0.0884   -0.9596    2.1436 H   0  0  0  0  0  0  0  0  0  0  0  0
    4.1743   -1.1293   -0.1133 H   0  0  0  0  0  0  0  0  0  0  0  0
    6.6239   -1.0128   -0.1401 H   0  0  0  0  0  0  0  0  0  0  0  0
    8.7595   -0.4885    0.7489 H   0  0  0  0  0  0  0  0  0  0  0  0
    9.9609    0.6216    0.0103 H   0  0  0  0  0  0  0  0  0  0  0  0
    9.4657   -2.4359   -2.1673 H   0  0  0  0  0  0  0  0  0  0  0  0
  1  2  1  0
  2  3  2  0
  3  4  1  0
  4  5  1  0
  5  6  1  0
  6  7  1  0
  7  8  2  0
  8  9  1  0
  9 10  2  0
 10 11  1  0
 11 12  1  0
 12 13  1  0
 13 14  2  0
 14 15  1  0
 15 16  2  0
 16 17  1  0
 17 18  1  0
 17 19  1  0
 17 20  1  0
 16 21  1  0
 21 22  2  0
 10 23  1  0
 23 24  2  0
  4 25  2  0
 25 26  1  0
 26 27  2  0
 27 28  1  0
 28 29  1  0
 29 30  1  0
 30 31  2  0
 30 32  1  0
 27  2  1  0
 24  7  1  0
 22 13  1  0
  1 33  1  0
  1 34  1  0
  1 35  1  0
  3 36  1  0
  6 37  1  0
  6 38  1  0
  8 39  1  0
  9 40  1  0
 12 41  1  0
 12 42  1  0
 14 43  1  0
 15 44  1  0
 21 45  1  0
 22 46  1  0
 23 47  1  0
 24 48  1  0
 25 49  1  0
 26 50  1  0
 29 51  1  0
 29 52  1  0
 32 53  1  0
M  END
$$$$
