@<TRIPOS>MOLECULE
*****
 53 55 0 0 0
SMALL
GASTEIGER

@<TRIPOS>ATOM
      1 C           6.5271    3.6219    0.1955 C.3     1  UNL1       -0.0362
      2 C           5.8396    2.3068    0.1106 C.ar    1  UNL1       -0.0077
      3 C           4.4645    2.2176    0.1295 C.ar    1  UNL1       -0.0419
      4 C           3.8888    0.9831    0.0485 C.ar    1  UNL1        0.0087
      5 S           2.1068    0.8856    0.0740 S.3     1  UNL1       -0.1205
      6 C           1.5574   -0.8557   -0.0449 C.3     1  UNL1        0.0234
      7 C           0.0540   -0.8061   -0.0136 C.ar    1  UNL1       -0.0370
      8 C          -0.6774   -0.6954   -1.1775 C.ar    1  UNL1       -0.0543
      9 C          -2.0520   -0.6492   -1.1610 C.ar    1  UNL1       -0.0196
     10 C          -2.7386   -0.7128    0.0283 C.ar    1  UNL1        0.1210
     11 O          -4.1234   -0.6706    0.1037 O.3     1  UNL1       -0.4874
     12 C          -4.9258   -0.5579   -1.0531 C.3     1  UNL1        0.1146
     13 C          -6.3544   -0.5408   -0.6152 C.ar    1  UNL1       -0.0104
     14 C          -6.9853    0.6535   -0.3222 C.ar    1  UNL1       -0.0548
     15 C          -8.2988    0.6670    0.0802 C.ar    1  UNL1       -0.0498
     16 C          -9.0482   -0.4860    0.2123 C.ar    1  UNL1        0.0548
     17 C         -10.4690   -0.4648    0.6482 C.3     1  UNL1        0.4174
     18 F         -11.1076    0.4857   -0.1348 F       1  UNL1       -0.1659
     19 F         -10.5432   -0.0976    1.9876 F       1  UNL1       -0.1659
     20 F         -11.0286   -1.6901    0.4129 F       1  UNL1       -0.1659
     21 C          -8.4228   -1.6836   -0.0793 C.ar    1  UNL1       -0.0498
     22 C          -7.0999   -1.6942   -0.4843 C.ar    1  UNL1       -0.0548
     23 C          -2.0122   -0.8236    1.1958 C.ar    1  UNL1       -0.0196
     24 C          -0.6140   -0.8715    1.1915 C.ar    1  UNL1       -0.0543
     25 C           4.6467   -0.1575   -0.0499 C.ar    1  UNL1       -0.0448
     26 C           6.0219   -0.0873   -0.0700 C.ar    1  UNL1       -0.0186
     27 C           6.6218    1.1482    0.0101 C.ar    1  UNL1        0.1243
     28 O           7.9923    1.2398   -0.0071 O.3     1  UNL1       -0.4805
     29 C           8.9220    0.2209   -0.1106 C.3     1  UNL1        0.1857
     30 C           8.8660   -0.5699   -1.3523 C.2     1  UNL1        0.3427
     31 O           8.0780   -0.3488   -2.3072 O.2     1  UNL1       -0.2472
     32 O           9.7301   -1.6624   -1.5424 O.3     1  UNL1       -0.4783
     33 H           7.1809    3.8138   -0.6702 H       1  UNL1        0.0279
     34 H           5.7743    4.4200    0.2480 H       1  UNL1        0.0279
     35 H           7.1669    3.6958    1.1021 H       1  UNL1        0.0279
     36 H           3.9017    3.1404    0.2084 H       1  UNL1        0.0632
     37 H           1.8562   -1.4377    0.8438 H       1  UNL1        0.0428
     38 H           1.8615   -1.3058   -1.0030 H       1  UNL1        0.0428
     39 H          -0.1226   -0.6463   -2.1067 H       1  UNL1        0.0622
     40 H          -2.6221   -0.5635   -2.0594 H       1  UNL1        0.0654
     41 H          -4.6377    0.3608   -1.5851 H       1  UNL1        0.0748
     42 H          -4.7315   -1.4533   -1.7107 H       1  UNL1        0.0748
     43 H          -6.4211    1.5769   -0.4170 H       1  UNL1        0.0621
     44 H          -8.7885    1.6081    0.3089 H       1  UNL1        0.0623
     45 H          -8.9675   -2.6026    0.0100 H       1  UNL1        0.0623
     46 H          -6.5975   -2.6326   -0.7166 H       1  UNL1        0.0621
     47 H          -2.5647   -0.8739    2.1400 H       1  UNL1        0.0654
     48 H          -0.0884   -0.9596    2.1436 H       1  UNL1        0.0622
     49 H           4.1743   -1.1293   -0.1133 H       1  UNL1        0.0630
     50 H           6.6239   -1.0128   -0.1401 H       1  UNL1        0.0654
     51 H           8.7595   -0.4885    0.7489 H       1  UNL1        0.0815
     52 H           9.9609    0.6216    0.0103 H       1  UNL1        0.0815
     53 H           9.4657   -2.4359   -2.1673 H       1  UNL1        0.2952
@<TRIPOS>BOND
     1     1     2    1
     2     2     3   ar
     3     3     4   ar
     4     4     5    1
     5     5     6    1
     6     6     7    1
     7     7     8   ar
     8     8     9   ar
     9     9    10   ar
    10    10    11    1
    11    11    12    1
    12    12    13    1
    13    13    14   ar
    14    14    15   ar
    15    15    16   ar
    16    16    17    1
    17    17    18    1
    18    17    19    1
    19    17    20    1
    20    16    21   ar
    21    21    22   ar
    22    10    23   ar
    23    23    24   ar
    24     4    25   ar
    25    25    26   ar
    26    26    27   ar
    27    27    28    1
    28    28    29    1
    29    29    30    1
    30    30    31    2
    31    30    32    1
    32    27     2   ar
    33    24     7   ar
    34    22    13   ar
    35     1    33    1
    36     1    34    1
    37     1    35    1
    38     3    36    1
    39     6    37    1
    40     6    38    1
    41     8    39    1
    42     9    40    1
    43    12    41    1
    44    12    42    1
    45    14    43    1
    46    15    44    1
    47    21    45    1
    48    22    46    1
    49    23    47    1
    50    24    48    1
    51    25    49    1
    52    26    50    1
    53    29    51    1
    54    29    52    1
    55    32    53    1
