
     RDKit          3D

 47 49  0  0  0  0  0  0  0  0999 V2000
   -0.2641    4.0855   -0.2764 C   0  0  0  0  0  0  0  0  0  0  0  0
   -0.0796    2.6534   -0.0541 N   0  0  0  0  0  0  0  0  0  0  0  0
    1.1270    2.1133    0.1769 C   0  0  0  0  0  0  0  0  0  0  0  0
    1.3400    0.7690    0.3907 C   0  0  0  0  0  0  0  0  0  0  0  0
    2.6194    0.1978    0.6354 N   0  0  0  0  0  0  0  0  0  0  0  0
    3.4529   -0.2695   -0.4106 C   0  0  0  0  0  0  0  0  0  0  0  0
    3.0025   -0.1539   -1.5801 O   0  0  0  0  0  0  0  0  0  0  0  0
    4.7760   -0.8600   -0.1535 C   0  0  0  0  0  0  0  0  0  0  0  0
    5.5746   -1.3097   -1.1793 C   0  0  0  0  0  0  0  0  0  0  0  0
    6.8301   -1.8691   -0.9229 C   0  0  0  0  0  0  0  0  0  0  0  0
    7.2887   -1.9784    0.3734 C   0  0  0  0  0  0  0  0  0  0  0  0
    8.8478   -2.6669    0.7691 Cl  0  0  0  0  0  0  0  0  0  0  0  0
    6.4587   -1.5157    1.3788 C   0  0  0  0  0  0  0  0  0  0  0  0
    5.2591   -0.9846    1.0921 N   0  0  0  0  0  0  0  0  0  0  0  0
    0.2224   -0.0392    0.3579 C   0  0  0  0  0  0  0  0  0  0  0  0
   -1.0546    0.4869    0.1197 C   0  0  0  0  0  0  0  0  0  0  0  0
   -2.2505   -0.3879    0.0836 C   0  0  2  0  0  0  0  0  0  0  0  0
   -1.8415   -1.8201    0.4680 C   0  0  0  0  0  0  0  0  0  0  0  0
   -2.8263   -0.4357   -1.2852 C   0  0  0  0  0  0  0  0  0  0  0  0
   -4.2818   -0.2176   -1.4321 C   0  0  1  0  0  0  0  0  0  0  0  0
   -5.1327   -1.4712   -1.4026 C   0  0  0  0  0  0  0  0  0  0  0  0
   -4.8207   -2.3671   -2.3885 F   0  0  0  0  0  0  0  0  0  0  0  0
   -5.2363   -2.0163   -0.1446 F   0  0  0  0  0  0  0  0  0  0  0  0
   -6.4366   -1.0138   -1.6968 F   0  0  0  0  0  0  0  0  0  0  0  0
   -4.7680    0.6388   -0.4318 O   0  0  0  0  0  0  0  0  0  0  0  0
   -4.3356    0.5172    0.8660 C   0  0  0  0  0  0  0  0  0  0  0  0
   -5.2071    0.9277    1.9060 N   0  0  0  0  0  0  0  0  0  0  0  0
   -3.1645    0.0394    1.0953 N   0  0  0  0  0  0  0  0  0  0  0  0
   -1.1737    1.8305   -0.0818 C   0  0  0  0  0  0  0  0  0  0  0  0
   -2.2731    2.3626   -0.2978 O   0  0  0  0  0  0  0  0  0  0  0  0
   -1.2830    4.3312    0.0702 H   0  0  0  0  0  0  0  0  0  0  0  0
    0.5281    4.5948    0.3217 H   0  0  0  0  0  0  0  0  0  0  0  0
   -0.0780    4.2786   -1.3315 H   0  0  0  0  0  0  0  0  0  0  0  0
    1.9719    2.7746    0.1947 H   0  0  0  0  0  0  0  0  0  0  0  0
    3.0128    0.0935    1.6164 H   0  0  0  0  0  0  0  0  0  0  0  0
    5.2311   -1.2310   -2.1897 H   0  0  0  0  0  0  0  0  0  0  0  0
    7.4666   -2.2256   -1.7166 H   0  0  0  0  0  0  0  0  0  0  0  0
    6.8018   -1.5923    2.4150 H   0  0  0  0  0  0  0  0  0  0  0  0
    0.3076   -1.0921    0.5134 H   0  0  0  0  0  0  0  0  0  0  0  0
   -2.7397   -2.4437    0.6134 H   0  0  0  0  0  0  0  0  0  0  0  0
   -1.3348   -1.8071    1.4631 H   0  0  0  0  0  0  0  0  0  0  0  0
   -1.2278   -2.2861   -0.3163 H   0  0  0  0  0  0  0  0  0  0  0  0
   -2.5100   -1.3934   -1.8085 H   0  0  0  0  0  0  0  0  0  0  0  0
   -2.3028    0.3494   -1.9172 H   0  0  0  0  0  0  0  0  0  0  0  0
   -4.4528    0.2270   -2.4577 H   0  0  0  0  0  0  0  0  0  0  0  0
   -5.0444    1.8374    2.3660 H   0  0  0  0  0  0  0  0  0  0  0  0
   -5.9985    0.3394    2.2128 H   0  0  0  0  0  0  0  0  0  0  0  0
  1  2  1  0
  2  3  1  0
  3  4  2  0
  4  5  1  0
  5  6  1  0
  6  7  2  0
  6  8  1  0
  8  9  2  0
  9 10  1  0
 10 11  2  0
 11 12  1  0
 11 13  1  0
 13 14  2  0
  4 15  1  0
 15 16  2  0
 16 17  1  0
 17 18  1  1
 17 19  1  0
 19 20  1  0
 20 21  1  0
 21 22  1  0
 21 23  1  0
 21 24  1  0
 20 25  1  0
 25 26  1  0
 26 27  1  0
 26 28  2  0
 16 29  1  0
 29 30  2  0
 29  2  1  0
 14  8  1  0
 28 17  1  0
  1 31  1  0
  1 32  1  0
  1 33  1  0
  3 34  1  0
  5 35  1  0
  9 36  1  0
 10 37  1  0
 13 38  1  0
 15 39  1  0
 18 40  1  0
 18 41  1  0
 18 42  1  0
 19 43  1  0
 19 44  1  0
 20 45  1  6
 27 46  1  0
 27 47  1  0
M  END
$$$$
