@<TRIPOS>MOLECULE
*****
 47 49 0 0 0
SMALL
GASTEIGER

@<TRIPOS>ATOM
      1 C          -0.2641    4.0855   -0.2764 C.3     1  UNL1        0.0148
      2 N          -0.0796    2.6534   -0.0541 N.ar    1  UNL1       -0.3162
      3 C           1.1270    2.1133    0.1769 C.ar    1  UNL1        0.0288
      4 C           1.3400    0.7690    0.3907 C.ar    1  UNL1        0.0505
      5 N           2.6194    0.1978    0.6354 N.am    1  UNL1       -0.2790
      6 C           3.4529   -0.2695   -0.4106 C.2     1  UNL1        0.2666
      7 O           3.0025   -0.1539   -1.5801 O.2     1  UNL1       -0.2682
      8 C           4.7760   -0.8600   -0.1535 C.ar    1  UNL1        0.1257
      9 C           5.5746   -1.3097   -1.1793 C.ar    1  UNL1       -0.0298
     10 C           6.8301   -1.8691   -0.9229 C.ar    1  UNL1       -0.0397
     11 C           7.2887   -1.9784    0.3734 C.ar    1  UNL1        0.0591
     12 CL          8.8478   -2.6669    0.7691 Cl      1  UNL1       -0.0820
     13 C           6.4587   -1.5157    1.3788 C.ar    1  UNL1        0.0467
     14 N           5.2591   -0.9846    1.0921 N.ar    1  UNL1       -0.2489
     15 C           0.2224   -0.0392    0.3579 C.ar    1  UNL1       -0.0284
     16 C          -1.0546    0.4869    0.1197 C.ar    1  UNL1        0.0461
     17 C          -2.2505   -0.3879    0.0836 C.3     1  UNL1        0.0975
     18 C          -1.8415   -1.8201    0.4680 C.3     1  UNL1       -0.0352
     19 C          -2.8263   -0.4357   -1.2852 C.3     1  UNL1        0.0224
     20 C          -4.2818   -0.2176   -1.4321 C.3     1  UNL1        0.1997
     21 C          -5.1327   -1.4712   -1.4026 C.3     1  UNL1        0.4266
     22 F          -4.8207   -2.3671   -2.3885 F       1  UNL1       -0.1669
     23 F          -5.2363   -2.0163   -0.1446 F       1  UNL1       -0.1669
     24 F          -6.4366   -1.0138   -1.6968 F       1  UNL1       -0.1669
     25 O          -4.7680    0.6388   -0.4318 O.2     1  UNL1       -0.4534
     26 C          -4.3356    0.5172    0.8660 C.2     1  UNL1        0.2765
     27 N          -5.2071    0.9277    1.9060 N.pl3   1  UNL1       -0.3134
     28 N          -3.1645    0.0394    1.0953 N.2     1  UNL1       -0.2256
     29 C          -1.1737    1.8305   -0.0818 C.ar    1  UNL1        0.2566
     30 O          -2.2731    2.3626   -0.2978 O.2     1  UNL1       -0.2673
     31 H          -1.2830    4.3312    0.0702 H       1  UNL1        0.0457
     32 H           0.5281    4.5948    0.3217 H       1  UNL1        0.0457
     33 H          -0.0780    4.2786   -1.3315 H       1  UNL1        0.0457
     34 H           1.9719    2.7746    0.1947 H       1  UNL1        0.0829
     35 H           3.0128    0.0935    1.6164 H       1  UNL1        0.1552
     36 H           5.2311   -1.2310   -2.1897 H       1  UNL1        0.0641
     37 H           7.4666   -2.2256   -1.7166 H       1  UNL1        0.0633
     38 H           6.8018   -1.5923    2.4150 H       1  UNL1        0.0844
     39 H           0.3076   -1.0921    0.5134 H       1  UNL1        0.0642
     40 H          -2.7397   -2.4437    0.6134 H       1  UNL1        0.0256
     41 H          -1.3348   -1.8071    1.4631 H       1  UNL1        0.0256
     42 H          -1.2278   -2.2861   -0.3163 H       1  UNL1        0.0256
     43 H          -2.5100   -1.3934   -1.8085 H       1  UNL1        0.0330
     44 H          -2.3028    0.3494   -1.9172 H       1  UNL1        0.0330
     45 H          -4.4528    0.2270   -2.4577 H       1  UNL1        0.0826
     46 H          -5.0444    1.8374    2.3660 H       1  UNL1        0.1466
     47 H          -5.9985    0.3394    2.2128 H       1  UNL1        0.1466
@<TRIPOS>BOND
     1     1     2    1
     2     2     3   ar
     3     3     4   ar
     4     4     5    1
     5     5     6   am
     6     6     7    2
     7     6     8    1
     8     8     9   ar
     9     9    10   ar
    10    10    11   ar
    11    11    12    1
    12    11    13   ar
    13    13    14   ar
    14     4    15   ar
    15    15    16   ar
    16    16    17    1
    17    17    18    1
    18    17    19    1
    19    19    20    1
    20    20    21    1
    21    21    22    1
    22    21    23    1
    23    21    24    1
    24    20    25    1
    25    25    26    1
    26    26    27    1
    27    26    28    2
    28    16    29   ar
    29    29    30    2
    30    29     2   ar
    31    14     8   ar
    32    28    17    1
    33     1    31    1
    34     1    32    1
    35     1    33    1
    36     3    34    1
    37     5    35    1
    38     9    36    1
    39    10    37    1
    40    13    38    1
    41    15    39    1
    42    18    40    1
    43    18    41    1
    44    18    42    1
    45    19    43    1
    46    19    44    1
    47    20    45    1
    48    27    46    1
    49    27    47    1
