
     RDKit          3D

 37 40  0  0  0  0  0  0  0  0999 V2000
    0.5909   -0.6957   -1.3511 O   0  0  0  0  0  0  0  0  0  0  0  0
    0.3447    0.3384   -0.7165 C   0  0  0  0  0  0  0  0  0  0  0  0
   -0.9543    0.6436   -0.1306 C   0  0  0  0  0  0  0  0  0  0  0  0
   -2.0123   -0.3395   -0.1720 C   0  0  0  0  0  0  0  0  0  0  0  0
   -1.9031   -1.6670   -0.4941 C   0  0  0  0  0  0  0  0  0  0  0  0
   -2.9833   -2.5434   -0.4786 C   0  0  0  0  0  0  0  0  0  0  0  0
   -4.2215   -2.0919   -0.1310 C   0  0  0  0  0  0  0  0  0  0  0  0
   -4.3754   -0.7629    0.2012 C   0  0  0  0  0  0  0  0  0  0  0  0
   -5.6481   -0.3069    0.5574 C   0  0  0  0  0  0  0  0  0  0  0  0
   -5.7788    0.9911    0.8763 N   0  0  0  0  0  0  0  0  0  0  0  0
   -4.7511    1.8516    0.8671 C   0  0  0  0  0  0  0  0  0  0  0  0
   -3.4704    1.4155    0.5149 C   0  0  0  0  0  0  0  0  0  0  0  0
   -3.2959    0.1054    0.1835 C   0  0  0  0  0  0  0  0  0  0  0  0
    1.4515    1.2447   -0.5885 N   0  0  0  0  0  0  0  0  0  0  0  0
    2.7396    1.0224   -1.1319 C   0  0  0  0  0  0  0  0  0  0  0  0
    3.2394    1.5873   -2.7666 S   0  0  0  0  0  0  0  0  0  0  0  0
    4.8725    0.9787   -2.6700 C   0  0  0  0  0  0  0  0  0  0  0  0
    4.9558    0.3880   -1.4276 C   0  0  0  0  0  0  0  0  0  0  0  0
    6.6851   -0.4082   -0.9692 Br  0  0  0  0  0  0  0  0  0  0  0  0
    3.8412    0.4297   -0.6665 C   0  0  0  0  0  0  0  0  0  0  0  0
    3.7841   -0.1798    0.7051 C   0  0  0  0  0  0  0  0  0  0  0  0
    2.6729   -0.1702    1.5089 N   0  0  0  0  0  0  0  0  0  0  0  0
    2.9626   -0.7903    2.6324 N   0  0  0  0  0  0  0  0  0  0  0  0
    4.2337   -1.2174    2.6125 C   0  0  0  0  0  0  0  0  0  0  0  0
    4.7028   -0.8172    1.4038 N   0  0  0  0  0  0  0  0  0  0  0  0
   -0.8698    1.1807    0.8514 H   0  0  0  0  0  0  0  0  0  0  0  0
   -1.3465    1.4995   -0.7942 H   0  0  0  0  0  0  0  0  0  0  0  0
   -0.9355   -2.0735   -0.7686 H   0  0  0  0  0  0  0  0  0  0  0  0
   -2.8293   -3.5650   -0.7407 H   0  0  0  0  0  0  0  0  0  0  0  0
   -5.0946   -2.7506   -0.1045 H   0  0  0  0  0  0  0  0  0  0  0  0
   -6.4579   -1.0196    0.5609 H   0  0  0  0  0  0  0  0  0  0  0  0
   -4.9038    2.8847    1.1310 H   0  0  0  0  0  0  0  0  0  0  0  0
   -2.6386    2.0962    0.5108 H   0  0  0  0  0  0  0  0  0  0  0  0
    1.2828    2.1166   -0.0611 H   0  0  0  0  0  0  0  0  0  0  0  0
    5.6437    1.0667   -3.4478 H   0  0  0  0  0  0  0  0  0  0  0  0
    4.7945   -1.7591    3.3684 H   0  0  0  0  0  0  0  0  0  0  0  0
    5.6724   -1.0238    1.1255 H   0  0  0  0  0  0  0  0  0  0  0  0
  1  2  2  0
  2  3  1  0
  3  4  1  0
  4  5  2  0
  5  6  1  0
  6  7  2  0
  7  8  1  0
  8  9  2  0
  9 10  1  0
 10 11  2  0
 11 12  1  0
 12 13  2  0
  2 14  1  0
 14 15  1  0
 15 16  1  0
 16 17  1  0
 17 18  2  0
 18 19  1  0
 18 20  1  0
 20 21  1  0
 21 22  2  0
 22 23  1  0
 23 24  2  0
 24 25  1  0
 13  4  1  0
 20 15  2  0
 25 21  1  0
 13  8  1  0
  3 26  1  0
  3 27  1  0
  5 28  1  0
  6 29  1  0
  7 30  1  0
  9 31  1  0
 11 32  1  0
 12 33  1  0
 14 34  1  0
 17 35  1  0
 24 36  1  0
 25 37  1  0
M  END
$$$$
