@<TRIPOS>MOLECULE
*****
 37 40 0 0 0
SMALL
GASTEIGER

@<TRIPOS>ATOM
      1 O           0.5909   -0.6957   -1.3511 O.2     1  UNL1       -0.2751
      2 C           0.3447    0.3384   -0.7165 C.2     1  UNL1        0.2219
      3 C          -0.9543    0.6436   -0.1306 C.3     1  UNL1        0.0500
      4 C          -2.0123   -0.3395   -0.1720 C.ar    1  UNL1       -0.0308
      5 C          -1.9031   -1.6670   -0.4941 C.ar    1  UNL1       -0.0575
      6 C          -2.9833   -2.5434   -0.4786 C.ar    1  UNL1       -0.0609
      7 C          -4.2215   -2.0919   -0.1310 C.ar    1  UNL1       -0.0526
      8 C          -4.3754   -0.7629    0.2012 C.ar    1  UNL1        0.0005
      9 C          -5.6481   -0.3069    0.5574 C.ar    1  UNL1        0.0353
     10 N          -5.7788    0.9911    0.8763 N.ar    1  UNL1       -0.2626
     11 C          -4.7511    1.8516    0.8671 C.ar    1  UNL1        0.0282
     12 C          -3.4704    1.4155    0.5149 C.ar    1  UNL1       -0.0356
     13 C          -3.2959    0.1054    0.1835 C.ar    1  UNL1       -0.0114
     14 N           1.4515    1.2447   -0.5885 N.am    1  UNL1       -0.2791
     15 C           2.7396    1.0224   -1.1319 C.ar    1  UNL1        0.0836
     16 S           3.2394    1.5873   -2.7666 S.2     1  UNL1       -0.0801
     17 C           4.8725    0.9787   -2.6700 C.ar    1  UNL1       -0.0078
     18 C           4.9558    0.3880   -1.4276 C.ar    1  UNL1        0.0374
     19 BR          6.6851   -0.4082   -0.9692 Br      1  UNL1       -0.0490
     20 C           3.8412    0.4297   -0.6665 C.ar    1  UNL1        0.0614
     21 C           3.7841   -0.1798    0.7051 C.ar    1  UNL1        0.1648
     22 N           2.6729   -0.1702    1.5089 N.ar    1  UNL1       -0.1295
     23 N           2.9626   -0.7903    2.6324 N.ar    1  UNL1       -0.1377
     24 C           4.2337   -1.2174    2.6125 C.ar    1  UNL1        0.1175
     25 N           4.7028   -0.8172    1.4038 N.ar    1  UNL1       -0.3276
     26 H          -0.8698    1.1807    0.8514 H       1  UNL1        0.0407
     27 H          -1.3465    1.4995   -0.7942 H       1  UNL1        0.0407
     28 H          -0.9355   -2.0735   -0.7686 H       1  UNL1        0.0621
     29 H          -2.8293   -3.5650   -0.7407 H       1  UNL1        0.0618
     30 H          -5.0946   -2.7506   -0.1045 H       1  UNL1        0.0624
     31 H          -6.4579   -1.0196    0.5609 H       1  UNL1        0.0836
     32 H          -4.9038    2.8847    1.1310 H       1  UNL1        0.0830
     33 H          -2.6386    2.0962    0.5108 H       1  UNL1        0.0639
     34 H           1.2828    2.1166   -0.0611 H       1  UNL1        0.1553
     35 H           5.6437    1.0667   -3.4478 H       1  UNL1        0.0705
     36 H           4.7945   -1.7591    3.3684 H       1  UNL1        0.1046
     37 H           5.6724   -1.0238    1.1255 H       1  UNL1        0.1683
@<TRIPOS>BOND
     1     1     2    2
     2     2     3    1
     3     3     4    1
     4     4     5   ar
     5     5     6   ar
     6     6     7   ar
     7     7     8   ar
     8     8     9   ar
     9     9    10   ar
    10    10    11   ar
    11    11    12   ar
    12    12    13   ar
    13     2    14   am
    14    14    15    1
    15    15    16   ar
    16    16    17   ar
    17    17    18   ar
    18    18    19    1
    19    18    20   ar
    20    20    21    1
    21    21    22   ar
    22    22    23   ar
    23    23    24   ar
    24    24    25   ar
    25    13     4   ar
    26    20    15   ar
    27    25    21   ar
    28    13     8   ar
    29     3    26    1
    30     3    27    1
    31     5    28    1
    32     6    29    1
    33     7    30    1
    34     9    31    1
    35    11    32    1
    36    12    33    1
    37    14    34    1
    38    17    35    1
    39    24    36    1
    40    25    37    1
