@<TRIPOS>MOLECULE
*****
 60 62 0 0 0
SMALL
GASTEIGER

@<TRIPOS>ATOM
      1 O           6.7930   -2.0068   -0.0344 O.3     1  UNL1       -0.3924
      2 C           7.3652   -1.1379   -0.9709 C.3     1  UNL1        0.0730
      3 C           6.6603    0.2184   -0.9384 C.3     1  UNL1        0.1130
      4 O           5.3259    0.0966   -1.2323 O.3     1  UNL1       -0.3400
      5 C           4.4792    0.2967   -0.1542 C.3     1  UNL1        0.1988
      6 O           3.1829    0.1722   -0.6526 O.3     1  UNL1       -0.2536
      7 P           2.4394   -1.0852    0.2379 P.3     1  UNL1        0.4857
      8 O           3.0928   -2.5886   -0.2429 O.3     1  UNL1       -0.3022
      9 O           2.7081   -0.9283    1.7165 O.2     1  UNL1       -0.2268
     10 O           0.7961   -1.1388   -0.0606 O.3     1  UNL1       -0.1860
     11 P          -0.0962   -1.7651    1.2411 P.3     1  UNL1        0.4835
     12 O           0.5206   -3.2554    1.7418 O.3     1  UNL1       -0.3022
     13 O          -0.0380   -0.7681    2.3730 O.2     1  UNL1       -0.2269
     14 O          -1.6907   -1.9492    0.6487 O.3     1  UNL1       -0.2837
     15 C          -1.9607   -0.7941   -0.0702 C.3     1  UNL1        0.0879
     16 C          -3.3353   -0.7596   -0.6817 C.3     1  UNL1        0.1134
     17 O          -4.3581   -0.8440    0.2414 O.3     1  UNL1       -0.3456
     18 C          -5.4451   -0.2673   -0.4357 C.3     1  UNL1        0.1679
     19 C          -4.8307    1.0648   -0.8189 C.3     1  UNL1        0.1286
     20 O          -5.5622    1.7383   -1.7734 O.3     1  UNL1       -0.3847
     21 C          -3.4740    0.6005   -1.3527 C.3     1  UNL1        0.1135
     22 O          -3.6049    0.3962   -2.7272 O.3     1  UNL1       -0.3864
     23 N          -6.6303   -0.1624    0.3501 N.ar    1  UNL1       -0.2715
     24 C          -7.8217   -0.1481   -0.3168 C.ar    1  UNL1        0.0171
     25 C          -9.0491   -0.0514    0.3055 C.ar    1  UNL1        0.0192
     26 C          -8.9999    0.0325    1.6812 C.ar    1  UNL1        0.2539
     27 O         -10.1284    0.1223    2.2680 O.2     1  UNL1       -0.2677
     28 N          -7.8526    0.0225    2.3826 N.ar    1  UNL1       -0.2749
     29 C          -6.6819   -0.0754    1.7000 C.ar    1  UNL1        0.3314
     30 O          -5.5991   -0.0875    2.3184 O.2     1  UNL1       -0.2464
     31 C           4.6080    1.6808    0.4386 C.3     1  UNL1        0.1346
     32 O           3.7205    2.5701   -0.1734 O.3     1  UNL1       -0.3841
     33 C           6.0272    2.1822    0.3310 C.3     1  UNL1        0.1141
     34 O           6.4099    3.0147    1.3634 O.3     1  UNL1       -0.3864
     35 C           6.9555    0.9771    0.3145 C.3     1  UNL1        0.1119
     36 O           6.8446    0.2219    1.4625 O.3     1  UNL1       -0.3865
     37 H           5.9517   -2.3181   -0.4624 H       1  UNL1        0.2095
     38 H           8.4311   -0.9372   -0.7296 H       1  UNL1        0.0584
     39 H           7.3002   -1.5204   -1.9995 H       1  UNL1        0.0584
     40 H           7.1292    0.8050   -1.7761 H       1  UNL1        0.0647
     41 H           4.5857   -0.4635    0.6509 H       1  UNL1        0.0943
     42 H           3.4663   -2.5158   -1.1580 H       1  UNL1        0.2220
     43 H           0.9483   -3.7701    1.0049 H       1  UNL1        0.2220
     44 H          -1.8442    0.1252    0.5590 H       1  UNL1        0.0592
     45 H          -1.2318   -0.7129   -0.8979 H       1  UNL1        0.0592
     46 H          -3.4753   -1.5764   -1.4147 H       1  UNL1        0.0647
     47 H          -5.6631   -0.8176   -1.3755 H       1  UNL1        0.0867
     48 H          -4.6811    1.6718    0.1079 H       1  UNL1        0.0665
     49 H          -5.6037    2.7029   -1.4809 H       1  UNL1        0.2101
     50 H          -2.6721    1.3035   -1.0883 H       1  UNL1        0.0647
     51 H          -3.0530   -0.4000   -3.0097 H       1  UNL1        0.2100
     52 H          -7.8211   -0.2169   -1.4148 H       1  UNL1        0.0813
     53 H          -9.9445   -0.0468   -0.2933 H       1  UNL1        0.0686
     54 H          -7.8598    0.0877    3.4187 H       1  UNL1        0.1734
     55 H           4.3168    1.6095    1.5017 H       1  UNL1        0.0671
     56 H           3.8358    2.6105   -1.1420 H       1  UNL1        0.2101
     57 H           6.1533    2.6664   -0.6748 H       1  UNL1        0.0648
     58 H           6.2948    3.9527    1.0173 H       1  UNL1        0.2100
     59 H           8.0088    1.3240    0.2465 H       1  UNL1        0.0647
     60 H           6.6571    0.8419    2.2310 H       1  UNL1        0.2100
@<TRIPOS>BOND
     1     1     2    1
     2     2     3    1
     3     3     4    1
     4     4     5    1
     5     5     6    1
     6     7     6    1
     7     7     8    1
     8     7     9    2
     9     7    10    1
    10    11    10    1
    11    11    12    1
    12    11    13    2
    13    11    14    1
    14    14    15    1
    15    15    16    1
    16    16    17    1
    17    17    18    1
    18    18    19    1
    19    19    20    1
    20    19    21    1
    21    21    22    1
    22    18    23    1
    23    23    24   ar
    24    24    25   ar
    25    25    26   ar
    26    26    27    2
    27    26    28   ar
    28    28    29   ar
    29    29    30    2
    30     5    31    1
    31    31    32    1
    32    31    33    1
    33    33    34    1
    34    33    35    1
    35    35    36    1
    36    35     3    1
    37    21    16    1
    38    29    23   ar
    39     1    37    1
    40     2    38    1
    41     2    39    1
    42     3    40    1
    43     5    41    1
    44     8    42    1
    45    12    43    1
    46    15    44    1
    47    15    45    1
    48    16    46    1
    49    18    47    1
    50    19    48    1
    51    20    49    1
    52    21    50    1
    53    22    51    1
    54    24    52    1
    55    25    53    1
    56    28    54    1
    57    31    55    1
    58    32    56    1
    59    33    57    1
    60    34    58    1
    61    35    59    1
    62    36    60    1
