@<TRIPOS>MOLECULE
*****
 127 128 0 0 0
SMALL
GASTEIGER

@<TRIPOS>ATOM
      1 C          -9.9990   -3.3712    3.0845 C.3     1  UNK1       -0.0524
      2 C          -8.5317   -3.0925    3.2283 C.3     1  UNK1       -0.0040
      3 N          -7.8701   -2.9936    1.9970 N.3     1  UNK1       -0.3028
      4 C          -7.7006   -4.1288    1.2244 C.3     1  UNK1       -0.0040
      5 C          -8.9866   -4.6757    0.6178 C.3     1  UNK1       -0.0524
      6 C          -7.0985   -1.8309    1.7764 C.3     1  UNK1       -0.0011
      7 C          -6.3788   -1.7405    0.4793 C.3     1  UNK1       -0.0401
      8 C          -5.6092   -0.4149    0.3483 C.3     1  UNK1       -0.0498
      9 C          -4.9348   -0.3963   -0.9822 C.3     1  UNK1       -0.0259
     10 C          -4.1312    0.8723   -1.2454 C.3     1  UNK1        0.0994
     11 N          -3.1210    0.9658   -0.2369 N.am    1  UNK1       -0.3025
     12 C          -1.7502    0.7843   -0.5316 C.2     1  UNK1        0.2340
     13 O          -1.5071    0.5368   -1.7664 O.2     1  UNK1       -0.2738
     14 C          -0.6257    0.8349    0.3751 C.3     1  UNK1        0.0996
     15 C          -0.2383    2.0936    1.0375 C.3     1  UNK1       -0.0236
     16 C          -1.1714    2.8067    1.9218 C.3     1  UNK1       -0.0446
     17 C          -1.6898    2.0253    3.1045 C.3     1  UNK1       -0.0626
     18 C          -2.2187    3.6629    1.3103 C.3     1  UNK1       -0.0626
     19 N           0.5932    0.2776   -0.2972 N.am    1  UNK1       -0.3025
     20 C           1.1863    0.9554   -1.3888 C.2     1  UNK1        0.2337
     21 O           0.6268    2.0457   -1.7723 O.2     1  UNK1       -0.2738
     22 C           2.3927    0.5073   -2.1175 C.3     1  UNK1        0.0966
     23 C           1.9077    0.1989   -3.5394 C.3     1  UNK1       -0.0381
     24 N           3.0316   -0.6287   -1.5373 N.am    1  UNK1       -0.3027
     25 C           4.4782   -0.7386   -1.4822 C.2     1  UNK1        0.2343
     26 O           5.0917    0.2199   -1.9730 O.2     1  UNK1       -0.2738
     27 C           5.1309   -1.8996   -0.8952 C.3     1  UNK1        0.1036
     28 C           4.6259   -2.3157    0.4627 C.3     1  UNK1       -0.0006
     29 C           4.8397   -1.2330    1.4957 C.ar    1  UNK1       -0.0451
     30 C           6.0338   -1.2233    2.1860 C.ar    1  UNK1       -0.0585
     31 C           6.2590   -0.2638    3.1339 C.ar    1  UNK1       -0.0615
     32 C           5.3297    0.7061    3.4319 C.ar    1  UNK1       -0.0617
     33 C           4.1554    0.6710    2.7313 C.ar    1  UNK1       -0.0615
     34 C           3.9018   -0.2807    1.7731 C.ar    1  UNK1       -0.0585
     35 N           6.5553   -1.9095   -0.8992 N.am    1  UNK1       -0.2997
     36 C           7.4816   -0.8619   -0.8240 C.2     0  UNK0        0.2447
     37 O           7.0668    0.3195   -0.7233 O.2     0  UNK0       -0.2702
     38 C           8.9246   -1.0621   -0.8546 C.ar    0  UNK0        0.0367
     39 C           9.5346   -2.2890   -0.9264 C.ar    0  UNK0       -0.0494
     40 C          10.9213   -2.4272   -0.9430 C.ar    0  UNK0       -0.0574
     41 C          11.7362   -1.3288   -0.8875 C.ar    0  UNK0       -0.0419
     42 C          13.2362   -1.4787   -0.8981 C.3     0  UNK0       -0.0127
     43 C          13.6062   -2.9323   -0.9811 C.3     0  UNK0       -0.0560
     44 C          13.8342   -0.8860    0.3398 C.3     0  UNK0       -0.0560
     45 C          13.6999   -0.7537   -2.1680 C.3     0  UNK0       -0.0560
     46 C          11.1545   -0.0823   -0.8153 C.ar    0  UNK0       -0.0574
     47 C           9.7622    0.0336   -0.7999 C.ar    0  UNK0       -0.0494
     48 C          -5.0014    2.0617   -1.2203 C.2     1  UNK1        0.2340
     49 O          -4.8327    3.0562   -0.4872 O.2     1  UNK1       -0.2738
     50 N          -6.1384    2.1095   -2.0909 N.am    2  UNK2       -0.3006
     51 C          -7.0134    3.2891   -2.0747 C.3     2  UNK2        0.1228
     52 C          -7.1340    3.7850   -3.4916 C.3     2  UNK2        0.0711
     53 O          -7.6797    2.7872   -4.3126 O.3     2  UNK2       -0.3927
     54 C          -8.3140    2.9568   -1.4533 C.2     2  UNK2        0.2377
     55 O          -8.5326    1.7445   -1.1322 O.2     2  UNK2       -0.2735
     56 N          -9.3336    3.8977   -1.1891 N.am    2  UNK2       -0.3060
     57 C         -10.5960    3.4528   -0.5780 C.3     2  UNK2        0.0029
     58 C          -9.2045    5.3208   -1.4790 C.3     2  UNK2        0.0029
     59 H         -10.2542   -4.4220    3.4067 H       1  UNK1        0.0242
     60 H         -10.4228   -3.1415    2.0906 H       1  UNK1        0.0242
     61 H         -10.5855   -2.7405    3.8352 H       1  UNK1        0.0242
     62 H          -8.4219   -2.1714    3.8647 H       1  UNK1        0.0424
     63 H          -8.1275   -3.9377    3.8794 H       1  UNK1        0.0424
     64 H          -7.2066   -4.9973    1.7656 H       1  UNK1        0.0424
     65 H          -6.9817   -3.9319    0.3717 H       1  UNK1        0.0424
     66 H          -9.6043   -5.2302    1.3184 H       1  UNK1        0.0242
     67 H          -8.6594   -5.4185   -0.1914 H       1  UNK1        0.0242
     68 H          -9.5501   -3.9019    0.0596 H       1  UNK1        0.0242
     69 H          -7.7449   -0.9412    1.9694 H       1  UNK1        0.0426
     70 H          -6.3275   -1.7789    2.5907 H       1  UNK1        0.0426
     71 H          -5.6040   -2.5709    0.4473 H       1  UNK1        0.0278
     72 H          -7.0704   -1.8963   -0.3597 H       1  UNK1        0.0278
     73 H          -4.9461   -0.3182    1.2080 H       1  UNK1        0.0266
     74 H          -6.3936    0.3714    0.4120 H       1  UNK1        0.0266
     75 H          -4.3176   -1.2853   -1.1305 H       1  UNK1        0.0288
     76 H          -5.7397   -0.4331   -1.7648 H       1  UNK1        0.0288
     77 H          -3.6177    0.7728   -2.2469 H       1  UNK1        0.0594
     78 H          -3.4021    1.1570    0.7456 H       1  UNK1        0.1495
     79 H          -0.8359    0.0885    1.2037 H       1  UNK1        0.0594
     80 H           0.1751    2.8646    0.3165 H       1  UNK1        0.0290
     81 H           0.6926    1.8762    1.6724 H       1  UNK1        0.0290
     82 H          -0.4795    3.5951    2.4546 H       1  UNK1        0.0296
     83 H          -2.7822    1.8434    2.9494 H       1  UNK1        0.0232
     84 H          -1.1766    1.0661    3.2690 H       1  UNK1        0.0232
     85 H          -1.6312    2.5744    4.0658 H       1  UNK1        0.0232
     86 H          -2.1772    4.7417    1.5982 H       1  UNK1        0.0232
     87 H          -3.2421    3.3450    1.6708 H       1  UNK1        0.0232
     88 H          -2.2218    3.5300    0.2175 H       1  UNK1        0.0232
     89 H           1.0138   -0.6197    0.0175 H       1  UNK1        0.1495
     90 H           3.1410    1.2936   -2.2451 H       1  UNK1        0.0592
     91 H           2.6681   -0.3082   -4.1319 H       1  UNK1        0.0252
     92 H           1.7230    1.1824   -4.0165 H       1  UNK1        0.0252
     93 H           0.9377   -0.3276   -3.4910 H       1  UNK1        0.0252
     94 H           2.4895   -1.3977   -1.1445 H       1  UNK1        0.1495
     95 H           4.8397   -2.7520   -1.6198 H       1  UNK1        0.0598
     96 H           5.2116   -3.1878    0.8105 H       1  UNK1        0.0336
     97 H           3.5635   -2.6348    0.4536 H       1  UNK1        0.0336
     98 H           6.8007   -1.9774    1.9809 H       1  UNK1        0.0620
     99 H           7.1989   -0.2299    3.6966 H       1  UNK1        0.0618
    100 H           5.5206    1.4722    4.1955 H       1  UNK1        0.0618
    101 H           3.3814    1.4175    2.9293 H       1  UNK1        0.0618
    102 H           2.9509   -0.2732    1.2346 H       1  UNK1        0.0620
    103 H           7.0263   -2.8874   -0.9663 H       1  UNK1        0.1498
    104 H           8.9452   -3.1989   -0.9716 H       0  UNK0        0.0625
    105 H          11.3351   -3.4092   -0.9999 H       0  UNK0        0.0621
    106 H          13.2323   -3.4724   -0.1020 H       0  UNK0        0.0238
    107 H          13.1756   -3.3834   -1.8951 H       0  UNK0        0.0238
    108 H          14.7140   -3.0078   -1.0006 H       0  UNK0        0.0238
    109 H          14.7372   -0.3050    0.0358 H       0  UNK0        0.0238
    110 H          14.1606   -1.6580    1.0784 H       0  UNK0        0.0238
    111 H          13.1446   -0.2187    0.8977 H       0  UNK0        0.0238
    112 H          13.4240   -1.4625   -3.0014 H       0  UNK0        0.0238
    113 H          14.7869   -0.5432   -2.1383 H       0  UNK0        0.0238
    114 H          13.0676    0.1290   -2.2744 H       0  UNK0        0.0238
    115 H          11.7484    0.8264   -0.7707 H       0  UNK0        0.0621
    116 H           9.2926    1.0134   -0.7443 H       0  UNK0        0.0625
    117 H          -6.3513    1.3234   -2.7309 H       2  UNK2        0.1496
    118 H          -6.5671    4.0863   -1.4545 H       2  UNK2        0.0618
    119 H          -7.7707    4.6725   -3.6052 H       2  UNK2        0.0580
    120 H          -6.1166    4.0319   -3.8601 H       2  UNK2        0.0580
    121 H          -8.3636    2.2415   -3.8339 H       2  UNK2        0.2095
    122 H         -10.4051    2.4823   -0.0750 H       2  UNK2        0.0428
    123 H         -10.9169    4.2083    0.1738 H       2  UNK2        0.0428
    124 H         -11.3146    3.3387   -1.3999 H       2  UNK2        0.0428
    125 H          -9.7265    5.9005   -0.6671 H       2  UNK2        0.0428
    126 H          -9.6536    5.5889   -2.4478 H       2  UNK2        0.0428
    127 H          -8.1433    5.5977   -1.4739 H       2  UNK2        0.0428
@<TRIPOS>BOND
     1     1     2    1
     2     2     3    1
     3     3     4    1
     4     4     5    1
     5     3     6    1
     6     6     7    1
     7     7     8    1
     8     8     9    1
     9     9    10    1
    10    10    11    1
    11    11    12   am
    12    12    13    2
    13    12    14    1
    14    14    15    1
    15    15    16    1
    16    16    17    1
    17    16    18    1
    18    14    19    1
    19    19    20   am
    20    20    21    2
    21    20    22    1
    22    22    23    1
    23    22    24    1
    24    24    25   am
    25    25    26    2
    26    25    27    1
    27    27    28    1
    28    28    29    1
    29    29    30   ar
    30    30    31   ar
    31    31    32   ar
    32    32    33   ar
    33    33    34   ar
    34    27    35    1
    35    35    36   am
    36    36    37    2
    37    36    38    1
    38    38    39   ar
    39    39    40   ar
    40    40    41   ar
    41    41    42    1
    42    42    43    1
    43    42    44    1
    44    42    45    1
    45    41    46   ar
    46    46    47   ar
    47    10    48    1
    48    48    49    2
    49    48    50   am
    50    50    51    1
    51    51    52    1
    52    52    53    1
    53    51    54    1
    54    54    55    2
    55    54    56   am
    56    56    57    1
    57    56    58    1
    58    34    29   ar
    59    47    38   ar
    60     1    59    1
    61     1    60    1
    62     1    61    1
    63     2    62    1
    64     2    63    1
    65     4    64    1
    66     4    65    1
    67     5    66    1
    68     5    67    1
    69     5    68    1
    70     6    69    1
    71     6    70    1
    72     7    71    1
    73     7    72    1
    74     8    73    1
    75     8    74    1
    76     9    75    1
    77     9    76    1
    78    10    77    1
    79    11    78    1
    80    14    79    1
    81    15    80    1
    82    15    81    1
    83    16    82    1
    84    17    83    1
    85    17    84    1
    86    17    85    1
    87    18    86    1
    88    18    87    1
    89    18    88    1
    90    19    89    1
    91    22    90    1
    92    23    91    1
    93    23    92    1
    94    23    93    1
    95    24    94    1
    96    27    95    1
    97    28    96    1
    98    28    97    1
    99    30    98    1
   100    31    99    1
   101    32   100    1
   102    33   101    1
   103    34   102    1
   104    35   103    1
   105    39   104    1
   106    40   105    1
   107    43   106    1
   108    43   107    1
   109    43   108    1
   110    44   109    1
   111    44   110    1
   112    44   111    1
   113    45   112    1
   114    45   113    1
   115    45   114    1
   116    46   115    1
   117    47   116    1
   118    50   117    1
   119    51   118    1
   120    52   119    1
   121    52   120    1
   122    53   121    1
   123    57   122    1
   124    57   123    1
   125    57   124    1
   126    58   125    1
   127    58   126    1
   128    58   127    1
