
     RDKit          3D

127128  0  0  0  0  0  0  0  0999 V2000
   -9.9990   -3.3712    3.0845 C   0  0  0  0  0  0  0  0  0  0  0  0
   -8.5317   -3.0925    3.2283 C   0  0  0  0  0  0  0  0  0  0  0  0
   -7.8701   -2.9936    1.9970 N   0  0  0  0  0  0  0  0  0  0  0  0
   -7.7006   -4.1288    1.2244 C   0  0  0  0  0  0  0  0  0  0  0  0
   -8.9866   -4.6757    0.6178 C   0  0  0  0  0  0  0  0  0  0  0  0
   -7.0985   -1.8309    1.7764 C   0  0  0  0  0  0  0  0  0  0  0  0
   -6.3788   -1.7405    0.4793 C   0  0  0  0  0  0  0  0  0  0  0  0
   -5.6092   -0.4149    0.3483 C   0  0  0  0  0  0  0  0  0  0  0  0
   -4.9348   -0.3963   -0.9822 C   0  0  0  0  0  0  0  0  0  0  0  0
   -4.1312    0.8723   -1.2454 C   0  0  2  0  0  0  0  0  0  0  0  0
   -3.1210    0.9658   -0.2369 N   0  0  0  0  0  0  0  0  0  0  0  0
   -1.7502    0.7843   -0.5316 C   0  0  0  0  0  0  0  0  0  0  0  0
   -1.5071    0.5368   -1.7664 O   0  0  0  0  0  0  0  0  0  0  0  0
   -0.6257    0.8349    0.3751 C   0  0  2  0  0  0  0  0  0  0  0  0
   -0.2383    2.0936    1.0375 C   0  0  0  0  0  0  0  0  0  0  0  0
   -1.1714    2.8067    1.9218 C   0  0  0  0  0  0  0  0  0  0  0  0
   -1.6898    2.0253    3.1045 C   0  0  0  0  0  0  0  0  0  0  0  0
   -2.2187    3.6629    1.3103 C   0  0  0  0  0  0  0  0  0  0  0  0
    0.5932    0.2776   -0.2972 N   0  0  0  0  0  0  0  0  0  0  0  0
    1.1863    0.9554   -1.3888 C   0  0  0  0  0  0  0  0  0  0  0  0
    0.6268    2.0457   -1.7723 O   0  0  0  0  0  0  0  0  0  0  0  0
    2.3927    0.5073   -2.1175 C   0  0  2  0  0  0  0  0  0  0  0  0
    1.9077    0.1989   -3.5394 C   0  0  0  0  0  0  0  0  0  0  0  0
    3.0316   -0.6287   -1.5373 N   0  0  0  0  0  0  0  0  0  0  0  0
    4.4782   -0.7386   -1.4822 C   0  0  0  0  0  0  0  0  0  0  0  0
    5.0917    0.2199   -1.9730 O   0  0  0  0  0  0  0  0  0  0  0  0
    5.1309   -1.8996   -0.8952 C   0  0  2  0  0  0  0  0  0  0  0  0
    4.6259   -2.3157    0.4627 C   0  0  0  0  0  0  0  0  0  0  0  0
    4.8397   -1.2330    1.4957 C   0  0  0  0  0  0  0  0  0  0  0  0
    6.0338   -1.2233    2.1860 C   0  0  0  0  0  0  0  0  0  0  0  0
    6.2590   -0.2638    3.1339 C   0  0  0  0  0  0  0  0  0  0  0  0
    5.3297    0.7061    3.4319 C   0  0  0  0  0  0  0  0  0  0  0  0
    4.1554    0.6710    2.7313 C   0  0  0  0  0  0  0  0  0  0  0  0
    3.9018   -0.2807    1.7731 C   0  0  0  0  0  0  0  0  0  0  0  0
    6.5553   -1.9095   -0.8992 N   0  0  0  0  0  0  0  0  0  0  0  0
    7.4816   -0.8619   -0.8240 C   0  0  0  0  0  0  0  0  0  0  0  0
    7.0668    0.3195   -0.7233 O   0  0  0  0  0  0  0  0  0  0  0  0
    8.9246   -1.0621   -0.8546 C   0  0  0  0  0  0  0  0  0  0  0  0
    9.5346   -2.2890   -0.9264 C   0  0  0  0  0  0  0  0  0  0  0  0
   10.9213   -2.4272   -0.9430 C   0  0  0  0  0  0  0  0  0  0  0  0
   11.7362   -1.3288   -0.8875 C   0  0  0  0  0  0  0  0  0  0  0  0
   13.2362   -1.4787   -0.8981 C   0  0  0  0  0  0  0  0  0  0  0  0
   13.6062   -2.9323   -0.9811 C   0  0  0  0  0  0  0  0  0  0  0  0
   13.8342   -0.8860    0.3398 C   0  0  0  0  0  0  0  0  0  0  0  0
   13.6999   -0.7537   -2.1680 C   0  0  0  0  0  0  0  0  0  0  0  0
   11.1545   -0.0823   -0.8153 C   0  0  0  0  0  0  0  0  0  0  0  0
    9.7622    0.0336   -0.7999 C   0  0  0  0  0  0  0  0  0  0  0  0
   -5.0014    2.0617   -1.2203 C   0  0  0  0  0  0  0  0  0  0  0  0
   -4.8327    3.0562   -0.4872 O   0  0  0  0  0  0  0  0  0  0  0  0
   -6.1384    2.1095   -2.0909 N   0  0  0  0  0  0  0  0  0  0  0  0
   -7.0134    3.2891   -2.0747 C   0  0  1  0  0  0  0  0  0  0  0  0
   -7.1340    3.7850   -3.4916 C   0  0  0  0  0  0  0  0  0  0  0  0
   -7.6797    2.7872   -4.3126 O   0  0  0  0  0  0  0  0  0  0  0  0
   -8.3140    2.9568   -1.4533 C   0  0  0  0  0  0  0  0  0  0  0  0
   -8.5326    1.7445   -1.1322 O   0  0  0  0  0  0  0  0  0  0  0  0
   -9.3336    3.8977   -1.1891 N   0  0  0  0  0  0  0  0  0  0  0  0
  -10.5960    3.4528   -0.5780 C   0  0  0  0  0  0  0  0  0  0  0  0
   -9.2045    5.3208   -1.4790 C   0  0  0  0  0  0  0  0  0  0  0  0
  -10.2542   -4.4220    3.4067 H   0  0  0  0  0  0  0  0  0  0  0  0
  -10.4228   -3.1415    2.0906 H   0  0  0  0  0  0  0  0  0  0  0  0
  -10.5855   -2.7405    3.8352 H   0  0  0  0  0  0  0  0  0  0  0  0
   -8.4219   -2.1714    3.8647 H   0  0  0  0  0  0  0  0  0  0  0  0
   -8.1275   -3.9377    3.8794 H   0  0  0  0  0  0  0  0  0  0  0  0
   -7.2066   -4.9973    1.7656 H   0  0  0  0  0  0  0  0  0  0  0  0
   -6.9817   -3.9319    0.3717 H   0  0  0  0  0  0  0  0  0  0  0  0
   -9.6043   -5.2302    1.3184 H   0  0  0  0  0  0  0  0  0  0  0  0
   -8.6594   -5.4185   -0.1914 H   0  0  0  0  0  0  0  0  0  0  0  0
   -9.5501   -3.9019    0.0596 H   0  0  0  0  0  0  0  0  0  0  0  0
   -7.7449   -0.9412    1.9694 H   0  0  0  0  0  0  0  0  0  0  0  0
   -6.3275   -1.7789    2.5907 H   0  0  0  0  0  0  0  0  0  0  0  0
   -5.6040   -2.5709    0.4473 H   0  0  0  0  0  0  0  0  0  0  0  0
   -7.0704   -1.8963   -0.3597 H   0  0  0  0  0  0  0  0  0  0  0  0
   -4.9461   -0.3182    1.2080 H   0  0  0  0  0  0  0  0  0  0  0  0
   -6.3936    0.3714    0.4120 H   0  0  0  0  0  0  0  0  0  0  0  0
   -4.3176   -1.2853   -1.1305 H   0  0  0  0  0  0  0  0  0  0  0  0
   -5.7397   -0.4331   -1.7648 H   0  0  0  0  0  0  0  0  0  0  0  0
   -3.6177    0.7728   -2.2469 H   0  0  0  0  0  0  0  0  0  0  0  0
   -3.4021    1.1570    0.7456 H   0  0  0  0  0  0  0  0  0  0  0  0
   -0.8359    0.0885    1.2037 H   0  0  0  0  0  0  0  0  0  0  0  0
    0.1751    2.8646    0.3165 H   0  0  0  0  0  0  0  0  0  0  0  0
    0.6926    1.8762    1.6724 H   0  0  0  0  0  0  0  0  0  0  0  0
   -0.4795    3.5951    2.4546 H   0  0  0  0  0  0  0  0  0  0  0  0
   -2.7822    1.8434    2.9494 H   0  0  0  0  0  0  0  0  0  0  0  0
   -1.1766    1.0661    3.2690 H   0  0  0  0  0  0  0  0  0  0  0  0
   -1.6312    2.5744    4.0658 H   0  0  0  0  0  0  0  0  0  0  0  0
   -2.1772    4.7417    1.5982 H   0  0  0  0  0  0  0  0  0  0  0  0
   -3.2421    3.3450    1.6708 H   0  0  0  0  0  0  0  0  0  0  0  0
   -2.2218    3.5300    0.2175 H   0  0  0  0  0  0  0  0  0  0  0  0
    1.0138   -0.6197    0.0175 H   0  0  0  0  0  0  0  0  0  0  0  0
    3.1410    1.2936   -2.2451 H   0  0  0  0  0  0  0  0  0  0  0  0
    2.6681   -0.3082   -4.1319 H   0  0  0  0  0  0  0  0  0  0  0  0
    1.7230    1.1824   -4.0165 H   0  0  0  0  0  0  0  0  0  0  0  0
    0.9377   -0.3276   -3.4910 H   0  0  0  0  0  0  0  0  0  0  0  0
    2.4895   -1.3977   -1.1445 H   0  0  0  0  0  0  0  0  0  0  0  0
    4.8397   -2.7520   -1.6198 H   0  0  0  0  0  0  0  0  0  0  0  0
    5.2116   -3.1878    0.8105 H   0  0  0  0  0  0  0  0  0  0  0  0
    3.5635   -2.6348    0.4536 H   0  0  0  0  0  0  0  0  0  0  0  0
    6.8007   -1.9774    1.9809 H   0  0  0  0  0  0  0  0  0  0  0  0
    7.1989   -0.2299    3.6966 H   0  0  0  0  0  0  0  0  0  0  0  0
    5.5206    1.4722    4.1955 H   0  0  0  0  0  0  0  0  0  0  0  0
    3.3814    1.4175    2.9293 H   0  0  0  0  0  0  0  0  0  0  0  0
    2.9509   -0.2732    1.2346 H   0  0  0  0  0  0  0  0  0  0  0  0
    7.0263   -2.8874   -0.9663 H   0  0  0  0  0  0  0  0  0  0  0  0
    8.9452   -3.1989   -0.9716 H   0  0  0  0  0  0  0  0  0  0  0  0
   11.3351   -3.4092   -0.9999 H   0  0  0  0  0  0  0  0  0  0  0  0
   13.2323   -3.4724   -0.1020 H   0  0  0  0  0  0  0  0  0  0  0  0
   13.1756   -3.3834   -1.8951 H   0  0  0  0  0  0  0  0  0  0  0  0
   14.7140   -3.0078   -1.0006 H   0  0  0  0  0  0  0  0  0  0  0  0
   14.7372   -0.3050    0.0358 H   0  0  0  0  0  0  0  0  0  0  0  0
   14.1606   -1.6580    1.0784 H   0  0  0  0  0  0  0  0  0  0  0  0
   13.1446   -0.2187    0.8977 H   0  0  0  0  0  0  0  0  0  0  0  0
   13.4240   -1.4625   -3.0014 H   0  0  0  0  0  0  0  0  0  0  0  0
   14.7869   -0.5432   -2.1383 H   0  0  0  0  0  0  0  0  0  0  0  0
   13.0676    0.1290   -2.2744 H   0  0  0  0  0  0  0  0  0  0  0  0
   11.7484    0.8264   -0.7707 H   0  0  0  0  0  0  0  0  0  0  0  0
    9.2926    1.0134   -0.7443 H   0  0  0  0  0  0  0  0  0  0  0  0
   -6.3513    1.3234   -2.7309 H   0  0  0  0  0  0  0  0  0  0  0  0
   -6.5671    4.0863   -1.4545 H   0  0  0  0  0  0  0  0  0  0  0  0
   -7.7707    4.6725   -3.6052 H   0  0  0  0  0  0  0  0  0  0  0  0
   -6.1166    4.0319   -3.8601 H   0  0  0  0  0  0  0  0  0  0  0  0
   -8.3636    2.2415   -3.8339 H   0  0  0  0  0  0  0  0  0  0  0  0
  -10.4051    2.4823   -0.0750 H   0  0  0  0  0  0  0  0  0  0  0  0
  -10.9169    4.2083    0.1738 H   0  0  0  0  0  0  0  0  0  0  0  0
  -11.3146    3.3387   -1.3999 H   0  0  0  0  0  0  0  0  0  0  0  0
   -9.7265    5.9005   -0.6671 H   0  0  0  0  0  0  0  0  0  0  0  0
   -9.6536    5.5889   -2.4478 H   0  0  0  0  0  0  0  0  0  0  0  0
   -8.1433    5.5977   -1.4739 H   0  0  0  0  0  0  0  0  0  0  0  0
  1  2  1  0
  2  3  1  0
  3  4  1  0
  4  5  1  0
  3  6  1  0
  6  7  1  0
  7  8  1  0
  8  9  1  0
  9 10  1  0
 10 11  1  0
 11 12  1  0
 12 13  2  0
 12 14  1  0
 14 15  1  0
 15 16  1  0
 16 17  1  0
 16 18  1  0
 14 19  1  0
 19 20  1  0
 20 21  2  0
 20 22  1  0
 22 23  1  0
 22 24  1  0
 24 25  1  0
 25 26  2  0
 25 27  1  0
 27 28  1  0
 28 29  1  0
 29 30  2  0
 30 31  1  0
 31 32  2  0
 32 33  1  0
 33 34  2  0
 27 35  1  0
 35 36  1  0
 36 37  2  0
 36 38  1  0
 38 39  2  0
 39 40  1  0
 40 41  2  0
 41 42  1  0
 42 43  1  0
 42 44  1  0
 42 45  1  0
 41 46  1  0
 46 47  2  0
 10 48  1  0
 48 49  2  0
 48 50  1  0
 50 51  1  0
 51 52  1  0
 52 53  1  0
 51 54  1  0
 54 55  2  0
 54 56  1  0
 56 57  1  0
 56 58  1  0
 34 29  1  0
 47 38  1  0
  1 59  1  0
  1 60  1  0
  1 61  1  0
  2 62  1  0
  2 63  1  0
  4 64  1  0
  4 65  1  0
  5 66  1  0
  5 67  1  0
  5 68  1  0
  6 69  1  0
  6 70  1  0
  7 71  1  0
  7 72  1  0
  8 73  1  0
  8 74  1  0
  9 75  1  0
  9 76  1  0
 10 77  1  6
 11 78  1  0
 14 79  1  1
 15 80  1  0
 15 81  1  0
 16 82  1  0
 17 83  1  0
 17 84  1  0
 17 85  1  0
 18 86  1  0
 18 87  1  0
 18 88  1  0
 19 89  1  0
 22 90  1  6
 23 91  1  0
 23 92  1  0
 23 93  1  0
 24 94  1  0
 27 95  1  6
 28 96  1  0
 28 97  1  0
 30 98  1  0
 31 99  1  0
 32100  1  0
 33101  1  0
 34102  1  0
 35103  1  0
 39104  1  0
 40105  1  0
 43106  1  0
 43107  1  0
 43108  1  0
 44109  1  0
 44110  1  0
 44111  1  0
 45112  1  0
 45113  1  0
 45114  1  0
 46115  1  0
 47116  1  0
 50117  1  0
 51118  1  1
 52119  1  0
 52120  1  0
 53121  1  0
 57122  1  0
 57123  1  0
 57124  1  0
 58125  1  0
 58126  1  0
 58127  1  0
M  END
$$$$
