@<TRIPOS>MOLECULE
*****
 39 41 0 0 0
SMALL
GASTEIGER

@<TRIPOS>ATOM
      1 C          -4.2513    0.3372    2.4970 C.3     1  UNL1       -0.0178
      2 C          -3.4261    0.4294    1.2631 C.3     1  UNL1        0.1663
      3 C          -3.0170    1.8205    0.8907 C.3     1  UNL1       -0.0178
      4 O          -2.3474   -0.4868    1.2725 O.2     1  UNL1       -0.4783
      5 C          -2.1458   -0.9055   -0.0297 C.2     1  UNL1        0.1252
      6 C          -0.8839   -1.4939   -0.5339 C.2     1  UNL1       -0.0205
      7 C          -0.7529   -1.8712   -1.7765 C.2     1  UNL1       -0.0437
      8 C           0.4401   -2.4644   -2.4029 C.3     1  UNL1        0.1082
      9 O           1.5359   -2.6206   -1.5828 O.3     1  UNL1       -0.4878
     10 C           2.2528   -1.6011   -1.0113 C.ar    1  UNL1        0.1245
     11 C           3.3226   -1.8681   -0.1772 C.ar    1  UNL1       -0.0191
     12 C           4.0917   -0.9055    0.4286 C.ar    1  UNL1       -0.0476
     13 C           3.7559    0.4109    0.1732 C.ar    1  UNL1        0.0178
     14 C           4.4576    1.4416    0.7269 C.ar    1  UNL1       -0.0443
     15 C           4.0910    2.7393    0.4474 C.ar    1  UNL1        0.0236
     16 C           3.0251    2.9848   -0.3840 C.ar    1  UNL1        0.3372
     17 O           2.6754    4.1785   -0.6509 O.2     1  UNL1       -0.2452
     18 O           2.3765    1.9627   -0.8962 O.2     1  UNL1       -0.4220
     19 C           2.6951    0.7122   -0.6539 C.ar    1  UNL1        0.1425
     20 C           1.9295   -0.2895   -1.2573 C.ar    1  UNL1        0.0231
     21 C          -3.2226   -0.7134   -0.7664 C.2     1  UNL1        0.0266
     22 C          -4.2387   -0.1110    0.1234 C.2     1  UNL1        0.2022
     23 O          -5.4686   -0.0713   -0.0484 O.2     1  UNL1       -0.2883
     24 H          -3.9741    1.0759    3.2813 H       1  UNL1        0.0272
     25 H          -5.3293    0.4275    2.2212 H       1  UNL1        0.0272
     26 H          -4.1258   -0.6805    2.9239 H       1  UNL1        0.0272
     27 H          -2.4860    2.3647    1.6829 H       1  UNL1        0.0272
     28 H          -3.9177    2.3562    0.5361 H       1  UNL1        0.0272
     29 H          -2.3361    1.7415    0.0098 H       1  UNL1        0.0272
     30 H          -0.0614   -1.6316    0.1420 H       1  UNL1        0.0652
     31 H          -1.6451   -1.7199   -2.4069 H       1  UNL1        0.0607
     32 H           0.1950   -3.4864   -2.8364 H       1  UNL1        0.0742
     33 H           0.6730   -1.8649   -3.3230 H       1  UNL1        0.0742
     34 H           3.5584   -2.9205    0.0015 H       1  UNL1        0.0654
     35 H           4.9279   -1.1324    1.0805 H       1  UNL1        0.0626
     36 H           5.2874    1.2038    1.3739 H       1  UNL1        0.0627
     37 H           4.6445    3.5480    0.8841 H       1  UNL1        0.0689
     38 H           1.1107    0.0263   -1.9040 H       1  UNL1        0.0691
     39 H          -3.4163   -0.9226   -1.8159 H       1  UNL1        0.0690
@<TRIPOS>BOND
     1     1     2    1
     2     2     3    1
     3     2     4    1
     4     4     5    1
     5     5     6    1
     6     6     7    2
     7     7     8    1
     8     8     9    1
     9     9    10    1
    10    10    11   ar
    11    11    12   ar
    12    12    13   ar
    13    13    14   ar
    14    14    15   ar
    15    15    16   ar
    16    16    17    2
    17    16    18   ar
    18    18    19   ar
    19    19    20   ar
    20     5    21    2
    21    21    22    1
    22    22    23    2
    23    22     2    1
    24    20    10   ar
    25    19    13   ar
    26     1    24    1
    27     1    25    1
    28     1    26    1
    29     3    27    1
    30     3    28    1
    31     3    29    1
    32     6    30    1
    33     7    31    1
    34     8    32    1
    35     8    33    1
    36    11    34    1
    37    12    35    1
    38    14    36    1
    39    15    37    1
    40    20    38    1
    41    21    39    1
