
     RDKit          3D

 39 41  0  0  0  0  0  0  0  0999 V2000
   -4.2513    0.3372    2.4970 C   0  0  0  0  0  0  0  0  0  0  0  0
   -3.4261    0.4294    1.2631 C   0  0  0  0  0  0  0  0  0  0  0  0
   -3.0170    1.8205    0.8907 C   0  0  0  0  0  0  0  0  0  0  0  0
   -2.3474   -0.4868    1.2725 O   0  0  0  0  0  0  0  0  0  0  0  0
   -2.1458   -0.9055   -0.0297 C   0  0  0  0  0  0  0  0  0  0  0  0
   -0.8839   -1.4939   -0.5339 C   0  0  0  0  0  0  0  0  0  0  0  0
   -0.7529   -1.8712   -1.7765 C   0  0  0  0  0  0  0  0  0  0  0  0
    0.4401   -2.4644   -2.4029 C   0  0  0  0  0  0  0  0  0  0  0  0
    1.5359   -2.6206   -1.5828 O   0  0  0  0  0  0  0  0  0  0  0  0
    2.2528   -1.6011   -1.0113 C   0  0  0  0  0  0  0  0  0  0  0  0
    3.3226   -1.8681   -0.1772 C   0  0  0  0  0  0  0  0  0  0  0  0
    4.0917   -0.9055    0.4286 C   0  0  0  0  0  0  0  0  0  0  0  0
    3.7559    0.4109    0.1732 C   0  0  0  0  0  0  0  0  0  0  0  0
    4.4576    1.4416    0.7269 C   0  0  0  0  0  0  0  0  0  0  0  0
    4.0910    2.7393    0.4474 C   0  0  0  0  0  0  0  0  0  0  0  0
    3.0251    2.9848   -0.3840 C   0  0  0  0  0  0  0  0  0  0  0  0
    2.6754    4.1785   -0.6509 O   0  0  0  0  0  0  0  0  0  0  0  0
    2.3765    1.9627   -0.8962 O   0  0  0  0  0  0  0  0  0  0  0  0
    2.6951    0.7122   -0.6539 C   0  0  0  0  0  0  0  0  0  0  0  0
    1.9295   -0.2895   -1.2573 C   0  0  0  0  0  0  0  0  0  0  0  0
   -3.2226   -0.7134   -0.7664 C   0  0  0  0  0  0  0  0  0  0  0  0
   -4.2387   -0.1110    0.1234 C   0  0  0  0  0  0  0  0  0  0  0  0
   -5.4686   -0.0713   -0.0484 O   0  0  0  0  0  0  0  0  0  0  0  0
   -3.9741    1.0759    3.2813 H   0  0  0  0  0  0  0  0  0  0  0  0
   -5.3293    0.4275    2.2212 H   0  0  0  0  0  0  0  0  0  0  0  0
   -4.1258   -0.6805    2.9239 H   0  0  0  0  0  0  0  0  0  0  0  0
   -2.4860    2.3647    1.6829 H   0  0  0  0  0  0  0  0  0  0  0  0
   -3.9177    2.3562    0.5361 H   0  0  0  0  0  0  0  0  0  0  0  0
   -2.3361    1.7415    0.0098 H   0  0  0  0  0  0  0  0  0  0  0  0
   -0.0614   -1.6316    0.1420 H   0  0  0  0  0  0  0  0  0  0  0  0
   -1.6451   -1.7199   -2.4069 H   0  0  0  0  0  0  0  0  0  0  0  0
    0.1950   -3.4864   -2.8364 H   0  0  0  0  0  0  0  0  0  0  0  0
    0.6730   -1.8649   -3.3230 H   0  0  0  0  0  0  0  0  0  0  0  0
    3.5584   -2.9205    0.0015 H   0  0  0  0  0  0  0  0  0  0  0  0
    4.9279   -1.1324    1.0805 H   0  0  0  0  0  0  0  0  0  0  0  0
    5.2874    1.2038    1.3739 H   0  0  0  0  0  0  0  0  0  0  0  0
    4.6445    3.5480    0.8841 H   0  0  0  0  0  0  0  0  0  0  0  0
    1.1107    0.0263   -1.9040 H   0  0  0  0  0  0  0  0  0  0  0  0
   -3.4163   -0.9226   -1.8159 H   0  0  0  0  0  0  0  0  0  0  0  0
  1  2  1  0
  2  3  1  0
  2  4  1  0
  4  5  1  0
  5  6  1  0
  6  7  2  0
  7  8  1  0
  8  9  1  0
  9 10  1  0
 10 11  2  0
 11 12  1  0
 12 13  2  0
 13 14  1  0
 14 15  2  0
 15 16  1  0
 16 17  2  0
 16 18  1  0
 18 19  1  0
 19 20  2  0
  5 21  2  0
 21 22  1  0
 22 23  2  0
 22  2  1  0
 20 10  1  0
 19 13  1  0
  1 24  1  0
  1 25  1  0
  1 26  1  0
  3 27  1  0
  3 28  1  0
  3 29  1  0
  6 30  1  0
  7 31  1  0
  8 32  1  0
  8 33  1  0
 11 34  1  0
 12 35  1  0
 14 36  1  0
 15 37  1  0
 20 38  1  0
 21 39  1  0
M  END
$$$$
