
     RDKit          3D

 61 65  0  0  0  0  0  0  0  0999 V2000
   -3.4416    6.5631    0.6939 C   0  0  0  0  0  0  0  0  0  0  0  0
   -3.5553    5.1114    0.5520 N   0  0  0  0  0  0  0  0  0  0  0  0
   -2.5053    4.3312    0.0045 C   0  0  0  0  0  0  0  0  0  0  0  0
   -1.4616    4.9802   -0.3518 O   0  0  0  0  0  0  0  0  0  0  0  0
   -2.5639    2.9287   -0.1553 N   0  0  0  0  0  0  0  0  0  0  0  0
   -3.7250    2.2109    0.2307 C   0  0  0  0  0  0  0  0  0  0  0  0
   -3.8629    0.8244   -0.3585 C   0  0  0  0  0  0  0  0  0  0  0  0
   -2.6126    0.1016   -0.2019 C   0  0  0  0  0  0  0  0  0  0  0  0
   -1.4332    0.8089   -0.3823 C   0  0  0  0  0  0  0  0  0  0  0  0
   -0.4063   -0.0938   -0.1850 C   0  0  0  0  0  0  0  0  0  0  0  0
    0.9648    0.1798   -0.2669 N   0  0  0  0  0  0  0  0  0  0  0  0
    2.0191   -0.7373   -0.0664 C   0  0  0  0  0  0  0  0  0  0  0  0
    1.8161   -2.0472    0.2424 C   0  0  0  0  0  0  0  0  0  0  0  0
    2.9230   -2.8793    0.4223 C   0  0  0  0  0  0  0  0  0  0  0  0
    4.1956   -2.3679    0.2861 C   0  0  0  0  0  0  0  0  0  0  0  0
    4.4068   -1.0545   -0.0236 C   0  0  0  0  0  0  0  0  0  0  0  0
    5.7660   -0.5483   -0.1597 C   0  0  0  0  0  0  0  0  0  0  0  0
    6.8048   -1.1618   -0.8412 C   0  0  0  0  0  0  0  0  0  0  0  0
    7.8963   -0.3797   -0.7337 N   0  0  0  0  0  0  0  0  0  0  0  0
    7.5926    0.6824   -0.0249 N   0  0  0  0  0  0  0  0  0  0  0  0
    8.5322    1.7405    0.2897 C   0  0  0  0  0  0  0  0  0  0  0  0
    6.3033    0.6181    0.3443 C   0  0  0  0  0  0  0  0  0  0  0  0
    3.3278   -0.2454   -0.1985 C   0  0  0  0  0  0  0  0  0  0  0  0
    3.5661    1.0669   -0.5083 F   0  0  0  0  0  0  0  0  0  0  0  0
   -0.9951   -1.2340    0.0888 N   0  0  0  0  0  0  0  0  0  0  0  0
   -2.3156   -1.1696    0.0910 N   0  0  0  0  0  0  0  0  0  0  0  0
   -3.1894   -2.2920    0.3645 C   0  0  0  0  0  0  0  0  0  0  0  0
   -2.4287   -3.4181    1.0072 C   0  0  0  0  0  0  0  0  0  0  0  0
   -2.5536   -4.7009    0.2019 C   0  0  0  0  0  0  0  0  0  0  0  0
   -3.9469   -4.9233    0.1333 O   0  0  0  0  0  0  0  0  0  0  0  0
   -4.4264   -4.1160   -0.8602 C   0  0  0  0  0  0  0  0  0  0  0  0
   -4.0017   -2.7015   -0.8169 C   0  0  0  0  0  0  0  0  0  0  0  0
   -1.4116    2.2422   -0.7127 C   0  0  0  0  0  0  0  0  0  0  0  0
   -2.4131    6.8917    0.8719 H   0  0  0  0  0  0  0  0  0  0  0  0
   -4.0782    6.8550    1.5549 H   0  0  0  0  0  0  0  0  0  0  0  0
   -3.8496    7.0110   -0.2351 H   0  0  0  0  0  0  0  0  0  0  0  0
   -4.4207    4.6343    0.8591 H   0  0  0  0  0  0  0  0  0  0  0  0
   -3.6639    2.0551    1.3477 H   0  0  0  0  0  0  0  0  0  0  0  0
   -4.6471    2.8126    0.0707 H   0  0  0  0  0  0  0  0  0  0  0  0
   -4.7309    0.3585    0.1486 H   0  0  0  0  0  0  0  0  0  0  0  0
   -4.0628    0.9815   -1.4505 H   0  0  0  0  0  0  0  0  0  0  0  0
    1.2486    1.1840   -0.5053 H   0  0  0  0  0  0  0  0  0  0  0  0
    0.8420   -2.4625    0.3522 H   0  0  0  0  0  0  0  0  0  0  0  0
    2.7264   -3.9055    0.6647 H   0  0  0  0  0  0  0  0  0  0  0  0
    5.0188   -3.0469    0.4340 H   0  0  0  0  0  0  0  0  0  0  0  0
    6.7945   -2.0906   -1.3742 H   0  0  0  0  0  0  0  0  0  0  0  0
    8.1115    2.4461    1.0416 H   0  0  0  0  0  0  0  0  0  0  0  0
    9.4603    1.3070    0.6962 H   0  0  0  0  0  0  0  0  0  0  0  0
    8.8082    2.3304   -0.6073 H   0  0  0  0  0  0  0  0  0  0  0  0
    5.7762    1.3524    0.9343 H   0  0  0  0  0  0  0  0  0  0  0  0
   -3.9159   -1.9211    1.1469 H   0  0  0  0  0  0  0  0  0  0  0  0
   -1.3286   -3.2042    1.0815 H   0  0  0  0  0  0  0  0  0  0  0  0
   -2.7752   -3.6564    2.0332 H   0  0  0  0  0  0  0  0  0  0  0  0
   -2.1805   -4.5550   -0.8264 H   0  0  0  0  0  0  0  0  0  0  0  0
   -2.0713   -5.5178    0.7417 H   0  0  0  0  0  0  0  0  0  0  0  0
   -4.0999   -4.5701   -1.8420 H   0  0  0  0  0  0  0  0  0  0  0  0
   -5.5494   -4.2400   -0.8724 H   0  0  0  0  0  0  0  0  0  0  0  0
   -4.9155   -2.0656   -0.8804 H   0  0  0  0  0  0  0  0  0  0  0  0
   -3.4051   -2.4279   -1.7353 H   0  0  0  0  0  0  0  0  0  0  0  0
   -0.5134    2.7357   -0.2874 H   0  0  0  0  0  0  0  0  0  0  0  0
   -1.4433    2.3886   -1.8061 H   0  0  0  0  0  0  0  0  0  0  0  0
  1  2  1  0
  2  3  1  0
  3  4  2  0
  3  5  1  0
  5  6  1  0
  6  7  1  0
  7  8  1  0
  8  9  2  0
  9 10  1  0
 10 11  1  0
 11 12  1  0
 12 13  2  0
 13 14  1  0
 14 15  2  0
 15 16  1  0
 16 17  1  0
 17 18  1  0
 18 19  2  0
 19 20  1  0
 20 21  1  0
 20 22  1  0
 16 23  2  0
 23 24  1  0
 10 25  2  0
 25 26  1  0
 26 27  1  0
 27 28  1  0
 28 29  1  0
 29 30  1  0
 30 31  1  0
 31 32  1  0
  9 33  1  0
 33  5  1  0
 26  8  1  0
 32 27  1  0
 23 12  1  0
 22 17  2  0
  1 34  1  0
  1 35  1  0
  1 36  1  0
  2 37  1  0
  6 38  1  0
  6 39  1  0
  7 40  1  0
  7 41  1  0
 11 42  1  0
 13 43  1  0
 14 44  1  0
 15 45  1  0
 18 46  1  0
 21 47  1  0
 21 48  1  0
 21 49  1  0
 22 50  1  0
 27 51  1  0
 28 52  1  0
 28 53  1  0
 29 54  1  0
 29 55  1  0
 31 56  1  0
 31 57  1  0
 32 58  1  0
 32 59  1  0
 33 60  1  0
 33 61  1  0
M  END
$$$$
