@<TRIPOS>MOLECULE
*****
 61 65 0 0 0
SMALL
GASTEIGER

@<TRIPOS>ATOM
      1 C          -3.4416    6.5631    0.6939 C.3     1  UNL1        0.0015
      2 N          -3.5553    5.1114    0.5520 N.am    1  UNL1       -0.3023
      3 C          -2.5053    4.3312    0.0045 C.2     1  UNL1        0.3023
      4 O          -1.4616    4.9802   -0.3518 O.2     1  UNL1       -0.2526
      5 N          -2.5639    2.9287   -0.1553 N.am    1  UNL1       -0.2808
      6 C          -3.7250    2.2109    0.2307 C.3     1  UNL1        0.0219
      7 C          -3.8629    0.8244   -0.3585 C.3     1  UNL1        0.0056
      8 C          -2.6126    0.1016   -0.2019 C.ar    1  UNL1        0.0476
      9 C          -1.4332    0.8089   -0.3823 C.ar    1  UNL1        0.0325
     10 C          -0.4063   -0.0938   -0.1850 C.ar    1  UNL1        0.1499
     11 N           0.9648    0.1798   -0.2669 N.pl3   1  UNL1       -0.2955
     12 C           2.0191   -0.7373   -0.0664 C.ar    1  UNL1        0.0687
     13 C           1.8161   -2.0472    0.2424 C.ar    1  UNL1       -0.0377
     14 C           2.9230   -2.8793    0.4223 C.ar    1  UNL1       -0.0593
     15 C           4.1956   -2.3679    0.2861 C.ar    1  UNL1       -0.0511
     16 C           4.4068   -1.0545   -0.0236 C.ar    1  UNL1        0.0221
     17 C           5.7660   -0.5483   -0.1597 C.ar    1  UNL1        0.0223
     18 C           6.8048   -1.1618   -0.8412 C.ar    1  UNL1        0.0572
     19 N           7.8963   -0.3797   -0.7337 N.ar    1  UNL1       -0.1793
     20 N           7.5926    0.6824   -0.0249 N.ar    1  UNL1       -0.2739
     21 C           8.5322    1.7405    0.2897 C.3     1  UNL1        0.0302
     22 C           6.3033    0.6181    0.3443 C.ar    1  UNL1        0.0330
     23 C           3.3278   -0.2454   -0.1985 C.ar    1  UNL1        0.1522
     24 F           3.5661    1.0669   -0.5083 F       1  UNL1       -0.2029
     25 N          -0.9951   -1.2340    0.0888 N.ar    1  UNL1       -0.1552
     26 N          -2.3156   -1.1696    0.0910 N.ar    1  UNL1       -0.2630
     27 C          -3.1894   -2.2920    0.3645 C.3     1  UNL1        0.0572
     28 C          -2.4287   -3.4181    1.0072 C.3     1  UNL1       -0.0069
     29 C          -2.5536   -4.7009    0.2019 C.3     1  UNL1        0.0496
     30 O          -3.9469   -4.9233    0.1333 O.3     1  UNL1       -0.3796
     31 C          -4.4264   -4.1160   -0.8602 C.3     1  UNL1        0.0496
     32 C          -4.0017   -2.7015   -0.8169 C.3     1  UNL1       -0.0069
     33 C          -1.4116    2.2422   -0.7127 C.3     1  UNL1        0.0462
     34 H          -2.4131    6.8917    0.8719 H       1  UNL1        0.0426
     35 H          -4.0782    6.8550    1.5549 H       1  UNL1        0.0426
     36 H          -3.8496    7.0110   -0.2351 H       1  UNL1        0.0426
     37 H          -4.4207    4.6343    0.8591 H       1  UNL1        0.1499
     38 H          -3.6639    2.0551    1.3477 H       1  UNL1        0.0469
     39 H          -4.6471    2.8126    0.0707 H       1  UNL1        0.0469
     40 H          -4.7309    0.3585    0.1486 H       1  UNL1        0.0343
     41 H          -4.0628    0.9815   -1.4505 H       1  UNL1        0.0343
     42 H           1.2486    1.1840   -0.5053 H       1  UNL1        0.1537
     43 H           0.8420   -2.4625    0.3522 H       1  UNL1        0.0637
     44 H           2.7264   -3.9055    0.6647 H       1  UNL1        0.0618
     45 H           5.0188   -3.0469    0.4340 H       1  UNL1        0.0625
     46 H           6.7945   -2.0906   -1.3742 H       1  UNL1        0.0854
     47 H           8.1115    2.4461    1.0416 H       1  UNL1        0.0473
     48 H           9.4603    1.3070    0.6962 H       1  UNL1        0.0473
     49 H           8.8082    2.3304   -0.6073 H       1  UNL1        0.0473
     50 H           5.7762    1.3524    0.9343 H       1  UNL1        0.0832
     51 H          -3.9159   -1.9211    1.1469 H       1  UNL1        0.0546
     52 H          -1.3286   -3.2042    1.0815 H       1  UNL1        0.0308
     53 H          -2.7752   -3.6564    2.0332 H       1  UNL1        0.0308
     54 H          -2.1805   -4.5550   -0.8264 H       1  UNL1        0.0560
     55 H          -2.0713   -5.5178    0.7417 H       1  UNL1        0.0560
     56 H          -4.0999   -4.5701   -1.8420 H       1  UNL1        0.0560
     57 H          -5.5494   -4.2400   -0.8724 H       1  UNL1        0.0560
     58 H          -4.9155   -2.0656   -0.8804 H       1  UNL1        0.0308
     59 H          -3.4051   -2.4279   -1.7353 H       1  UNL1        0.0308
     60 H          -0.5134    2.7357   -0.2874 H       1  UNL1        0.0516
     61 H          -1.4433    2.3886   -1.8061 H       1  UNL1        0.0516
@<TRIPOS>BOND
     1     1     2    1
     2     2     3   am
     3     3     4    2
     4     3     5   am
     5     5     6    1
     6     6     7    1
     7     7     8    1
     8     8     9   ar
     9     9    10   ar
    10    10    11    1
    11    11    12    1
    12    12    13   ar
    13    13    14   ar
    14    14    15   ar
    15    15    16   ar
    16    16    17    1
    17    17    18   ar
    18    18    19   ar
    19    19    20   ar
    20    20    21    1
    21    20    22   ar
    22    16    23   ar
    23    23    24    1
    24    10    25   ar
    25    25    26   ar
    26    26    27    1
    27    27    28    1
    28    28    29    1
    29    29    30    1
    30    30    31    1
    31    31    32    1
    32     9    33    1
    33    33     5    1
    34    26     8   ar
    35    32    27    1
    36    23    12   ar
    37    22    17   ar
    38     1    34    1
    39     1    35    1
    40     1    36    1
    41     2    37    1
    42     6    38    1
    43     6    39    1
    44     7    40    1
    45     7    41    1
    46    11    42    1
    47    13    43    1
    48    14    44    1
    49    15    45    1
    50    18    46    1
    51    21    47    1
    52    21    48    1
    53    21    49    1
    54    22    50    1
    55    27    51    1
    56    28    52    1
    57    28    53    1
    58    29    54    1
    59    29    55    1
    60    31    56    1
    61    31    57    1
    62    32    58    1
    63    32    59    1
    64    33    60    1
    65    33    61    1
