
     RDKit          3D

 44 45  0  0  0  0  0  0  0  0999 V2000
   -0.7698   -0.8287    2.0090 C   0  0  0  0  0  0  0  0  0  0  0  0
   -0.1071   -0.8256    0.6489 C   0  0  0  0  0  0  0  0  0  0  0  0
   -1.1702   -1.0019   -0.4144 C   0  0  0  0  0  0  0  0  0  0  0  0
   -2.1733    0.0634   -0.3953 C   0  0  0  0  0  0  0  0  0  0  0  0
   -2.0454    1.2376   -1.1340 C   0  0  0  0  0  0  0  0  0  0  0  0
   -2.9967    2.2360   -1.1097 C   0  0  0  0  0  0  0  0  0  0  0  0
   -4.1278    2.0856   -0.3288 C   0  0  0  0  0  0  0  0  0  0  0  0
   -5.0845    3.0786   -0.2981 O   0  0  0  0  0  0  0  0  0  0  0  0
   -4.2872    0.9348    0.4161 C   0  0  0  0  0  0  0  0  0  0  0  0
   -5.4265    0.7731    1.2083 O   0  0  0  0  0  0  0  0  0  0  0  0
   -3.3197   -0.0546    0.3767 C   0  0  0  0  0  0  0  0  0  0  0  0
    0.8776   -1.9709    0.6396 C   0  0  0  0  0  0  0  0  0  0  0  0
    0.2451   -3.3109    0.8643 C   0  0  0  0  0  0  0  0  0  0  0  0
    1.7814   -1.9613   -0.5689 C   0  0  0  0  0  0  0  0  0  0  0  0
    2.5702   -0.7021   -0.6109 C   0  0  0  0  0  0  0  0  0  0  0  0
    3.8074   -0.6075    0.0076 C   0  0  0  0  0  0  0  0  0  0  0  0
    4.5531    0.5528   -0.0220 C   0  0  0  0  0  0  0  0  0  0  0  0
    4.1027    1.6796   -0.6706 C   0  0  0  0  0  0  0  0  0  0  0  0
    4.8378    2.8627   -0.7142 O   0  0  0  0  0  0  0  0  0  0  0  0
    2.8738    1.5991   -1.2898 C   0  0  0  0  0  0  0  0  0  0  0  0
    2.4011    2.7259   -1.9502 O   0  0  0  0  0  0  0  0  0  0  0  0
    2.1240    0.4307   -1.2595 C   0  0  0  0  0  0  0  0  0  0  0  0
   -1.1775    0.1625    2.2806 H   0  0  0  0  0  0  0  0  0  0  0  0
    0.0459   -1.0464    2.7542 H   0  0  0  0  0  0  0  0  0  0  0  0
   -1.4957   -1.6357    2.0733 H   0  0  0  0  0  0  0  0  0  0  0  0
    0.4605    0.1045    0.5274 H   0  0  0  0  0  0  0  0  0  0  0  0
   -1.6796   -1.9751   -0.2288 H   0  0  0  0  0  0  0  0  0  0  0  0
   -0.7215   -1.0670   -1.4257 H   0  0  0  0  0  0  0  0  0  0  0  0
   -1.1472    1.3467   -1.7483 H   0  0  0  0  0  0  0  0  0  0  0  0
   -2.9000    3.1461   -1.6807 H   0  0  0  0  0  0  0  0  0  0  0  0
   -5.6630    3.2914   -1.1199 H   0  0  0  0  0  0  0  0  0  0  0  0
   -5.4900    1.1812    2.1451 H   0  0  0  0  0  0  0  0  0  0  0  0
   -3.5129   -0.9269    0.9857 H   0  0  0  0  0  0  0  0  0  0  0  0
    1.5505   -1.7898    1.5303 H   0  0  0  0  0  0  0  0  0  0  0  0
    0.4887   -3.9365   -0.0330 H   0  0  0  0  0  0  0  0  0  0  0  0
    0.7152   -3.8740    1.7218 H   0  0  0  0  0  0  0  0  0  0  0  0
   -0.8259   -3.2845    1.0801 H   0  0  0  0  0  0  0  0  0  0  0  0
    2.5081   -2.7855   -0.4299 H   0  0  0  0  0  0  0  0  0  0  0  0
    1.2361   -2.1400   -1.5081 H   0  0  0  0  0  0  0  0  0  0  0  0
    4.1560   -1.5112    0.5211 H   0  0  0  0  0  0  0  0  0  0  0  0
    5.5146    0.6076    0.4655 H   0  0  0  0  0  0  0  0  0  0  0  0
    5.4999    3.1083    0.0173 H   0  0  0  0  0  0  0  0  0  0  0  0
    2.6200    3.6354   -1.5734 H   0  0  0  0  0  0  0  0  0  0  0  0
    1.1516    0.3925   -1.7589 H   0  0  0  0  0  0  0  0  0  0  0  0
  1  2  1  0
  2  3  1  0
  3  4  1  0
  4  5  2  0
  5  6  1  0
  6  7  2  0
  7  8  1  0
  7  9  1  0
  9 10  1  0
  9 11  2  0
  2 12  1  0
 12 13  1  0
 12 14  1  0
 14 15  1  0
 15 16  2  0
 16 17  1  0
 17 18  2  0
 18 19  1  0
 18 20  1  0
 20 21  1  0
 20 22  2  0
 11  4  1  0
 22 15  1  0
  1 23  1  0
  1 24  1  0
  1 25  1  0
  2 26  1  0
  3 27  1  0
  3 28  1  0
  5 29  1  0
  6 30  1  0
  8 31  1  0
 10 32  1  0
 11 33  1  0
 12 34  1  0
 13 35  1  0
 13 36  1  0
 13 37  1  0
 14 38  1  0
 14 39  1  0
 16 40  1  0
 17 41  1  0
 19 42  1  0
 21 43  1  0
 22 44  1  0
M  END
$$$$
