@<TRIPOS>MOLECULE
*****
 44 45 0 0 0
SMALL
GASTEIGER

@<TRIPOS>ATOM
      1 C          -0.7698   -0.8287    2.0090 C.3     1  UNL1       -0.0619
      2 C          -0.1071   -0.8256    0.6489 C.3     1  UNL1       -0.0370
      3 C          -1.1702   -1.0019   -0.4144 C.3     1  UNL1       -0.0247
      4 C          -2.1733    0.0634   -0.3953 C.ar    1  UNL1       -0.0434
      5 C          -2.0454    1.2376   -1.1340 C.ar    1  UNL1       -0.0549
      6 C          -2.9967    2.2360   -1.1097 C.ar    1  UNL1       -0.0163
      7 C          -4.1278    2.0856   -0.3288 C.ar    1  UNL1        0.1582
      8 O          -5.0845    3.0786   -0.2981 O.3     1  UNL1       -0.5033
      9 C          -4.2872    0.9348    0.4161 C.ar    1  UNL1        0.1585
     10 O          -5.4265    0.7731    1.2083 O.3     1  UNL1       -0.5033
     11 C          -3.3197   -0.0546    0.3767 C.ar    1  UNL1       -0.0133
     12 C           0.8776   -1.9709    0.6396 C.3     1  UNL1       -0.0370
     13 C           0.2451   -3.3109    0.8643 C.3     1  UNL1       -0.0619
     14 C           1.7814   -1.9613   -0.5689 C.3     1  UNL1       -0.0247
     15 C           2.5702   -0.7021   -0.6109 C.ar    1  UNL1       -0.0434
     16 C           3.8074   -0.6075    0.0076 C.ar    1  UNL1       -0.0549
     17 C           4.5531    0.5528   -0.0220 C.ar    1  UNL1       -0.0163
     18 C           4.1027    1.6796   -0.6706 C.ar    1  UNL1        0.1582
     19 O           4.8378    2.8627   -0.7142 O.3     1  UNL1       -0.5033
     20 C           2.8738    1.5991   -1.2898 C.ar    1  UNL1        0.1585
     21 O           2.4011    2.7259   -1.9502 O.3     1  UNL1       -0.5033
     22 C           2.1240    0.4307   -1.2595 C.ar    1  UNL1       -0.0133
     23 H          -1.1775    0.1625    2.2806 H       1  UNL1        0.0233
     24 H           0.0459   -1.0464    2.7542 H       1  UNL1        0.0233
     25 H          -1.4957   -1.6357    2.0733 H       1  UNL1        0.0233
     26 H           0.4605    0.1045    0.5274 H       1  UNL1        0.0304
     27 H          -1.6796   -1.9751   -0.2288 H       1  UNL1        0.0316
     28 H          -0.7215   -1.0670   -1.4257 H       1  UNL1        0.0316
     29 H          -1.1472    1.3467   -1.7483 H       1  UNL1        0.0621
     30 H          -2.9000    3.1461   -1.6807 H       1  UNL1        0.0655
     31 H          -5.6630    3.2914   -1.1199 H       1  UNL1        0.2923
     32 H          -5.4900    1.1812    2.1451 H       1  UNL1        0.2923
     33 H          -3.5129   -0.9269    0.9857 H       1  UNL1        0.0658
     34 H           1.5505   -1.7898    1.5303 H       1  UNL1        0.0304
     35 H           0.4887   -3.9365   -0.0330 H       1  UNL1        0.0233
     36 H           0.7152   -3.8740    1.7218 H       1  UNL1        0.0233
     37 H          -0.8259   -3.2845    1.0801 H       1  UNL1        0.0233
     38 H           2.5081   -2.7855   -0.4299 H       1  UNL1        0.0316
     39 H           1.2361   -2.1400   -1.5081 H       1  UNL1        0.0316
     40 H           4.1560   -1.5112    0.5211 H       1  UNL1        0.0621
     41 H           5.5146    0.6076    0.4655 H       1  UNL1        0.0655
     42 H           5.4999    3.1083    0.0173 H       1  UNL1        0.2923
     43 H           2.6200    3.6354   -1.5734 H       1  UNL1        0.2923
     44 H           1.1516    0.3925   -1.7589 H       1  UNL1        0.0658
@<TRIPOS>BOND
     1     1     2    1
     2     2     3    1
     3     3     4    1
     4     4     5   ar
     5     5     6   ar
     6     6     7   ar
     7     7     8    1
     8     7     9   ar
     9     9    10    1
    10     9    11   ar
    11     2    12    1
    12    12    13    1
    13    12    14    1
    14    14    15    1
    15    15    16   ar
    16    16    17   ar
    17    17    18   ar
    18    18    19    1
    19    18    20   ar
    20    20    21    1
    21    20    22   ar
    22    11     4   ar
    23    22    15   ar
    24     1    23    1
    25     1    24    1
    26     1    25    1
    27     2    26    1
    28     3    27    1
    29     3    28    1
    30     5    29    1
    31     6    30    1
    32     8    31    1
    33    10    32    1
    34    11    33    1
    35    12    34    1
    36    13    35    1
    37    13    36    1
    38    13    37    1
    39    14    38    1
    40    14    39    1
    41    16    40    1
    42    17    41    1
    43    19    42    1
    44    21    43    1
    45    22    44    1
