@<TRIPOS>MOLECULE
*****
 39 38 0 0 0
SMALL
GASTEIGER

@<TRIPOS>ATOM
      1 O          -4.1086    1.5610    0.5353 O.3     1  UNL1       -0.3950
      2 C          -4.6142    0.6586    1.4464 C.3     1  UNL1        0.0442
      3 C          -3.5338   -0.2881    1.9156 C.3     1  UNL1       -0.0297
      4 C          -2.9358   -1.0754    0.8356 C.3     1  UNL1       -0.0510
      5 C          -2.2481   -0.4198   -0.2801 C.3     1  UNL1       -0.0530
      6 C          -1.0666    0.4207    0.0695 C.3     1  UNL1       -0.0531
      7 C          -0.3988    1.0697   -1.0905 C.3     1  UNL1       -0.0531
      8 C           0.1425    0.1717   -2.1332 C.3     1  UNL1       -0.0531
      9 C           1.1935   -0.7955   -1.6315 C.3     1  UNL1       -0.0530
     10 C           2.3933   -0.0835   -1.0493 C.3     1  UNL1       -0.0526
     11 C           3.4403   -1.0310   -0.5520 C.3     1  UNL1       -0.0430
     12 C           4.6537   -0.3480    0.0360 C.3     1  UNL1        0.0448
     13 C           4.2291    0.4849    1.1904 C.2     1  UNL1        0.3047
     14 O           5.3003    1.1445    1.7682 O.3     1  UNL1       -0.4806
     15 O           3.1257    0.7425    1.7798 O.2     1  UNL1       -0.2510
     16 H          -4.8212    1.8579   -0.0701 H       1  UNL1        0.2094
     17 H          -5.3452    0.0271    0.8605 H       1  UNL1        0.0557
     18 H          -5.1300    1.1429    2.2986 H       1  UNL1        0.0557
     19 H          -4.0459   -0.9515    2.6586 H       1  UNL1        0.0287
     20 H          -2.8424    0.3201    2.5238 H       1  UNL1        0.0287
     21 H          -2.2493   -1.8482    1.2932 H       1  UNL1        0.0266
     22 H          -3.7413   -1.7253    0.3859 H       1  UNL1        0.0266
     23 H          -2.9306    0.1849   -0.9156 H       1  UNL1        0.0265
     24 H          -1.8838   -1.2559   -0.9546 H       1  UNL1        0.0265
     25 H          -1.4015    1.2462    0.7298 H       1  UNL1        0.0265
     26 H          -0.3115   -0.1326    0.6663 H       1  UNL1        0.0265
     27 H          -1.1089    1.7855   -1.5978 H       1  UNL1        0.0265
     28 H           0.4111    1.7227   -0.7069 H       1  UNL1        0.0265
     29 H          -0.5979   -0.3189   -2.7679 H       1  UNL1        0.0265
     30 H           0.7035    0.8495   -2.8466 H       1  UNL1        0.0265
     31 H           0.7051   -1.4110   -0.8502 H       1  UNL1        0.0265
     32 H           1.5120   -1.4525   -2.4592 H       1  UNL1        0.0265
     33 H           2.8878    0.5408   -1.8312 H       1  UNL1        0.0265
     34 H           2.0483    0.6019   -0.2767 H       1  UNL1        0.0265
     35 H           3.8047   -1.6737   -1.3683 H       1  UNL1        0.0270
     36 H           2.9887   -1.6160    0.2784 H       1  UNL1        0.0270
     37 H           5.1527    0.2909   -0.7430 H       1  UNL1        0.0377
     38 H           5.3965   -1.1087    0.3119 H       1  UNL1        0.0377
     39 H           5.2266    1.7734    2.5411 H       1  UNL1        0.2951
@<TRIPOS>BOND
     1     1     2    1
     2     2     3    1
     3     3     4    1
     4     4     5    1
     5     5     6    1
     6     6     7    1
     7     7     8    1
     8     8     9    1
     9     9    10    1
    10    10    11    1
    11    11    12    1
    12    12    13    1
    13    13    14    1
    14    13    15    2
    15     1    16    1
    16     2    17    1
    17     2    18    1
    18     3    19    1
    19     3    20    1
    20     4    21    1
    21     4    22    1
    22     5    23    1
    23     5    24    1
    24     6    25    1
    25     6    26    1
    26     7    27    1
    27     7    28    1
    28     8    29    1
    29     8    30    1
    30     9    31    1
    31     9    32    1
    32    10    33    1
    33    10    34    1
    34    11    35    1
    35    11    36    1
    36    12    37    1
    37    12    38    1
    38    14    39    1
