
     RDKit          3D

 38 40  0  0  0  0  0  0  0  0999 V2000
    2.8302    2.1659   -0.2032 O   0  0  0  0  0  0  0  0  0  0  0  0
    2.9103    1.4122   -1.2238 C   0  0  0  0  0  0  0  0  0  0  0  0
    3.0985    2.0168   -2.4456 O   0  0  0  0  0  0  0  0  0  0  0  0
    2.8064   -0.0451   -1.1051 C   0  0  1  0  0  0  0  0  0  0  0  0
    4.1574   -0.7501   -1.2021 C   0  0  0  0  0  0  0  0  0  0  0  0
    4.0317   -0.7925    0.3065 C   0  0  0  0  0  0  0  0  0  0  0  0
    2.6124   -0.5283    0.2233 N   0  0  0  0  0  0  0  0  0  0  0  0
    1.5511   -0.7260    1.1794 C   0  0  0  0  0  0  0  0  0  0  0  0
    1.7881   -1.2007    2.3032 O   0  0  0  0  0  0  0  0  0  0  0  0
    0.2328   -0.3696    0.8159 N   0  0  0  0  0  0  0  0  0  0  0  0
   -0.9127   -0.4967    1.6327 C   0  0  0  0  0  0  0  0  0  0  0  0
   -0.9140   -0.8778    2.9508 C   0  0  0  0  0  0  0  0  0  0  0  0
   -2.0962   -0.9685    3.7024 C   0  0  0  0  0  0  0  0  0  0  0  0
   -2.0035   -1.4630    5.3772 Cl  0  0  0  0  0  0  0  0  0  0  0  0
   -3.3144   -0.6728    3.1317 C   0  0  0  0  0  0  0  0  0  0  0  0
   -3.3286   -0.2909    1.8142 C   0  0  0  0  0  0  0  0  0  0  0  0
   -2.1430   -0.2074    1.0837 C   0  0  0  0  0  0  0  0  0  0  0  0
   -2.2263    0.1567   -0.3200 C   0  0  0  0  0  0  0  0  0  0  0  0
   -2.8450    1.3707   -0.6518 C   0  0  0  0  0  0  0  0  0  0  0  0
   -2.9882    1.7603   -1.9552 C   0  0  0  0  0  0  0  0  0  0  0  0
   -3.5916    2.9449   -2.2866 F   0  0  0  0  0  0  0  0  0  0  0  0
   -2.5106    0.9351   -2.9575 C   0  0  0  0  0  0  0  0  0  0  0  0
   -1.9029   -0.2562   -2.6442 C   0  0  0  0  0  0  0  0  0  0  0  0
   -1.4457   -1.0417   -3.6575 F   0  0  0  0  0  0  0  0  0  0  0  0
   -1.7671   -0.6321   -1.3424 C   0  0  0  0  0  0  0  0  0  0  0  0
    3.3877    2.9837   -2.4719 H   0  0  0  0  0  0  0  0  0  0  0  0
    2.0591   -0.4649   -1.7989 H   0  0  0  0  0  0  0  0  0  0  0  0
    4.9598   -0.0748   -1.5389 H   0  0  0  0  0  0  0  0  0  0  0  0
    4.1248   -1.7511   -1.6611 H   0  0  0  0  0  0  0  0  0  0  0  0
    4.6368   -0.0823    0.8662 H   0  0  0  0  0  0  0  0  0  0  0  0
    4.2438   -1.8343    0.6800 H   0  0  0  0  0  0  0  0  0  0  0  0
    0.1601    0.0394   -0.1611 H   0  0  0  0  0  0  0  0  0  0  0  0
   -0.0098   -1.1175    3.4603 H   0  0  0  0  0  0  0  0  0  0  0  0
   -4.2043   -0.7524    3.7390 H   0  0  0  0  0  0  0  0  0  0  0  0
   -4.2656   -0.0524    1.3375 H   0  0  0  0  0  0  0  0  0  0  0  0
   -3.2198    2.0189    0.1283 H   0  0  0  0  0  0  0  0  0  0  0  0
   -2.6149    1.2263   -3.9880 H   0  0  0  0  0  0  0  0  0  0  0  0
   -1.2868   -1.5819   -1.1172 H   0  0  0  0  0  0  0  0  0  0  0  0
  1  2  2  0
  2  3  1  0
  2  4  1  0
  4  5  1  0
  5  6  1  0
  6  7  1  0
  7  8  1  0
  8  9  2  0
  8 10  1  0
 10 11  1  0
 11 12  2  0
 12 13  1  0
 13 14  1  0
 13 15  2  0
 15 16  1  0
 16 17  2  0
 17 18  1  0
 18 19  2  0
 19 20  1  0
 20 21  1  0
 20 22  2  0
 22 23  1  0
 23 24  1  0
 23 25  2  0
  7  4  1  0
 17 11  1  0
 25 18  1  0
  3 26  1  0
  4 27  1  6
  5 28  1  0
  5 29  1  0
  6 30  1  0
  6 31  1  0
 10 32  1  0
 12 33  1  0
 15 34  1  0
 16 35  1  0
 19 36  1  0
 22 37  1  0
 25 38  1  0
M  END
$$$$
