@<TRIPOS>MOLECULE
*****
 38 40 0 0 0
SMALL
GASTEIGER

@<TRIPOS>ATOM
      1 O           2.8302    2.1659   -0.2032 O.2     1  UNL1       -0.2489
      2 C           2.9103    1.4122   -1.2238 C.2     1  UNL1        0.3256
      3 O           3.0985    2.0168   -2.4456 O.3     1  UNL1       -0.4793
      4 C           2.8064   -0.0451   -1.1051 C.3     1  UNL1        0.1256
      5 C           4.1574   -0.7501   -1.2021 C.3     1  UNL1       -0.0079
      6 C           4.0317   -0.7925    0.3065 C.3     1  UNL1        0.0192
      7 N           2.6124   -0.5283    0.2233 N.am    1  UNL1       -0.2718
      8 C           1.5511   -0.7260    1.1794 C.2     1  UNL1        0.3071
      9 O           1.7881   -1.2007    2.3032 O.2     1  UNL1       -0.2523
     10 N           0.2328   -0.3696    0.8159 N.am    1  UNL1       -0.2687
     11 C          -0.9127   -0.4967    1.6327 C.ar    1  UNL1        0.0439
     12 C          -0.9140   -0.8778    2.9508 C.ar    1  UNL1       -0.0215
     13 C          -2.0962   -0.9685    3.7024 C.ar    1  UNL1        0.0428
     14 CL         -2.0035   -1.4630    5.3772 Cl      1  UNL1       -0.0835
     15 C          -3.3144   -0.6728    3.1317 C.ar    1  UNL1       -0.0427
     16 C          -3.3286   -0.2909    1.8142 C.ar    1  UNL1       -0.0509
     17 C          -2.1430   -0.2074    1.0837 C.ar    1  UNL1        0.0036
     18 C          -2.2263    0.1567   -0.3200 C.ar    1  UNL1       -0.0107
     19 C          -2.8450    1.3707   -0.6518 C.ar    1  UNL1       -0.0185
     20 C          -2.9882    1.7603   -1.9552 C.ar    1  UNL1        0.1267
     21 F          -3.5916    2.9449   -2.2866 F       1  UNL1       -0.2054
     22 C          -2.5106    0.9351   -2.9575 C.ar    1  UNL1        0.0088
     23 C          -1.9029   -0.2562   -2.6442 C.ar    1  UNL1        0.1267
     24 F          -1.4457   -1.0417   -3.6575 F       1  UNL1       -0.2054
     25 C          -1.7671   -0.6321   -1.3424 C.ar    1  UNL1       -0.0185
     26 H           3.3877    2.9837   -2.4719 H       1  UNL1        0.2951
     27 H           2.0591   -0.4649   -1.7989 H       1  UNL1        0.0617
     28 H           4.9598   -0.0748   -1.5389 H       1  UNL1        0.0304
     29 H           4.1248   -1.7511   -1.6611 H       1  UNL1        0.0304
     30 H           4.6368   -0.0823    0.8662 H       1  UNL1        0.0466
     31 H           4.2438   -1.8343    0.6800 H       1  UNL1        0.0466
     32 H           0.1601    0.0394   -0.1611 H       1  UNL1        0.1564
     33 H          -0.0098   -1.1175    3.4603 H       1  UNL1        0.0651
     34 H          -4.2043   -0.7524    3.7390 H       1  UNL1        0.0632
     35 H          -4.2656   -0.0524    1.3375 H       1  UNL1        0.0625
     36 H          -3.2198    2.0189    0.1283 H       1  UNL1        0.0652
     37 H          -2.6149    1.2263   -3.9880 H       1  UNL1        0.0675
     38 H          -1.2868   -1.5819   -1.1172 H       1  UNL1        0.0652
@<TRIPOS>BOND
     1     1     2    2
     2     2     3    1
     3     2     4    1
     4     4     5    1
     5     5     6    1
     6     6     7    1
     7     7     8   am
     8     8     9    2
     9     8    10   am
    10    10    11    1
    11    11    12   ar
    12    12    13   ar
    13    13    14    1
    14    13    15   ar
    15    15    16   ar
    16    16    17   ar
    17    17    18    1
    18    18    19   ar
    19    19    20   ar
    20    20    21    1
    21    20    22   ar
    22    22    23   ar
    23    23    24    1
    24    23    25   ar
    25     7     4    1
    26    17    11   ar
    27    25    18   ar
    28     3    26    1
    29     4    27    1
    30     5    28    1
    31     5    29    1
    32     6    30    1
    33     6    31    1
    34    10    32    1
    35    12    33    1
    36    15    34    1
    37    16    35    1
    38    19    36    1
    39    22    37    1
    40    25    38    1
