
     RDKit          3D

 41 43  0  0  0  0  0  0  0  0999 V2000
   -7.4601   -0.1875    0.2152 C   0  0  0  0  0  0  0  0  0  0  0  0
   -6.8374    1.0573   -0.3615 C   0  0  0  0  0  0  0  0  0  0  0  0
   -5.5743    1.2531    0.2490 O   0  0  0  0  0  0  0  0  0  0  0  0
   -4.5536    0.3368    0.1739 C   0  0  0  0  0  0  0  0  0  0  0  0
   -4.8486   -0.6949   -0.4902 O   0  0  0  0  0  0  0  0  0  0  0  0
   -3.2438    0.6309    0.8550 C   0  0  0  0  0  0  0  0  0  0  0  0
   -3.5219    0.6862    2.3486 C   0  0  0  0  0  0  0  0  0  0  0  0
   -2.3460   -0.4355    0.6510 O   0  0  0  0  0  0  0  0  0  0  0  0
   -1.1326   -0.3263   -0.0140 C   0  0  0  0  0  0  0  0  0  0  0  0
   -0.4931   -1.5712   -0.0373 C   0  0  0  0  0  0  0  0  0  0  0  0
    0.7530   -1.7107   -0.6571 C   0  0  0  0  0  0  0  0  0  0  0  0
    1.3691   -0.6077   -1.2579 C   0  0  0  0  0  0  0  0  0  0  0  0
    2.5849   -0.6466   -1.8870 O   0  0  0  0  0  0  0  0  0  0  0  0
    3.7926   -0.4176   -1.2408 C   0  0  0  0  0  0  0  0  0  0  0  0
    4.1353   -0.1206    0.0447 N   0  0  0  0  0  0  0  0  0  0  0  0
    5.4928   -0.0032    0.1059 C   0  0  0  0  0  0  0  0  0  0  0  0
    5.9365   -0.2438   -1.1990 C   0  0  0  0  0  0  0  0  0  0  0  0
    4.8931   -0.4873   -1.9738 O   0  0  0  0  0  0  0  0  0  0  0  0
    7.3063   -0.1921   -1.4542 C   0  0  0  0  0  0  0  0  0  0  0  0
    8.1440    0.0961   -0.3914 C   0  0  0  0  0  0  0  0  0  0  0  0
    9.8649    0.1430   -0.7976 Cl  0  0  0  0  0  0  0  0  0  0  0  0
    7.7135    0.3309    0.8808 C   0  0  0  0  0  0  0  0  0  0  0  0
    6.3456    0.2830    1.1536 C   0  0  0  0  0  0  0  0  0  0  0  0
    0.7009    0.5993   -1.2099 C   0  0  0  0  0  0  0  0  0  0  0  0
   -0.5271    0.7619   -0.6055 C   0  0  0  0  0  0  0  0  0  0  0  0
   -7.3209   -1.0306   -0.5138 H   0  0  0  0  0  0  0  0  0  0  0  0
   -7.0290   -0.4840    1.1967 H   0  0  0  0  0  0  0  0  0  0  0  0
   -8.5547   -0.0484    0.3174 H   0  0  0  0  0  0  0  0  0  0  0  0
   -6.7293    0.9887   -1.4671 H   0  0  0  0  0  0  0  0  0  0  0  0
   -7.4605    1.9371   -0.0481 H   0  0  0  0  0  0  0  0  0  0  0  0
   -2.9095    1.5929    0.4381 H   0  0  0  0  0  0  0  0  0  0  0  0
   -2.6087    0.6250    2.9621 H   0  0  0  0  0  0  0  0  0  0  0  0
   -4.1179   -0.2237    2.5799 H   0  0  0  0  0  0  0  0  0  0  0  0
   -4.1202    1.5836    2.5771 H   0  0  0  0  0  0  0  0  0  0  0  0
   -0.8400   -2.5038    0.3792 H   0  0  0  0  0  0  0  0  0  0  0  0
    1.2974   -2.6441   -0.7087 H   0  0  0  0  0  0  0  0  0  0  0  0
    7.6006   -0.3829   -2.4676 H   0  0  0  0  0  0  0  0  0  0  0  0
    8.4037    0.5527    1.6823 H   0  0  0  0  0  0  0  0  0  0  0  0
    5.9259    0.4576    2.1358 H   0  0  0  0  0  0  0  0  0  0  0  0
    1.0788    1.5336   -1.6432 H   0  0  0  0  0  0  0  0  0  0  0  0
   -1.1099    1.6436   -0.5208 H   0  0  0  0  0  0  0  0  0  0  0  0
  1  2  1  0
  2  3  1  0
  3  4  1  0
  4  5  2  0
  4  6  1  0
  6  7  1  0
  6  8  1  0
  8  9  1  0
  9 10  2  0
 10 11  1  0
 11 12  2  0
 12 13  1  0
 13 14  1  0
 14 15  2  0
 15 16  1  0
 16 17  2  0
 17 18  1  0
 17 19  1  0
 19 20  2  0
 20 21  1  0
 20 22  1  0
 22 23  2  0
 12 24  1  0
 24 25  2  0
 25  9  1  0
 18 14  1  0
 23 16  1  0
  1 26  1  0
  1 27  1  0
  1 28  1  0
  2 29  1  0
  2 30  1  0
  6 31  1  0
  7 32  1  0
  7 33  1  0
  7 34  1  0
 10 35  1  0
 11 36  1  0
 19 37  1  0
 22 38  1  0
 23 39  1  0
 24 40  1  0
 25 41  1  0
M  END
$$$$
