@<TRIPOS>MOLECULE
*****
 42 45 0 0 0
SMALL
GASTEIGER

@<TRIPOS>ATOM
      1 C           6.0188    2.2069    0.8472 C.3     1  UNL1       -0.0228
      2 C           4.7040    1.5849    0.5337 C.ar    1  UNL1        0.0349
      3 C           3.7052    1.1383    1.3740 C.ar    1  UNL1        0.0006
      4 C           2.6580    0.6279    0.6400 C.ar    1  UNL1        0.1459
      5 N           1.4290    0.0587    1.0955 N.pl3   1  UNL1       -0.2824
      6 C           0.4676   -0.4153    0.1710 C.ar    1  UNL1        0.1354
      7 N          -0.5038    0.4176   -0.2103 N.ar    1  UNL1       -0.2135
      8 C          -1.4231    0.0041   -1.0821 C.ar    1  UNL1        0.1645
      9 C          -2.4988    0.9428   -1.4863 C.3     1  UNL1        0.1394
     10 O          -2.0434    2.2250   -1.7484 O.3     1  UNL1       -0.3794
     11 C          -3.5127    0.9729   -0.3987 C.ar    1  UNL1       -0.0116
     12 C          -3.4685    0.0865    0.6561 C.ar    1  UNL1       -0.0530
     13 C          -4.4131    0.1142    1.6678 C.ar    1  UNL1       -0.0261
     14 C          -5.4407    1.0341    1.6604 C.ar    1  UNL1        0.1234
     15 F          -6.3651    1.0660    2.6459 F       1  UNL1       -0.2055
     16 C          -5.4871    1.9226    0.6056 C.ar    1  UNL1       -0.0261
     17 C          -4.5340    1.8973   -0.4184 C.ar    1  UNL1       -0.0530
     18 N          -1.3460   -1.2405   -1.5532 N.ar    1  UNL1       -0.2289
     19 C          -0.3950   -2.1213   -1.2079 C.ar    1  UNL1        0.0764
     20 C          -0.3291   -3.4023   -1.7023 C.ar    1  UNL1       -0.0356
     21 C           0.6718   -4.2741   -1.3146 C.ar    1  UNL1       -0.0597
     22 C           1.6162   -3.8479   -0.4185 C.ar    1  UNL1       -0.0610
     23 C           1.5714   -2.5648    0.0928 C.ar    1  UNL1       -0.0493
     24 C           0.5831   -1.7146   -0.2941 C.ar    1  UNL1        0.0405
     25 N           3.0400    0.7736   -0.6573 N.ar    1  UNL1       -0.1584
     26 N           4.2349    1.3326   -0.7147 N.ar    1  UNL1       -0.2801
     27 H           6.3011    3.0013    0.1282 H       1  UNL1        0.0292
     28 H           6.8162    1.4068    0.8562 H       1  UNL1        0.0292
     29 H           6.0052    2.6324    1.8677 H       1  UNL1        0.0292
     30 H           3.7471    1.1865    2.4496 H       1  UNL1        0.0670
     31 H           1.2200   -0.0169    2.1119 H       1  UNL1        0.1550
     32 H          -2.9551    0.5879   -2.4479 H       1  UNL1        0.0726
     33 H          -1.2854    2.4640   -1.1569 H       1  UNL1        0.2108
     34 H          -2.6445   -0.6324    0.6391 H       1  UNL1        0.0622
     35 H          -4.3537   -0.5911    2.4813 H       1  UNL1        0.0646
     36 H          -6.2812    2.6622    0.5640 H       1  UNL1        0.0646
     37 H          -4.5867    2.6117   -1.2500 H       1  UNL1        0.0622
     38 H          -1.0885   -3.6987   -2.4027 H       1  UNL1        0.0639
     39 H           0.6981   -5.2731   -1.7195 H       1  UNL1        0.0618
     40 H           2.4051   -4.5216   -0.1068 H       1  UNL1        0.0618
     41 H           2.3040   -2.1994    0.8031 H       1  UNL1        0.0625
     42 H           4.7586    1.5550   -1.6005 H       1  UNL1        0.1886
@<TRIPOS>BOND
     1     1     2    1
     2     2     3   ar
     3     3     4   ar
     4     4     5    1
     5     5     6    1
     6     6     7   ar
     7     7     8   ar
     8     8     9    1
     9     9    10    1
    10     9    11    1
    11    11    12   ar
    12    12    13   ar
    13    13    14   ar
    14    14    15    1
    15    14    16   ar
    16    16    17   ar
    17     8    18   ar
    18    18    19   ar
    19    19    20   ar
    20    20    21   ar
    21    21    22   ar
    22    22    23   ar
    23    23    24   ar
    24     4    25   ar
    25    25    26   ar
    26    26     2   ar
    27    24     6   ar
    28    17    11   ar
    29    24    19   ar
    30     1    27    1
    31     1    28    1
    32     1    29    1
    33     3    30    1
    34     5    31    1
    35     9    32    1
    36    10    33    1
    37    12    34    1
    38    13    35    1
    39    16    36    1
    40    17    37    1
    41    20    38    1
    42    21    39    1
    43    22    40    1
    44    23    41    1
    45    26    42    1
