@<TRIPOS>MOLECULE
*****
 72 77 0 0 0
SMALL
GASTEIGER

@<TRIPOS>ATOM
      1 C           9.6879    1.7814    1.8045 C.3     1  UNL1        0.0125
      2 C           8.4765    1.5951    0.9780 C.2     1  UNL1        0.2141
      3 O           7.3823    2.0828    1.3184 O.2     1  UNL1       -0.2758
      4 N           8.5069    0.8518   -0.2416 N.am    1  UNL1       -0.2857
      5 C           7.3264    0.6899   -1.0141 C.ar    1  UNL1        0.0341
      6 C           7.0433    1.6275   -2.0040 C.ar    1  UNL1       -0.0385
      7 C           5.9139    1.5098   -2.7672 C.ar    1  UNL1       -0.0360
      8 C           5.0183    0.4614   -2.5837 C.ar    1  UNL1        0.0468
      9 N           3.8721    0.1202   -3.1859 N.ar    1  UNL1       -0.3604
     10 C           3.4062   -0.9897   -2.6298 C.ar    1  UNL1        0.0060
     11 C           4.2785   -1.4046   -1.6130 C.ar    1  UNL1       -0.0200
     12 C           4.0475   -2.5725   -0.7565 C.3     1  UNL1        0.0032
     13 CA          3.4100   -2.2691    0.5690 C.3     1  UNL1        0.1245
     14 N           2.1312   -1.6191    0.3263 N.am    1  UNL1       -0.2981
     15 C           0.9497   -2.1424    0.8528 C.2     1  UNL1        0.2448
     16 O           1.0167   -3.1910    1.5463 O.2     1  UNL1       -0.2702
     17 C          -0.3748   -1.5359    0.6429 C.ar    1  UNL1        0.0388
     18 C          -0.5708   -0.4262   -0.1487 C.ar    1  UNL1       -0.0476
     19 C          -1.8276    0.1501   -0.3390 C.ar    1  UNL1       -0.0353
     20 C          -2.9355   -0.4062    0.2873 C.ar    1  UNL1        0.0694
     21 C          -2.7556   -1.4995    1.0695 C.ar    1  UNL1        0.0904
     22 C          -1.4869   -2.0670    1.2514 C.ar    1  UNL1       -0.0221
     23 N          -3.9690   -1.8259    1.5477 N.ar    1  UNL1       -0.2274
     24 C          -4.8659   -0.9243    1.0481 C.ar    1  UNL1        0.1451
     25 C          -6.2714   -1.0015    1.3851 C.ar    1  UNL1        0.0551
     26 C          -6.9708   -0.3684    2.3919 C.ar    1  UNL1       -0.0132
     27 C          -8.2894   -0.7611    2.3198 C.ar    1  UNL1        0.0924
     28 O          -8.3922   -1.6057    1.3031 O.2     1  UNL1       -0.4703
     29 C          -7.2059   -1.7642    0.7320 C.ar    1  UNL1        0.1023
     30 N          -4.2482   -0.0348    0.2641 N.ar    1  UNL1       -0.3204
     31 C          -4.8015    1.0867   -0.4673 C.3     1  UNL1        0.0365
     32 C          -5.0230    2.2140    0.5035 C.3     1  UNL1       -0.0320
     33 C          -6.0095    3.1954   -0.0967 C.3     1  UNL1       -0.0512
     34 C          -7.3353    2.4239   -0.0941 C.3     1  UNL1       -0.0529
     35 C          -7.2404    1.3545   -1.1205 C.3     1  UNL1       -0.0512
     36 C          -5.9123    0.7806   -1.3834 C.3     1  UNL1       -0.0320
     37 C           4.2084   -1.5049    1.5185 C.2     1  UNL1        0.3256
     38 O           5.2844   -1.9528    1.9619 O.2     1  UNL1       -0.2489
     39 OXT         3.7813   -0.2616    1.9462 O.3     1  UNL1       -0.4793
     40 C           5.2832   -0.4849   -1.5992 C.ar    1  UNL1        0.0046
     41 C           6.4421   -0.3369   -0.8402 C.ar    1  UNL1       -0.0311
     42 H           9.4572    1.5061    2.8555 H       1  UNL1        0.0323
     43 H          10.5483    1.2460    1.3878 H       1  UNL1        0.0323
     44 H           9.9262    2.8751    1.8093 H       1  UNL1        0.0323
     45 H           9.4240    0.4433   -0.5294 H       1  UNL1        0.1548
     46 H           7.7543    2.4369   -2.1293 H       1  UNL1        0.0637
     47 H           5.6900    2.2356   -3.5340 H       1  UNL1        0.0639
     48 H           3.4511    0.6774   -3.9706 H       1  UNL1        0.1653
     49 H           2.4915   -1.5066   -2.9103 H       1  UNL1        0.0810
     50 H           3.3848   -3.2988   -1.2875 H       1  UNL1        0.0337
     51 H           5.0011   -3.1508   -0.5688 H       1  UNL1        0.0337
     52 HA          3.1678   -3.2487    1.0798 H       1  UNL1        0.0618
     53 H           2.1213   -0.7606   -0.2491 H       1  UNL1        0.1498
     54 H           0.3054   -0.0051   -0.6318 H       1  UNL1        0.0626
     55 H          -1.9565    1.0176   -0.9596 H       1  UNL1        0.0639
     56 H          -1.4075   -2.9400    1.8870 H       1  UNL1        0.0647
     57 H          -6.5780    0.3279    3.1335 H       1  UNL1        0.0656
     58 H          -9.1327   -0.4855    2.9277 H       1  UNL1        0.1029
     59 H          -7.0756   -2.4170   -0.1204 H       1  UNL1        0.1036
     60 H          -3.9525    1.4740   -1.1190 H       1  UNL1        0.0528
     61 H          -5.4084    1.8919    1.4871 H       1  UNL1        0.0285
     62 H          -4.0791    2.8040    0.6876 H       1  UNL1        0.0285
     63 H          -5.7291    3.4840   -1.1270 H       1  UNL1        0.0266
     64 H          -6.0897    4.0852    0.5582 H       1  UNL1        0.0266
     65 H          -8.1349    3.1642   -0.3275 H       1  UNL1        0.0265
     66 H          -7.4714    2.0635    0.9435 H       1  UNL1        0.0265
     67 H          -7.9809    0.5533   -0.8161 H       1  UNL1        0.0266
     68 H          -7.7220    1.7800   -2.0529 H       1  UNL1        0.0266
     69 H          -6.0079   -0.3456   -1.4401 H       1  UNL1        0.0285
     70 H          -5.6550    1.0259   -2.4630 H       1  UNL1        0.0285
     71 HXT         4.0186    0.0774    2.8832 H       1  UNL1        0.2951
     72 H           6.6587   -1.0785   -0.0875 H       1  UNL1        0.0643
@<TRIPOS>BOND
     1     1     2    1
     2     2     3    2
     3     2     4   am
     4     4     5    1
     5     5     6   ar
     6     6     7   ar
     7     7     8   ar
     8     8     9   ar
     9     9    10   ar
    10    10    11   ar
    11    11    12    1
    12    12    13    1
    13    13    14    1
    14    14    15   am
    15    15    16    2
    16    15    17    1
    17    17    18   ar
    18    18    19   ar
    19    19    20   ar
    20    20    21   ar
    21    21    22   ar
    22    21    23   ar
    23    23    24   ar
    24    24    25    1
    25    25    26   ar
    26    26    27   ar
    27    27    28   ar
    28    28    29   ar
    29    24    30   ar
    30    30    31    1
    31    31    32    1
    32    32    33    1
    33    33    34    1
    34    34    35    1
    35    35    36    1
    36    13    37    1
    37    37    38    2
    38    37    39    1
    39    11    40   ar
    40    40    41   ar
    41    41     5   ar
    42    40     8   ar
    43    22    17   ar
    44    29    25   ar
    45    36    31    1
    46    30    20   ar
    47     1    42    1
    48     1    43    1
    49     1    44    1
    50     4    45    1
    51     6    46    1
    52     7    47    1
    53     9    48    1
    54    10    49    1
    55    12    50    1
    56    12    51    1
    57    13    52    1
    58    14    53    1
    59    18    54    1
    60    19    55    1
    61    22    56    1
    62    26    57    1
    63    27    58    1
    64    29    59    1
    65    31    60    1
    66    32    61    1
    67    32    62    1
    68    33    63    1
    69    33    64    1
    70    34    65    1
    71    34    66    1
    72    35    67    1
    73    35    68    1
    74    36    69    1
    75    36    70    1
    76    39    71    1
    77    41    72    1
