
     RDKit          3D

 72 77  0  0  0  0  0  0  0  0999 V2000
    9.6879    1.7814    1.8045 C   0  0  0  0  0  0  0  0  0  0  0  0
    8.4765    1.5951    0.9780 C   0  0  0  0  0  0  0  0  0  0  0  0
    7.3823    2.0828    1.3184 O   0  0  0  0  0  0  0  0  0  0  0  0
    8.5069    0.8518   -0.2416 N   0  0  0  0  0  0  0  0  0  0  0  0
    7.3264    0.6899   -1.0141 C   0  0  0  0  0  0  0  0  0  0  0  0
    7.0433    1.6275   -2.0040 C   0  0  0  0  0  0  0  0  0  0  0  0
    5.9139    1.5098   -2.7672 C   0  0  0  0  0  0  0  0  0  0  0  0
    5.0183    0.4614   -2.5837 C   0  0  0  0  0  0  0  0  0  0  0  0
    3.8721    0.1202   -3.1859 N   0  0  0  0  0  0  0  0  0  0  0  0
    3.4062   -0.9897   -2.6298 C   0  0  0  0  0  0  0  0  0  0  0  0
    4.2785   -1.4046   -1.6130 C   0  0  0  0  0  0  0  0  0  0  0  0
    4.0475   -2.5725   -0.7565 C   0  0  0  0  0  0  0  0  0  0  0  0
    3.4100   -2.2691    0.5690 C   0  0  2  0  0  0  0  0  0  0  0  0
    2.1312   -1.6191    0.3263 N   0  0  0  0  0  0  0  0  0  0  0  0
    0.9497   -2.1424    0.8528 C   0  0  0  0  0  0  0  0  0  0  0  0
    1.0167   -3.1910    1.5463 O   0  0  0  0  0  0  0  0  0  0  0  0
   -0.3748   -1.5359    0.6429 C   0  0  0  0  0  0  0  0  0  0  0  0
   -0.5708   -0.4262   -0.1487 C   0  0  0  0  0  0  0  0  0  0  0  0
   -1.8276    0.1501   -0.3390 C   0  0  0  0  0  0  0  0  0  0  0  0
   -2.9355   -0.4062    0.2873 C   0  0  0  0  0  0  0  0  0  0  0  0
   -2.7556   -1.4995    1.0695 C   0  0  0  0  0  0  0  0  0  0  0  0
   -1.4869   -2.0670    1.2514 C   0  0  0  0  0  0  0  0  0  0  0  0
   -3.9690   -1.8259    1.5477 N   0  0  0  0  0  0  0  0  0  0  0  0
   -4.8659   -0.9243    1.0481 C   0  0  0  0  0  0  0  0  0  0  0  0
   -6.2714   -1.0015    1.3851 C   0  0  0  0  0  0  0  0  0  0  0  0
   -6.9708   -0.3684    2.3919 C   0  0  0  0  0  0  0  0  0  0  0  0
   -8.2894   -0.7611    2.3198 C   0  0  0  0  0  0  0  0  0  0  0  0
   -8.3922   -1.6057    1.3031 O   0  0  0  0  0  0  0  0  0  0  0  0
   -7.2059   -1.7642    0.7320 C   0  0  0  0  0  0  0  0  0  0  0  0
   -4.2482   -0.0348    0.2641 N   0  0  0  0  0  0  0  0  0  0  0  0
   -4.8015    1.0867   -0.4673 C   0  0  0  0  0  0  0  0  0  0  0  0
   -5.0230    2.2140    0.5035 C   0  0  0  0  0  0  0  0  0  0  0  0
   -6.0095    3.1954   -0.0967 C   0  0  0  0  0  0  0  0  0  0  0  0
   -7.3353    2.4239   -0.0941 C   0  0  0  0  0  0  0  0  0  0  0  0
   -7.2404    1.3545   -1.1205 C   0  0  0  0  0  0  0  0  0  0  0  0
   -5.9123    0.7806   -1.3834 C   0  0  0  0  0  0  0  0  0  0  0  0
    4.2084   -1.5049    1.5185 C   0  0  0  0  0  0  0  0  0  0  0  0
    5.2844   -1.9528    1.9619 O   0  0  0  0  0  0  0  0  0  0  0  0
    3.7813   -0.2616    1.9462 O   0  0  0  0  0  0  0  0  0  0  0  0
    5.2832   -0.4849   -1.5992 C   0  0  0  0  0  0  0  0  0  0  0  0
    6.4421   -0.3369   -0.8402 C   0  0  0  0  0  0  0  0  0  0  0  0
    9.4572    1.5061    2.8555 H   0  0  0  0  0  0  0  0  0  0  0  0
   10.5483    1.2460    1.3878 H   0  0  0  0  0  0  0  0  0  0  0  0
    9.9262    2.8751    1.8093 H   0  0  0  0  0  0  0  0  0  0  0  0
    9.4240    0.4433   -0.5294 H   0  0  0  0  0  0  0  0  0  0  0  0
    7.7543    2.4369   -2.1293 H   0  0  0  0  0  0  0  0  0  0  0  0
    5.6900    2.2356   -3.5340 H   0  0  0  0  0  0  0  0  0  0  0  0
    3.4511    0.6774   -3.9706 H   0  0  0  0  0  0  0  0  0  0  0  0
    2.4915   -1.5066   -2.9103 H   0  0  0  0  0  0  0  0  0  0  0  0
    3.3848   -3.2988   -1.2875 H   0  0  0  0  0  0  0  0  0  0  0  0
    5.0011   -3.1508   -0.5688 H   0  0  0  0  0  0  0  0  0  0  0  0
    3.1678   -3.2487    1.0798 H   0  0  0  0  0  0  0  0  0  0  0  0
    2.1213   -0.7606   -0.2491 H   0  0  0  0  0  0  0  0  0  0  0  0
    0.3054   -0.0051   -0.6318 H   0  0  0  0  0  0  0  0  0  0  0  0
   -1.9565    1.0176   -0.9596 H   0  0  0  0  0  0  0  0  0  0  0  0
   -1.4075   -2.9400    1.8870 H   0  0  0  0  0  0  0  0  0  0  0  0
   -6.5780    0.3279    3.1335 H   0  0  0  0  0  0  0  0  0  0  0  0
   -9.1327   -0.4855    2.9277 H   0  0  0  0  0  0  0  0  0  0  0  0
   -7.0756   -2.4170   -0.1204 H   0  0  0  0  0  0  0  0  0  0  0  0
   -3.9525    1.4740   -1.1190 H   0  0  0  0  0  0  0  0  0  0  0  0
   -5.4084    1.8919    1.4871 H   0  0  0  0  0  0  0  0  0  0  0  0
   -4.0791    2.8040    0.6876 H   0  0  0  0  0  0  0  0  0  0  0  0
   -5.7291    3.4840   -1.1270 H   0  0  0  0  0  0  0  0  0  0  0  0
   -6.0897    4.0852    0.5582 H   0  0  0  0  0  0  0  0  0  0  0  0
   -8.1349    3.1642   -0.3275 H   0  0  0  0  0  0  0  0  0  0  0  0
   -7.4714    2.0635    0.9435 H   0  0  0  0  0  0  0  0  0  0  0  0
   -7.9809    0.5533   -0.8161 H   0  0  0  0  0  0  0  0  0  0  0  0
   -7.7220    1.7800   -2.0529 H   0  0  0  0  0  0  0  0  0  0  0  0
   -6.0079   -0.3456   -1.4401 H   0  0  0  0  0  0  0  0  0  0  0  0
   -5.6550    1.0259   -2.4630 H   0  0  0  0  0  0  0  0  0  0  0  0
    4.0186    0.0774    2.8832 H   0  0  0  0  0  0  0  0  0  0  0  0
    6.6587   -1.0785   -0.0875 H   0  0  0  0  0  0  0  0  0  0  0  0
  1  2  1  0
  2  3  2  0
  2  4  1  0
  4  5  1  0
  5  6  2  0
  6  7  1  0
  7  8  2  0
  8  9  1  0
  9 10  1  0
 10 11  2  0
 11 12  1  0
 12 13  1  0
 13 14  1  0
 14 15  1  0
 15 16  2  0
 15 17  1  0
 17 18  2  0
 18 19  1  0
 19 20  2  0
 20 21  1  0
 21 22  2  0
 21 23  1  0
 23 24  2  0
 24 25  1  0
 25 26  1  0
 26 27  2  0
 27 28  1  0
 28 29  1  0
 24 30  1  0
 30 31  1  0
 31 32  1  0
 32 33  1  0
 33 34  1  0
 34 35  1  0
 35 36  1  0
 13 37  1  0
 37 38  2  0
 37 39  1  0
 11 40  1  0
 40 41  2  0
 41  5  1  0
 40  8  1  0
 22 17  1  0
 29 25  2  0
 36 31  1  0
 30 20  1  0
  1 42  1  0
  1 43  1  0
  1 44  1  0
  4 45  1  0
  6 46  1  0
  7 47  1  0
  9 48  1  0
 10 49  1  0
 12 50  1  0
 12 51  1  0
 13 52  1  1
 14 53  1  0
 18 54  1  0
 19 55  1  0
 22 56  1  0
 26 57  1  0
 27 58  1  0
 29 59  1  0
 31 60  1  0
 32 61  1  0
 32 62  1  0
 33 63  1  0
 33 64  1  0
 34 65  1  0
 34 66  1  0
 35 67  1  0
 35 68  1  0
 36 69  1  0
 36 70  1  0
 39 71  1  0
 41 72  1  0
M  END
$$$$
