@<TRIPOS>MOLECULE
*****
 32 34 0 0 0
SMALL
GASTEIGER

@<TRIPOS>ATOM
      1 C4*        -2.5730    0.4635   -0.1378 C.3     1  UNL1        0.1126
      2 C5*        -3.8858    0.9523    0.3942 C.3     1  UNL1        0.0730
      3 O5*        -3.6972    2.3261    0.6681 O.3     1  UNL1       -0.3924
      4 O4*        -1.5278    0.6262    0.7704 O.3     1  UNL1       -0.3457
      5 C1*        -0.4622    0.1204   -0.0063 C.3     1  UNL1        0.1655
      6 N           0.7270   -0.0718    0.7639 N.ar    1  UNL1       -0.3009
      7 C           0.7409   -0.4301    2.0638 C.ar    1  UNL1        0.0991
      8 N           2.0207   -0.5183    2.4623 N.ar    1  UNL1       -0.2356
      9 C           2.8256   -0.2155    1.4141 C.ar    1  UNL1        0.0905
     10 C           4.1924   -0.1377    1.2163 C.ar    1  UNL1       -0.0145
     11 C           4.6839    0.2127   -0.0235 C.ar    1  UNL1        0.0614
     12 CL          6.4195    0.3182   -0.2994 Cl      1  UNL1       -0.0820
     13 C           3.8737    0.4960   -1.1008 C.ar    1  UNL1        0.0613
     14 CL          4.4576    0.9423   -2.6828 Cl      1  UNL1       -0.0820
     15 C           2.4903    0.4208   -0.9131 C.ar    1  UNL1       -0.0162
     16 C           2.0020    0.0679    0.3361 C.ar    1  UNL1        0.0723
     17 C2*        -0.9870   -1.1545   -0.6297 C.3     1  UNL1        0.1285
     18 O2*        -0.7406   -1.1194   -2.0055 O.3     1  UNL1       -0.3847
     19 C3*        -2.4961   -1.0037   -0.4052 C.3     1  UNL1        0.1135
     20 O3*        -3.2297   -1.4023   -1.5169 O.3     1  UNL1       -0.3864
     21 H4*        -2.3137    1.0147   -1.0434 H       1  UNL1        0.0647
     22 H5*1       -4.6039    0.9504   -0.4623 H       1  UNL1        0.0584
     23 H5*2       -4.2411    0.4324    1.2813 H       1  UNL1        0.0584
     24 H5*        -2.8576    2.3633    1.2217 H       1  UNL1        0.2095
     25 H1*        -0.2978    0.9118   -0.7825 H       1  UNL1        0.0866
     26 H          -0.1059   -0.6296    2.7350 H       1  UNL1        0.1030
     27 H           4.8606   -0.3486    2.0220 H       1  UNL1        0.0654
     28 H           1.8112    0.6336   -1.7265 H       1  UNL1        0.0654
     29 H2*        -0.5805   -2.0448   -0.1427 H       1  UNL1        0.0665
     30 H2*        -0.6626   -0.1735   -2.3296 H       1  UNL1        0.2101
     31 H3*        -2.7470   -1.6225    0.4680 H       1  UNL1        0.0647
     32 H3*        -3.0960   -2.3805   -1.6090 H       1  UNL1        0.2100
@<TRIPOS>BOND
     1     1     2    1
     2     2     3    1
     3     1     4    1
     4     4     5    1
     5     5     6    1
     6     6     7   ar
     7     7     8   ar
     8     8     9   ar
     9     9    10   ar
    10    10    11   ar
    11    11    12    1
    12    11    13   ar
    13    13    14    1
    14    13    15   ar
    15    15    16   ar
    16     5    17    1
    17    17    18    1
    18    17    19    1
    19    19    20    1
    20    19     1    1
    21    16     6   ar
    22    16     9   ar
    23     1    21    1
    24     2    22    1
    25     2    23    1
    26     3    24    1
    27     5    25    1
    28     7    26    1
    29    10    27    1
    30    15    28    1
    31    17    29    1
    32    18    30    1
    33    19    31    1
    34    20    32    1
