@<TRIPOS>MOLECULE
*****
 59 63 0 0 0
SMALL
GASTEIGER

@<TRIPOS>ATOM
      1 O          -1.2641   -3.4651   -1.9827 O.2     1  UNL1       -0.2817
      2 C          -2.0427   -2.4804   -1.9691 C.2     1  UNL1        0.2496
      3 C          -3.4817   -2.4292   -2.1679 C.2     1  UNL1        0.2915
      4 O          -4.2153   -3.4257   -2.3989 O.2     1  UNL1       -0.2661
      5 N          -3.9150   -1.0743   -2.0580 N.am    1  UNL1       -0.2598
      6 C          -5.2811   -0.5933   -2.1950 C.3     1  UNL1        0.0452
      7 C          -6.0451   -0.5901   -0.9492 C.ar    1  UNL1       -0.0295
      8 C          -6.7890   -1.6833   -0.5234 C.ar    1  UNL1       -0.0536
      9 C          -7.5060   -1.6372    0.6723 C.ar    1  UNL1       -0.0199
     10 C          -7.4998   -0.5118    1.4658 C.ar    1  UNL1        0.1169
     11 O          -8.2268   -0.4935    2.6577 O.3     1  UNL1       -0.5068
     12 C          -6.7644    0.5732    1.0476 C.ar    1  UNL1       -0.0199
     13 C          -6.0459    0.5289   -0.1493 C.ar    1  UNL1       -0.0536
     14 C          -2.7409   -0.3213   -1.7953 C.ar    1  UNL1        0.0481
     15 C          -2.6115    1.0620   -1.6032 C.ar    1  UNL1       -0.0377
     16 C          -1.3778    1.6211   -1.3576 C.ar    1  UNL1       -0.0335
     17 C          -0.2786    0.8226   -1.3016 C.ar    1  UNL1        0.1063
     18 S           1.2841    1.5271   -0.9886 S.O2    1  UNL1        0.0612
     19 O           2.2545    0.7462   -1.8371 O.2     1  UNL1       -0.1528
     20 O           1.2390    2.9138   -1.6341 O.2     1  UNL1       -0.1528
     21 N           1.7899    1.6653    0.5371 N.3     1  UNL1       -0.1703
     22 C           1.1681    2.4091    1.5283 C.3     1  UNL1        0.0210
     23 C           1.6736    1.7443    2.8149 C.3     1  UNL1       -0.0370
     24 C           2.8836    0.9024    2.3809 C.3     1  UNL1       -0.0313
     25 C           3.0938    1.4341    0.9743 C.3     1  UNL1        0.0659
     26 C           4.0083    0.6236    0.1518 C.3     1  UNL1        0.1067
     27 O           5.2647    0.5521    0.8469 O.3     1  UNL1       -0.4904
     28 C           6.2908   -0.1721    0.2473 C.ar    1  UNL1        0.1206
     29 C           6.1158   -0.8045   -0.9758 C.ar    1  UNL1       -0.0199
     30 C           7.1263   -1.5241   -1.5775 C.ar    1  UNL1       -0.0583
     31 C           8.3656   -1.6495   -0.9879 C.ar    1  UNL1       -0.0615
     32 C           8.5500   -1.0212    0.2340 C.ar    1  UNL1       -0.0583
     33 C           7.5320   -0.3058    0.8235 C.ar    1  UNL1       -0.0199
     34 C          -0.3504   -0.5489   -1.4842 C.ar    1  UNL1       -0.0226
     35 C          -1.6144   -1.1088   -1.7342 C.ar    1  UNL1        0.0502
     36 H          -5.8082   -1.2945   -2.9066 H       1  UNL1        0.0518
     37 H          -5.3398    0.3964   -2.6589 H       1  UNL1        0.0518
     38 H          -6.7855   -2.5492   -1.1473 H       1  UNL1        0.0622
     39 H          -8.0810   -2.4930    0.9940 H       1  UNL1        0.0654
     40 H          -9.0146   -1.1452    2.7380 H       1  UNL1        0.2921
     41 H          -6.7623    1.4569    1.6749 H       1  UNL1        0.0654
     42 H          -5.4901    1.4140   -0.4213 H       1  UNL1        0.0622
     43 H          -3.4637    1.6909   -1.6473 H       1  UNL1        0.0637
     44 H          -1.2633    2.6635   -1.2104 H       1  UNL1        0.0638
     45 H           0.0903    2.5225    1.5090 H       1  UNL1        0.0444
     46 H           1.6069    3.4426    1.5511 H       1  UNL1        0.0444
     47 H           0.9227    1.0076    3.1950 H       1  UNL1        0.0279
     48 H           1.9427    2.4795    3.5783 H       1  UNL1        0.0279
     49 H           3.7504    1.0953    3.0341 H       1  UNL1        0.0282
     50 H           2.6359   -0.1634    2.3109 H       1  UNL1        0.0282
     51 H           3.5931    2.4395    1.1282 H       1  UNL1        0.0513
     52 H           3.7039   -0.3968   -0.0603 H       1  UNL1        0.0713
     53 H           4.2629    1.2259   -0.7644 H       1  UNL1        0.0713
     54 H           5.1541   -0.7202   -1.4563 H       1  UNL1        0.0654
     55 H           6.8924   -1.9895   -2.5460 H       1  UNL1        0.0619
     56 H           9.1358   -2.2195   -1.4843 H       1  UNL1        0.0618
     57 H           9.5195   -1.1044    0.7214 H       1  UNL1        0.0619
     58 H           7.7198    0.1645    1.7706 H       1  UNL1        0.0654
     59 H           0.4886   -1.2092   -1.4479 H       1  UNL1        0.0645
@<TRIPOS>BOND
     1     1     2    2
     2     2     3    1
     3     3     4    2
     4     3     5   am
     5     5     6    1
     6     6     7    1
     7     7     8   ar
     8     8     9   ar
     9     9    10   ar
    10    10    11    1
    11    10    12   ar
    12    12    13   ar
    13     5    14    1
    14    14    15   ar
    15    15    16   ar
    16    16    17   ar
    17    17    18    1
    18    18    19    2
    19    18    20    2
    20    18    21    1
    21    21    22    1
    22    22    23    1
    23    23    24    1
    24    24    25    1
    25    25    26    1
    26    26    27    1
    27    27    28    1
    28    28    29   ar
    29    29    30   ar
    30    30    31   ar
    31    31    32   ar
    32    32    33   ar
    33    17    34   ar
    34    34    35   ar
    35    35     2    1
    36    13     7   ar
    37    35    14   ar
    38    25    21    1
    39    33    28   ar
    40     6    36    1
    41     6    37    1
    42     8    38    1
    43     9    39    1
    44    11    40    1
    45    12    41    1
    46    13    42    1
    47    15    43    1
    48    16    44    1
    49    22    45    1
    50    22    46    1
    51    23    47    1
    52    23    48    1
    53    24    49    1
    54    24    50    1
    55    25    51    1
    56    26    52    1
    57    26    53    1
    58    29    54    1
    59    30    55    1
    60    31    56    1
    61    32    57    1
    62    33    58    1
    63    34    59    1
