@<TRIPOS>MOLECULE
*****
 59 61 0 0 0
SMALL
GASTEIGER

@<TRIPOS>ATOM
      1 C          -3.1240    0.0159   -3.8220 C.3     1  UNL1       -0.0585
      2 C          -2.7643   -1.0282   -2.7897 C.3     1  UNL1       -0.0183
      3 C          -1.6544   -1.9333   -3.1820 C.3     1  UNL1       -0.0585
      4 C          -2.6776   -0.4776   -1.4075 C.ar    1  UNL1       -0.0056
      5 C          -3.6174   -0.9040   -0.4588 C.ar    1  UNL1        0.0334
      6 N          -3.6200   -0.4957    0.8157 N.ar    1  UNL1       -0.2545
      7 C          -2.7003    0.3687    1.2759 C.ar    1  UNL1        0.0755
      8 C          -2.7246    0.8043    2.6900 C.ar    1  UNL1        0.0369
      9 C          -1.8415    1.6698    3.2430 C.ar    1  UNL1       -0.0314
     10 C          -1.9620    2.0108    4.5952 C.ar    1  UNL1        0.0418
     11 CL         -0.8086    3.1334    5.2933 Cl      1  UNL1       -0.0835
     12 C          -2.9535    1.4949    5.3923 C.ar    1  UNL1       -0.0406
     13 C          -3.8529    0.6157    4.8360 C.ar    1  UNL1       -0.0244
     14 C          -3.7239    0.2896    3.5094 C.ar    1  UNL1        0.1326
     15 F          -4.6367   -0.5860    2.9969 F       1  UNL1       -0.2048
     16 C          -1.7697    0.8091    0.3908 C.ar    1  UNL1       -0.0141
     17 C          -1.7272    0.4068   -0.9636 C.ar    1  UNL1        0.0383
     18 N          -0.7601    0.9354   -1.8107 N.pl3   1  UNL1       -0.3135
     19 C           0.2134    0.4864   -2.6711 C.ar    1  UNL1        0.0465
     20 C           0.1028    0.9014   -4.0288 C.ar    1  UNL1       -0.0217
     21 C           0.9800    0.5374   -4.9996 C.ar    1  UNL1        0.0293
     22 N           1.9985   -0.2533   -4.6495 N.ar    1  UNL1       -0.2624
     23 C           2.1808   -0.6915   -3.3927 C.ar    1  UNL1        0.0415
     24 C           1.2684   -0.3118   -2.3851 C.ar    1  UNL1        0.0758
     25 C           1.5455   -0.7721   -1.0387 C.2     1  UNL1        0.2474
     26 O           0.8689   -0.3189   -0.0947 O.2     1  UNL1       -0.2701
     27 N           2.5492   -1.7204   -0.7114 N.am    1  UNL1       -0.3100
     28 C           2.7841   -2.1413    0.6874 C.3     1  UNL1        0.0260
     29 C           3.1877   -0.9405    1.4670 C.3     1  UNL1        0.0326
     30 N           4.4109   -0.3247    0.9312 N.3     1  UNL1       -0.1933
     31 S           4.7341    1.0484    1.9499 S.O2    1  UNL1        0.0266
     32 C           5.0194    0.5837    3.6190 C.3     1  UNL1        0.0705
     33 O           5.9196    1.7578    1.3784 O.2     1  UNL1       -0.1585
     34 O           3.4957    1.9286    1.8511 O.2     1  UNL1       -0.1585
     35 H          -4.1907    0.0847   -4.0457 H       1  UNL1        0.0235
     36 H          -2.5593   -0.1125   -4.7670 H       1  UNL1        0.0235
     37 H          -2.8571    1.0058   -3.3466 H       1  UNL1        0.0235
     38 H          -3.6967   -1.7177   -2.8257 H       1  UNL1        0.0344
     39 H          -0.9265   -2.1348   -2.3707 H       1  UNL1        0.0235
     40 H          -1.2073   -1.5911   -4.1331 H       1  UNL1        0.0235
     41 H          -2.0173   -2.9857   -3.4475 H       1  UNL1        0.0235
     42 H          -4.3832   -1.6081   -0.7934 H       1  UNL1        0.0833
     43 H          -1.0564    2.0903    2.6493 H       1  UNL1        0.0639
     44 H          -3.0478    1.7619    6.4511 H       1  UNL1        0.0633
     45 H          -4.6413    0.2054    5.4693 H       1  UNL1        0.0647
     46 H          -1.0038    1.5141    0.7246 H       1  UNL1        0.0658
     47 H          -0.7850    2.0549   -1.7802 H       1  UNL1        0.1522
     48 H          -0.7222    1.5415   -4.2933 H       1  UNL1        0.0651
     49 H           0.8718    0.8725   -6.0447 H       1  UNL1        0.0830
     50 H           3.0251   -1.3274   -3.1586 H       1  UNL1        0.0838
     51 H           3.1193   -2.1251   -1.4652 H       1  UNL1        0.1491
     52 H           1.7864   -2.4964    1.0333 H       1  UNL1        0.0475
     53 H           3.4799   -2.9737    0.7331 H       1  UNL1        0.0475
     54 H           3.5075   -1.2808    2.5028 H       1  UNL1        0.0456
     55 H           2.4322   -0.1444    1.5424 H       1  UNL1        0.0456
     56 H           5.2006   -0.9813    0.9053 H       1  UNL1        0.1476
     57 H           4.9544   -0.5095    3.7165 H       1  UNL1        0.0479
     58 H           6.0432    0.8908    3.9033 H       1  UNL1        0.0479
     59 H           4.3339    1.0960    4.3242 H       1  UNL1        0.0479
@<TRIPOS>BOND
     1     1     2    1
     2     2     3    1
     3     2     4    1
     4     4     5   ar
     5     5     6   ar
     6     6     7   ar
     7     7     8    1
     8     8     9   ar
     9     9    10   ar
    10    10    11    1
    11    10    12   ar
    12    12    13   ar
    13    13    14   ar
    14    14    15    1
    15     7    16   ar
    16    16    17   ar
    17    17    18    1
    18    18    19    1
    19    19    20   ar
    20    20    21   ar
    21    21    22   ar
    22    22    23   ar
    23    23    24   ar
    24    24    25    1
    25    25    26    2
    26    25    27   am
    27    27    28    1
    28    28    29    1
    29    29    30    1
    30    30    31    1
    31    31    32    1
    32    31    33    2
    33    31    34    2
    34    17     4   ar
    35    24    19   ar
    36    14     8   ar
    37     1    35    1
    38     1    36    1
    39     1    37    1
    40     2    38    1
    41     3    39    1
    42     3    40    1
    43     3    41    1
    44     5    42    1
    45     9    43    1
    46    12    44    1
    47    13    45    1
    48    16    46    1
    49    18    47    1
    50    20    48    1
    51    21    49    1
    52    23    50    1
    53    27    51    1
    54    28    52    1
    55    28    53    1
    56    29    54    1
    57    29    55    1
    58    30    56    1
    59    32    57    1
    60    32    58    1
    61    32    59    1
