
     RDKit          3D

 59 61  0  0  0  0  0  0  0  0999 V2000
   -3.1240    0.0159   -3.8220 C   0  0  0  0  0  0  0  0  0  0  0  0
   -2.7643   -1.0282   -2.7897 C   0  0  0  0  0  0  0  0  0  0  0  0
   -1.6544   -1.9333   -3.1820 C   0  0  0  0  0  0  0  0  0  0  0  0
   -2.6776   -0.4776   -1.4075 C   0  0  0  0  0  0  0  0  0  0  0  0
   -3.6174   -0.9040   -0.4588 C   0  0  0  0  0  0  0  0  0  0  0  0
   -3.6200   -0.4957    0.8157 N   0  0  0  0  0  0  0  0  0  0  0  0
   -2.7003    0.3687    1.2759 C   0  0  0  0  0  0  0  0  0  0  0  0
   -2.7246    0.8043    2.6900 C   0  0  0  0  0  0  0  0  0  0  0  0
   -1.8415    1.6698    3.2430 C   0  0  0  0  0  0  0  0  0  0  0  0
   -1.9620    2.0108    4.5952 C   0  0  0  0  0  0  0  0  0  0  0  0
   -0.8086    3.1334    5.2933 Cl  0  0  0  0  0  0  0  0  0  0  0  0
   -2.9535    1.4949    5.3923 C   0  0  0  0  0  0  0  0  0  0  0  0
   -3.8529    0.6157    4.8360 C   0  0  0  0  0  0  0  0  0  0  0  0
   -3.7239    0.2896    3.5094 C   0  0  0  0  0  0  0  0  0  0  0  0
   -4.6367   -0.5860    2.9969 F   0  0  0  0  0  0  0  0  0  0  0  0
   -1.7697    0.8091    0.3908 C   0  0  0  0  0  0  0  0  0  0  0  0
   -1.7272    0.4068   -0.9636 C   0  0  0  0  0  0  0  0  0  0  0  0
   -0.7601    0.9354   -1.8107 N   0  0  0  0  0  0  0  0  0  0  0  0
    0.2134    0.4864   -2.6711 C   0  0  0  0  0  0  0  0  0  0  0  0
    0.1028    0.9014   -4.0288 C   0  0  0  0  0  0  0  0  0  0  0  0
    0.9800    0.5374   -4.9996 C   0  0  0  0  0  0  0  0  0  0  0  0
    1.9985   -0.2533   -4.6495 N   0  0  0  0  0  0  0  0  0  0  0  0
    2.1808   -0.6915   -3.3927 C   0  0  0  0  0  0  0  0  0  0  0  0
    1.2684   -0.3118   -2.3851 C   0  0  0  0  0  0  0  0  0  0  0  0
    1.5455   -0.7721   -1.0387 C   0  0  0  0  0  0  0  0  0  0  0  0
    0.8689   -0.3189   -0.0947 O   0  0  0  0  0  0  0  0  0  0  0  0
    2.5492   -1.7204   -0.7114 N   0  0  0  0  0  0  0  0  0  0  0  0
    2.7841   -2.1413    0.6874 C   0  0  0  0  0  0  0  0  0  0  0  0
    3.1877   -0.9405    1.4670 C   0  0  0  0  0  0  0  0  0  0  0  0
    4.4109   -0.3247    0.9312 N   0  0  0  0  0  0  0  0  0  0  0  0
    4.7341    1.0484    1.9499 S   0  0  0  0  0  6  0  0  0  0  0  0
    5.0194    0.5837    3.6190 C   0  0  0  0  0  0  0  0  0  0  0  0
    5.9196    1.7578    1.3784 O   0  0  0  0  0  0  0  0  0  0  0  0
    3.4957    1.9286    1.8511 O   0  0  0  0  0  0  0  0  0  0  0  0
   -4.1907    0.0847   -4.0457 H   0  0  0  0  0  0  0  0  0  0  0  0
   -2.5593   -0.1125   -4.7670 H   0  0  0  0  0  0  0  0  0  0  0  0
   -2.8571    1.0058   -3.3466 H   0  0  0  0  0  0  0  0  0  0  0  0
   -3.6967   -1.7177   -2.8257 H   0  0  0  0  0  0  0  0  0  0  0  0
   -0.9265   -2.1348   -2.3707 H   0  0  0  0  0  0  0  0  0  0  0  0
   -1.2073   -1.5911   -4.1331 H   0  0  0  0  0  0  0  0  0  0  0  0
   -2.0173   -2.9857   -3.4475 H   0  0  0  0  0  0  0  0  0  0  0  0
   -4.3832   -1.6081   -0.7934 H   0  0  0  0  0  0  0  0  0  0  0  0
   -1.0564    2.0903    2.6493 H   0  0  0  0  0  0  0  0  0  0  0  0
   -3.0478    1.7619    6.4511 H   0  0  0  0  0  0  0  0  0  0  0  0
   -4.6413    0.2054    5.4693 H   0  0  0  0  0  0  0  0  0  0  0  0
   -1.0038    1.5141    0.7246 H   0  0  0  0  0  0  0  0  0  0  0  0
   -0.7850    2.0549   -1.7802 H   0  0  0  0  0  0  0  0  0  0  0  0
   -0.7222    1.5415   -4.2933 H   0  0  0  0  0  0  0  0  0  0  0  0
    0.8718    0.8725   -6.0447 H   0  0  0  0  0  0  0  0  0  0  0  0
    3.0251   -1.3274   -3.1586 H   0  0  0  0  0  0  0  0  0  0  0  0
    3.1193   -2.1251   -1.4652 H   0  0  0  0  0  0  0  0  0  0  0  0
    1.7864   -2.4964    1.0333 H   0  0  0  0  0  0  0  0  0  0  0  0
    3.4799   -2.9737    0.7331 H   0  0  0  0  0  0  0  0  0  0  0  0
    3.5075   -1.2808    2.5028 H   0  0  0  0  0  0  0  0  0  0  0  0
    2.4322   -0.1444    1.5424 H   0  0  0  0  0  0  0  0  0  0  0  0
    5.2006   -0.9813    0.9053 H   0  0  0  0  0  0  0  0  0  0  0  0
    4.9544   -0.5095    3.7165 H   0  0  0  0  0  0  0  0  0  0  0  0
    6.0432    0.8908    3.9033 H   0  0  0  0  0  0  0  0  0  0  0  0
    4.3339    1.0960    4.3242 H   0  0  0  0  0  0  0  0  0  0  0  0
  1  2  1  0
  2  3  1  0
  2  4  1  0
  4  5  2  0
  5  6  1  0
  6  7  2  0
  7  8  1  0
  8  9  2  0
  9 10  1  0
 10 11  1  0
 10 12  2  0
 12 13  1  0
 13 14  2  0
 14 15  1  0
  7 16  1  0
 16 17  2  0
 17 18  1  0
 18 19  1  0
 19 20  2  0
 20 21  1  0
 21 22  2  0
 22 23  1  0
 23 24  2  0
 24 25  1  0
 25 26  2  0
 25 27  1  0
 27 28  1  0
 28 29  1  0
 29 30  1  0
 30 31  1  0
 31 32  1  0
 31 33  2  0
 31 34  2  0
 17  4  1  0
 24 19  1  0
 14  8  1  0
  1 35  1  0
  1 36  1  0
  1 37  1  0
  2 38  1  0
  3 39  1  0
  3 40  1  0
  3 41  1  0
  5 42  1  0
  9 43  1  0
 12 44  1  0
 13 45  1  0
 16 46  1  0
 18 47  1  0
 20 48  1  0
 21 49  1  0
 23 50  1  0
 27 51  1  0
 28 52  1  0
 28 53  1  0
 29 54  1  0
 29 55  1  0
 30 56  1  0
 32 57  1  0
 32 58  1  0
 32 59  1  0
M  END
$$$$
