@<TRIPOS>MOLECULE
*****
 21 20 0 0 0
SMALL
GASTEIGER

@<TRIPOS>ATOM
      1 C           3.6168   -0.5224   -0.0628 C.3     1  UNL1        0.0117
      2 S           2.2171    0.4804   -0.5381 S.O     1  UNL1        0.0193
      3 O           2.3751    1.9425   -0.1861 O.2     1  UNL1       -0.2575
      4 C           0.7391   -0.1959    0.2358 C.3     1  UNL1        0.0286
      5 C          -0.4120    0.6810   -0.1935 C.3     1  UNL1        0.0070
      6 CA         -1.6933    0.1896    0.4076 C.3     1  UNL1        0.0168
      7 C          -2.8248    1.0631   -0.0228 C.2     1  UNL1        0.0894
      8 O          -2.9381    2.3008    0.6275 O.co2   1  UNL1       -0.5442
      9 OXT        -3.7493    0.9351   -0.8820 O.co2   1  UNL1       -0.5442
     10 N          -1.9363   -1.1715   -0.0747 N.4     1  UNL1        0.2249
     11 H           3.4930   -1.5135   -0.5439 H       1  UNL1        0.0365
     12 H           3.6519   -0.6150    1.0339 H       1  UNL1        0.0365
     13 H           4.5364   -0.0589   -0.4910 H       1  UNL1        0.0365
     14 H           0.8295   -0.2442    1.3416 H       1  UNL1        0.0403
     15 H           0.5559   -1.2067   -0.1681 H       1  UNL1        0.0403
     16 H          -0.4968    0.5260   -1.3021 H       1  UNL1        0.0332
     17 H          -0.2251    1.7452   -0.0397 H       1  UNL1        0.0332
     18 HA         -1.6682    0.2031    1.5119 H       1  UNL1        0.0915
     19 H1         -1.3431   -1.4028   -0.8876 H       1  UNL1        0.2001
     20 H2         -1.8033   -1.8949    0.6554 H       1  UNL1        0.2001
     21 H3         -2.9244   -1.2406   -0.4213 H       1  UNL1        0.2001
@<TRIPOS>UNITY_ATOM_ATTR
8 1
charge -1
10 1
charge 1
@<TRIPOS>BOND
     1     2     1    1
     2     2     3    2
     3     2     4    1
     4     4     5    1
     5     5     6    1
     6     6     7    1
     7     7     8   ar
     8     7     9   ar
     9     6    10    1
    10     1    11    1
    11     1    12    1
    12     1    13    1
    13     4    14    1
    14     4    15    1
    15     5    16    1
    16     5    17    1
    17     6    18    1
    18    10    19    1
    19    10    20    1
    20    10    21    1
