
     RDKit          3D

 21 20  0  0  0  0  0  0  0  0999 V2000
    3.6168   -0.5224   -0.0628 C   0  0  0  0  0  0  0  0  0  0  0  0
    2.2171    0.4804   -0.5381 S   0  0  0  0  0  4  0  0  0  0  0  0
    2.3751    1.9425   -0.1861 O   0  0  0  0  0  0  0  0  0  0  0  0
    0.7391   -0.1959    0.2358 C   0  0  0  0  0  0  0  0  0  0  0  0
   -0.4120    0.6810   -0.1935 C   0  0  0  0  0  0  0  0  0  0  0  0
   -1.6933    0.1896    0.4076 C   0  0  1  0  0  0  0  0  0  0  0  0
   -2.8248    1.0631   -0.0228 C   0  0  0  0  0  0  0  0  0  0  0  0
   -2.9381    2.3008    0.6275 O   0  0  0  0  0  1  0  0  0  0  0  0
   -3.7493    0.9351   -0.8820 O   0  0  0  0  0  0  0  0  0  0  0  0
   -1.9363   -1.1715   -0.0747 N   0  0  0  0  0  4  0  0  0  0  0  0
    3.4930   -1.5135   -0.5439 H   0  0  0  0  0  0  0  0  0  0  0  0
    3.6519   -0.6150    1.0339 H   0  0  0  0  0  0  0  0  0  0  0  0
    4.5364   -0.0589   -0.4910 H   0  0  0  0  0  0  0  0  0  0  0  0
    0.8295   -0.2442    1.3416 H   0  0  0  0  0  0  0  0  0  0  0  0
    0.5559   -1.2067   -0.1681 H   0  0  0  0  0  0  0  0  0  0  0  0
   -0.4968    0.5260   -1.3021 H   0  0  0  0  0  0  0  0  0  0  0  0
   -0.2251    1.7452   -0.0397 H   0  0  0  0  0  0  0  0  0  0  0  0
   -1.6682    0.2031    1.5119 H   0  0  0  0  0  0  0  0  0  0  0  0
   -1.3431   -1.4028   -0.8876 H   0  0  0  0  0  0  0  0  0  0  0  0
   -1.8033   -1.8949    0.6554 H   0  0  0  0  0  0  0  0  0  0  0  0
   -2.9244   -1.2406   -0.4213 H   0  0  0  0  0  0  0  0  0  0  0  0
  2  1  1  1
  2  3  2  0
  2  4  1  0
  4  5  1  0
  5  6  1  0
  6  7  1  0
  7  8  1  0
  7  9  2  0
  6 10  1  0
  1 11  1  0
  1 12  1  0
  1 13  1  0
  4 14  1  0
  4 15  1  0
  5 16  1  0
  5 17  1  0
  6 18  1  1
 10 19  1  0
 10 20  1  0
 10 21  1  0
M  CHG  2   8  -1  10   1
M  END
$$$$
