
     RDKit          3D

 27 28  0  0  0  0  0  0  0  0999 V2000
    4.1729   -1.4677    1.2991 N   0  0  0  0  0  0  0  0  0  0  0  0
    3.1204   -0.6390    0.8243 C   0  0  0  0  0  0  0  0  0  0  0  0
    2.0459   -0.3258    1.6206 C   0  0  0  0  0  0  0  0  0  0  0  0
    1.0217    0.4779    1.1651 C   0  0  0  0  0  0  0  0  0  0  0  0
    1.0452    0.9962   -0.1150 C   0  0  0  0  0  0  0  0  0  0  0  0
    2.1275    0.6753   -0.9041 C   0  0  0  0  0  0  0  0  0  0  0  0
    3.1589   -0.1286   -0.4585 C   0  0  0  0  0  0  0  0  0  0  0  0
   -0.1256    2.0103   -0.8660 S   0  0  0  0  0  0  0  0  0  0  0  0
    0.5303    2.9760   -1.8241 O   0  0  0  0  0  0  0  0  0  0  0  0
   -0.7408    2.8605    0.2385 O   0  0  0  0  0  0  0  0  0  0  0  0
   -1.3655    1.1966   -1.7060 N   0  0  0  0  0  0  0  0  0  0  0  0
   -2.2475    0.3167   -1.0150 C   0  0  0  0  0  0  0  0  0  0  0  0
   -2.1496    0.0876    0.3067 N   0  0  0  0  0  0  0  0  0  0  0  0
   -2.9593   -0.7338    0.9994 C   0  0  0  0  0  0  0  0  0  0  0  0
   -3.9658   -1.3966    0.3264 C   0  0  0  0  0  0  0  0  0  0  0  0
   -4.0963   -1.1852   -1.0338 C   0  0  0  0  0  0  0  0  0  0  0  0
   -3.2396   -0.3470   -1.6344 N   0  0  0  0  0  0  0  0  0  0  0  0
    4.1240   -1.8404    2.2758 H   0  0  0  0  0  0  0  0  0  0  0  0
    4.9737   -1.6920    0.6737 H   0  0  0  0  0  0  0  0  0  0  0  0
    1.9903   -0.7122    2.6300 H   0  0  0  0  0  0  0  0  0  0  0  0
    0.1536    0.7556    1.7498 H   0  0  0  0  0  0  0  0  0  0  0  0
    2.2743    1.0133   -1.9285 H   0  0  0  0  0  0  0  0  0  0  0  0
    4.0251   -0.4007   -1.0535 H   0  0  0  0  0  0  0  0  0  0  0  0
   -1.5215    1.3097   -2.7338 H   0  0  0  0  0  0  0  0  0  0  0  0
   -2.8506   -0.8941    2.0648 H   0  0  0  0  0  0  0  0  0  0  0  0
   -4.6640   -2.0731    0.7874 H   0  0  0  0  0  0  0  0  0  0  0  0
   -4.8377   -1.6362   -1.6886 H   0  0  0  0  0  0  0  0  0  0  0  0
  1  2  1  0
  2  3  2  0
  3  4  1  0
  4  5  2  0
  5  6  1  0
  6  7  2  0
  5  8  1  0
  8  9  2  0
  8 10  2  0
  8 11  1  0
 11 12  1  0
 12 13  2  0
 13 14  1  0
 14 15  2  0
 15 16  1  0
 16 17  2  0
  7  2  1  0
 17 12  1  0
  1 18  1  0
  1 19  1  0
  3 20  1  0
  4 21  1  0
  6 22  1  0
  7 23  1  0
 11 24  1  0
 14 25  1  0
 15 26  1  0
 16 27  1  0
M  END
$$$$
