
     RDKit          3D

 46 47  0  0  0  0  0  0  0  0999 V2000
   -6.3326    0.9065    1.3920 C   0  0  0  0  0  0  0  0  0  0  0  0
   -5.1910    1.0619    0.4097 C   0  0  0  0  0  0  0  0  0  0  0  0
   -4.2438   -0.0113    0.4977 N   0  0  0  0  0  0  0  0  0  0  0  0
   -4.8457   -1.2185    0.0361 C   0  0  0  0  0  0  0  0  0  0  0  0
   -3.9280   -2.4125    0.0992 C   0  0  0  0  0  0  0  0  0  0  0  0
   -2.9864    0.2956   -0.1367 C   0  0  0  0  0  0  0  0  0  0  0  0
   -2.1896    1.3418    0.5582 C   0  0  0  0  0  0  0  0  0  0  0  0
   -0.9741    1.6631   -0.0264 O   0  0  0  0  0  0  0  0  0  0  0  0
    0.1385    0.9089   -0.2582 C   0  0  0  0  0  0  0  0  0  0  0  0
    1.0551    1.7659   -0.8914 C   0  0  0  0  0  0  0  0  0  0  0  0
    2.3266    1.3194   -1.2796 C   0  0  0  0  0  0  0  0  0  0  0  0
    2.6892   -0.0000   -1.0330 C   0  0  0  0  0  0  0  0  0  0  0  0
    4.0214   -0.5446   -1.4153 C   0  0  0  0  0  0  0  0  0  0  0  0
    4.9945   -0.3881   -0.2999 C   0  0  0  0  0  0  0  0  0  0  0  0
    5.7396    0.7857   -0.2249 C   0  0  0  0  0  0  0  0  0  0  0  0
    6.6498    0.9362    0.8125 C   0  0  0  0  0  0  0  0  0  0  0  0
    6.7572   -0.1142    1.7225 C   0  0  0  0  0  0  0  0  0  0  0  0
    6.0261   -1.2942    1.6699 C   0  0  0  0  0  0  0  0  0  0  0  0
    5.1316   -1.4045    0.6225 C   0  0  0  0  0  0  0  0  0  0  0  0
    1.7931   -0.8422   -0.4125 C   0  0  0  0  0  0  0  0  0  0  0  0
    0.5542   -0.3842   -0.0409 C   0  0  0  0  0  0  0  0  0  0  0  0
   -6.8353    1.9032    1.4326 H   0  0  0  0  0  0  0  0  0  0  0  0
   -7.1061    0.1869    1.0598 H   0  0  0  0  0  0  0  0  0  0  0  0
   -5.9065    0.7080    2.3745 H   0  0  0  0  0  0  0  0  0  0  0  0
   -5.6515    1.0627   -0.6161 H   0  0  0  0  0  0  0  0  0  0  0  0
   -4.7348    2.0443    0.6305 H   0  0  0  0  0  0  0  0  0  0  0  0
   -5.1295   -1.1087   -1.0460 H   0  0  0  0  0  0  0  0  0  0  0  0
   -5.7144   -1.4391    0.6908 H   0  0  0  0  0  0  0  0  0  0  0  0
   -4.4579   -3.3499    0.4433 H   0  0  0  0  0  0  0  0  0  0  0  0
   -3.0956   -2.2730    0.8077 H   0  0  0  0  0  0  0  0  0  0  0  0
   -3.4916   -2.6680   -0.8883 H   0  0  0  0  0  0  0  0  0  0  0  0
   -2.3774   -0.6159   -0.2571 H   0  0  0  0  0  0  0  0  0  0  0  0
   -3.2219    0.6073   -1.2004 H   0  0  0  0  0  0  0  0  0  0  0  0
   -1.9985    0.9723    1.6146 H   0  0  0  0  0  0  0  0  0  0  0  0
   -2.7410    2.2977    0.7014 H   0  0  0  0  0  0  0  0  0  0  0  0
    0.9845    2.8215   -1.1786 H   0  0  0  0  0  0  0  0  0  0  0  0
    3.1035    1.8858   -1.7688 H   0  0  0  0  0  0  0  0  0  0  0  0
    4.3743    0.0262   -2.2937 H   0  0  0  0  0  0  0  0  0  0  0  0
    3.9399   -1.6168   -1.6870 H   0  0  0  0  0  0  0  0  0  0  0  0
    5.6348    1.5820   -0.9441 H   0  0  0  0  0  0  0  0  0  0  0  0
    7.2750    1.8094    0.9584 H   0  0  0  0  0  0  0  0  0  0  0  0
    7.4586   -0.0130    2.5344 H   0  0  0  0  0  0  0  0  0  0  0  0
    6.1886   -2.0454    2.4280 H   0  0  0  0  0  0  0  0  0  0  0  0
    4.5433   -2.3188    0.5534 H   0  0  0  0  0  0  0  0  0  0  0  0
    1.9698   -1.8818   -0.1741 H   0  0  0  0  0  0  0  0  0  0  0  0
   -0.1961   -0.9474    0.4465 H   0  0  0  0  0  0  0  0  0  0  0  0
  1  2  1  0
  2  3  1  0
  3  4  1  0
  4  5  1  0
  3  6  1  0
  6  7  1  0
  7  8  1  0
  8  9  1  0
  9 10  2  0
 10 11  1  0
 11 12  2  0
 12 13  1  0
 13 14  1  0
 14 15  2  0
 15 16  1  0
 16 17  2  0
 17 18  1  0
 18 19  2  0
 12 20  1  0
 20 21  2  0
 21  9  1  0
 19 14  1  0
  1 22  1  0
  1 23  1  0
  1 24  1  0
  2 25  1  0
  2 26  1  0
  4 27  1  0
  4 28  1  0
  5 29  1  0
  5 30  1  0
  5 31  1  0
  6 32  1  0
  6 33  1  0
  7 34  1  0
  7 35  1  0
 10 36  1  0
 11 37  1  0
 13 38  1  0
 13 39  1  0
 15 40  1  0
 16 41  1  0
 17 42  1  0
 18 43  1  0
 19 44  1  0
 20 45  1  0
 21 46  1  0
M  END
$$$$
