@<TRIPOS>MOLECULE
*****
 38 40 0 0 0
SMALL
GASTEIGER

@<TRIPOS>ATOM
      1 N           0.6860   -3.2425    0.4110 N.pl3   1  UNL1       -0.3565
      2 C          -0.3210   -2.2454    0.3183 C.ar    1  UNL1        0.0461
      3 C          -1.6180   -2.6586    0.0970 C.ar    1  UNL1       -0.0387
      4 C          -2.6035   -1.7119    0.0040 C.ar    1  UNL1       -0.0522
      5 C          -2.3629   -0.3574    0.1211 C.ar    1  UNL1       -0.0160
      6 C          -3.4617    0.6145    0.0141 C.ar    1  UNL1       -0.0178
      7 C          -4.7400    0.2737    0.4474 C.ar    1  UNL1       -0.0540
      8 C          -5.7928    1.1286    0.3724 C.ar    1  UNL1       -0.0612
      9 C          -5.5872    2.3940   -0.1577 C.ar    1  UNL1       -0.0617
     10 C          -4.3433    2.7584   -0.5918 C.ar    1  UNL1       -0.0612
     11 C          -3.2886    1.8757   -0.5067 C.ar    1  UNL1       -0.0540
     12 C          -1.0654    0.0552    0.3425 C.ar    1  UNL1       -0.0310
     13 C          -0.0560   -0.8991    0.4387 C.ar    1  UNL1        0.0551
     14 N           1.3103   -0.5169    0.6713 N.am    1  UNL1       -0.2799
     15 C           2.1851   -0.2490   -0.4128 C.2     1  UNL1        0.2483
     16 O           1.6968   -0.3651   -1.5894 O.2     1  UNL1       -0.2699
     17 C           3.5706    0.1400   -0.2501 C.ar    1  UNL1        0.0370
     18 C           4.1361    0.2725    0.9918 C.ar    1  UNL1       -0.0496
     19 C           5.4765    0.6496    1.1359 C.ar    1  UNL1       -0.0610
     20 C           6.2669    0.8987    0.0321 C.ar    1  UNL1       -0.0617
     21 C           5.6843    0.7616   -1.2201 C.ar    1  UNL1       -0.0610
     22 C           4.3504    0.3862   -1.3558 C.ar    1  UNL1       -0.0496
     23 H           1.1637   -3.5131    1.2751 H       1  UNL1        0.1424
     24 H           0.9448   -3.7279   -0.4940 H       1  UNL1        0.1424
     25 H          -1.8483   -3.7159   -0.0005 H       1  UNL1        0.0637
     26 H          -3.6436   -2.0109   -0.1717 H       1  UNL1        0.0624
     27 H          -4.8854   -0.7157    0.8585 H       1  UNL1        0.0624
     28 H          -6.7822    0.8061    0.7300 H       1  UNL1        0.0618
     29 H          -6.4652    3.0430   -0.1962 H       1  UNL1        0.0618
     30 H          -4.2362    3.7574   -0.9976 H       1  UNL1        0.0618
     31 H          -2.2992    2.1515   -0.8467 H       1  UNL1        0.0624
     32 H          -0.8103    1.1022    0.4436 H       1  UNL1        0.0643
     33 H           1.6508   -0.4393    1.6652 H       1  UNL1        0.1552
     34 H           3.5831    0.0947    1.9114 H       1  UNL1        0.0625
     35 H           5.9174    0.7522    2.1247 H       1  UNL1        0.0618
     36 H           7.2995    1.1904    0.0813 H       1  UNL1        0.0618
     37 H           6.2927    0.9539   -2.1017 H       1  UNL1        0.0618
     38 H           3.9957    0.3086   -2.3772 H       1  UNL1        0.0625
@<TRIPOS>BOND
     1     1     2    1
     2     2     3   ar
     3     3     4   ar
     4     4     5   ar
     5     5     6    1
     6     6     7   ar
     7     7     8   ar
     8     8     9   ar
     9     9    10   ar
    10    10    11   ar
    11     5    12   ar
    12    12    13   ar
    13    13    14    1
    14    14    15   am
    15    15    16    2
    16    15    17    1
    17    17    18   ar
    18    18    19   ar
    19    19    20   ar
    20    20    21   ar
    21    21    22   ar
    22    13     2   ar
    23    22    17   ar
    24    11     6   ar
    25     1    23    1
    26     1    24    1
    27     3    25    1
    28     4    26    1
    29     7    27    1
    30     8    28    1
    31     9    29    1
    32    10    30    1
    33    11    31    1
    34    12    32    1
    35    14    33    1
    36    18    34    1
    37    19    35    1
    38    20    36    1
    39    21    37    1
    40    22    38    1
