
     RDKit          3D

 32 32  0  0  0  0  0  0  0  0999 V2000
   -0.8192   -2.1465    0.7237 O   0  0  0  0  0  0  0  0  0  0  0  0
   -1.5729   -2.1175   -0.4458 C   0  0  0  0  0  0  0  0  0  0  0  0
   -1.4346   -0.8406   -1.2149 C   0  0  1  0  0  0  0  0  0  0  0  0
   -1.8588    0.2640   -0.3515 N   0  0  0  0  0  0  0  0  0  0  0  0
   -2.9656    1.1312   -0.4640 C   0  0  0  0  0  0  0  0  0  0  0  0
   -3.7623    0.9838   -1.4512 O   0  0  0  0  0  0  0  0  0  0  0  0
   -3.1124    2.1699    0.6054 C   0  0  0  0  0  0  0  0  0  0  0  0
   -1.7242    3.2593    0.6904 Cl  0  0  0  0  0  0  0  0  0  0  0  0
   -4.5774    3.0893    0.1799 Cl  0  0  0  0  0  0  0  0  0  0  0  0
   -0.0948   -0.6280   -1.8443 C   0  0  2  0  0  0  0  0  0  0  0  0
    0.1909   -1.7523   -2.6452 O   0  0  0  0  0  0  0  0  0  0  0  0
    0.9932   -0.2940   -0.9075 C   0  0  0  0  0  0  0  0  0  0  0  0
    1.8149   -1.1429   -0.1988 C   0  0  0  0  0  0  0  0  0  0  0  0
    2.7842   -0.6534    0.6532 C   0  0  0  0  0  0  0  0  0  0  0  0
    2.9824    0.7006    0.8403 C   0  0  0  0  0  0  0  0  0  0  0  0
    2.1842    1.5934    0.1520 C   0  0  0  0  0  0  0  0  0  0  0  0
    1.2223    1.0729   -0.6936 C   0  0  0  0  0  0  0  0  0  0  0  0
    4.0000    1.1390    1.7339 N   0  0  0  0  0  4  0  0  0  0  0  0
    4.8709    0.3809    2.4872 O   0  0  0  0  0  1  0  0  0  0  0  0
    4.1880    2.3630    1.9107 O   0  0  0  0  0  0  0  0  0  0  0  0
   -1.1228   -2.9736    1.2029 H   0  0  0  0  0  0  0  0  0  0  0  0
   -1.2787   -3.0112   -1.0442 H   0  0  0  0  0  0  0  0  0  0  0  0
   -2.6230   -2.3070   -0.1234 H   0  0  0  0  0  0  0  0  0  0  0  0
   -2.1707   -0.9361   -2.0788 H   0  0  0  0  0  0  0  0  0  0  0  0
   -1.1580    0.3179    0.4277 H   0  0  0  0  0  0  0  0  0  0  0  0
   -3.2688    1.7243    1.5942 H   0  0  0  0  0  0  0  0  0  0  0  0
   -0.1762    0.1973   -2.6345 H   0  0  0  0  0  0  0  0  0  0  0  0
    0.5170   -2.5130   -2.1111 H   0  0  0  0  0  0  0  0  0  0  0  0
    1.6524   -2.1865   -0.3635 H   0  0  0  0  0  0  0  0  0  0  0  0
    3.4047   -1.3565    1.1882 H   0  0  0  0  0  0  0  0  0  0  0  0
    2.3042    2.6494    0.2674 H   0  0  0  0  0  0  0  0  0  0  0  0
    0.6111    1.8227   -1.2199 H   0  0  0  0  0  0  0  0  0  0  0  0
  1  2  1  0
  2  3  1  0
  3  4  1  0
  4  5  1  0
  5  6  2  0
  5  7  1  0
  7  8  1  0
  7  9  1  0
  3 10  1  0
 10 11  1  0
 10 12  1  0
 12 13  2  0
 13 14  1  0
 14 15  2  0
 15 16  1  0
 16 17  2  0
 15 18  1  0
 18 19  1  0
 18 20  2  0
 17 12  1  0
  1 21  1  0
  2 22  1  0
  2 23  1  0
  3 24  1  6
  4 25  1  0
  7 26  1  0
 10 27  1  6
 11 28  1  0
 13 29  1  0
 14 30  1  0
 16 31  1  0
 17 32  1  0
M  CHG  2  18   1  19  -1
M  END
$$$$
