@<TRIPOS>MOLECULE
*****
 39 41 0 0 0
SMALL
GASTEIGER

@<TRIPOS>ATOM
      1 C           5.3733   -0.0669   -1.6212 C.ar    1  UNL1       -0.0617
      2 C           4.4077    0.8959   -1.4175 C.ar    1  UNL1       -0.0615
      3 C           3.3043    0.6647   -0.5923 C.ar    1  UNL1       -0.0583
      4 C           3.1505   -0.5462    0.0463 C.ar    1  UNL1       -0.0428
      5 C           1.9812   -0.7895    0.9390 C.3     1  UNL1        0.0010
      6 C           1.7255    0.3326    1.9938 C.3     1  UNL1       -0.0287
      7 C           0.7544    0.0127    0.8596 C.3     1  UNL1        0.0151
      8 N          -0.4934   -0.5115    1.3625 N.3     1  UNL1       -0.3124
      9 C          -1.5588    0.4121    1.1016 C.3     1  UNL1       -0.0009
     10 C          -1.9142    0.4861   -0.3653 C.3     1  UNL1       -0.0262
     11 C          -2.3395   -0.8914   -0.7804 C.3     1  UNL1       -0.0364
     12 C          -3.7808   -1.1537   -0.9054 C.3     1  UNL1       -0.0038
     13 N          -4.7128   -0.1632   -0.5615 N.3     1  UNL1       -0.3160
     14 C          -4.2665    1.0424    0.0241 C.3     1  UNL1       -0.0038
     15 C          -2.9811    1.5362   -0.5566 C.3     1  UNL1       -0.0364
     16 C           4.1076   -1.5160   -0.1506 C.ar    1  UNL1       -0.0583
     17 C           5.2073   -1.2813   -0.9744 C.ar    1  UNL1       -0.0615
     18 H           6.2434    0.1044   -2.2655 H       1  UNL1        0.0618
     19 H           4.4980    1.8547   -1.9010 H       1  UNL1        0.0618
     20 H           2.5376    1.4031   -0.4211 H       1  UNL1        0.0620
     21 H           1.9078   -1.8085    1.3692 H       1  UNL1        0.0364
     22 H           1.5063    0.0188    3.0113 H       1  UNL1        0.0287
     23 H           2.3082    1.2708    1.8028 H       1  UNL1        0.0287
     24 H           0.6458    0.7884    0.0643 H       1  UNL1        0.0466
     25 H          -0.4615   -0.7644    2.3669 H       1  UNL1        0.1222
     26 H          -2.4576    0.1337    1.7155 H       1  UNL1        0.0427
     27 H          -1.3082    1.4496    1.4898 H       1  UNL1        0.0427
     28 H          -1.0280    0.8393   -0.9220 H       1  UNL1        0.0314
     29 H          -1.8626   -1.0599   -1.7936 H       1  UNL1        0.0281
     30 H          -1.8350   -1.6654   -0.1213 H       1  UNL1        0.0281
     31 H          -4.0538   -1.5307   -1.9441 H       1  UNL1        0.0424
     32 H          -4.0251   -2.0668   -0.2660 H       1  UNL1        0.0424
     33 H          -5.4886   -0.0168   -1.2614 H       1  UNL1        0.1219
     34 H          -4.2033    1.0005    1.1332 H       1  UNL1        0.0424
     35 H          -5.0414    1.8303   -0.2269 H       1  UNL1        0.0424
     36 H          -3.0741    1.7916   -1.6178 H       1  UNL1        0.0281
     37 H          -2.7060    2.4591   -0.0110 H       1  UNL1        0.0281
     38 H           3.9718   -2.4642    0.3583 H       1  UNL1        0.0620
     39 H           5.9615   -2.0308   -1.1341 H       1  UNL1        0.0618
@<TRIPOS>BOND
     1     1     2   ar
     2     2     3   ar
     3     3     4   ar
     4     4     5    1
     5     5     6    1
     6     6     7    1
     7     7     8    1
     8     8     9    1
     9     9    10    1
    10    10    11    1
    11    11    12    1
    12    12    13    1
    13    13    14    1
    14    14    15    1
    15     4    16   ar
    16    16    17   ar
    17    17     1   ar
    18     7     5    1
    19    15    10    1
    20     1    18    1
    21     2    19    1
    22     3    20    1
    23     5    21    1
    24     6    22    1
    25     6    23    1
    26     7    24    1
    27     8    25    1
    28     9    26    1
    29     9    27    1
    30    10    28    1
    31    11    29    1
    32    11    30    1
    33    12    31    1
    34    12    32    1
    35    13    33    1
    36    14    34    1
    37    14    35    1
    38    15    36    1
    39    15    37    1
    40    16    38    1
    41    17    39    1
