@<TRIPOS>MOLECULE
*****
 39 40 0 0 0
SMALL
GASTEIGER

@<TRIPOS>ATOM
      1 C          -3.0160   -3.5886   -0.4657 C.3     1  UNL1        0.0790
      2 O          -2.5059   -2.4202   -0.2690 O.3     1  UNL1       -0.4913
      3 C          -1.9232   -1.2877   -0.1383 C.ar    1  UNL1        0.1654
      4 C          -0.7224   -0.9863   -0.8141 C.ar    1  UNL1       -0.0126
      5 C          -0.0781    0.2156   -0.6935 C.ar    1  UNL1       -0.0358
      6 C           1.1678    0.5726   -1.3761 C.3     1  UNL1        0.0025
      7 C           2.3901    0.2610   -0.6465 C.ar    1  UNL1        0.0146
      8 C           2.4342   -0.3046    0.6090 C.ar    1  UNL1        0.0379
      9 N           3.5916   -0.5706    1.2386 N.ar    1  UNL1       -0.2227
     10 C           4.7740   -0.2787    0.6320 C.ar    1  UNL1        0.2142
     11 N           6.0077   -0.5430    1.2606 N.pl3   1  UNL1       -0.3274
     12 N           4.7460    0.2794   -0.6062 N.ar    1  UNL1       -0.1999
     13 C           3.5962    0.5517   -1.2497 C.ar    1  UNL1        0.1247
     14 N           3.6827    1.1324   -2.5370 N.pl3   1  UNL1       -0.3428
     15 C          -0.6674    1.1459    0.1391 C.ar    1  UNL1       -0.0126
     16 C          -1.8264    0.9176    0.8207 C.ar    1  UNL1        0.1654
     17 O          -2.4076    1.8848    1.6650 O.3     1  UNL1       -0.4913
     18 C          -1.7613    3.1392    1.8078 C.3     1  UNL1        0.0790
     19 C          -2.4607   -0.2879    0.6916 C.ar    1  UNL1        0.2035
     20 O          -3.6384   -0.5101    1.3889 O.3     1  UNL1       -0.4885
     21 C          -4.9032   -0.2003    0.8410 C.3     1  UNL1        0.0791
     22 H          -3.9241   -3.6700   -1.1538 H       1  UNL1        0.0660
     23 H          -3.3078   -4.2112    0.4444 H       1  UNL1        0.0660
     24 H          -2.2919   -4.3155   -0.9813 H       1  UNL1        0.0660
     25 H          -0.2880   -1.7554   -1.4663 H       1  UNL1        0.0658
     26 H           1.1396    1.6720   -1.5865 H       1  UNL1        0.0363
     27 H           1.2117    0.0358   -2.3619 H       1  UNL1        0.0363
     28 H           1.5157   -0.5500    1.1216 H       1  UNL1        0.0834
     29 H           6.7869   -0.9338    0.7122 H       1  UNL1        0.1452
     30 H           6.1354   -0.3483    2.2638 H       1  UNL1        0.1452
     31 H           2.8668    1.6641   -2.8942 H       1  UNL1        0.1437
     32 H           4.5190    1.0499   -3.1336 H       1  UNL1        0.1437
     33 H          -0.2005    2.1110    0.2701 H       1  UNL1        0.0658
     34 H          -0.7663    3.0716    2.2623 H       1  UNL1        0.0660
     35 H          -2.3904    3.7426    2.4886 H       1  UNL1        0.0660
     36 H          -1.6850    3.6820    0.8346 H       1  UNL1        0.0660
     37 H          -4.9307   -0.2852   -0.2443 H       1  UNL1        0.0660
     38 H          -5.6437   -0.9034    1.3070 H       1  UNL1        0.0660
     39 H          -5.2262    0.8215    1.1914 H       1  UNL1        0.0660
@<TRIPOS>BOND
     1     1     2    1
     2     2     3    1
     3     3     4   ar
     4     4     5   ar
     5     5     6    1
     6     6     7    1
     7     7     8   ar
     8     8     9   ar
     9     9    10   ar
    10    10    11    1
    11    10    12   ar
    12    12    13   ar
    13    13    14    1
    14     5    15   ar
    15    15    16   ar
    16    16    17    1
    17    17    18    1
    18    16    19   ar
    19    19    20    1
    20    20    21    1
    21    19     3   ar
    22    13     7   ar
    23     1    22    1
    24     1    23    1
    25     1    24    1
    26     4    25    1
    27     6    26    1
    28     6    27    1
    29     8    28    1
    30    11    29    1
    31    11    30    1
    32    14    31    1
    33    14    32    1
    34    15    33    1
    35    18    34    1
    36    18    35    1
    37    18    36    1
    38    21    37    1
    39    21    38    1
    40    21    39    1
