
     RDKit          3D

 39 40  0  0  0  0  0  0  0  0999 V2000
   -3.0160   -3.5886   -0.4657 C   0  0  0  0  0  0  0  0  0  0  0  0
   -2.5059   -2.4202   -0.2690 O   0  0  0  0  0  0  0  0  0  0  0  0
   -1.9232   -1.2877   -0.1383 C   0  0  0  0  0  0  0  0  0  0  0  0
   -0.7224   -0.9863   -0.8141 C   0  0  0  0  0  0  0  0  0  0  0  0
   -0.0781    0.2156   -0.6935 C   0  0  0  0  0  0  0  0  0  0  0  0
    1.1678    0.5726   -1.3761 C   0  0  0  0  0  0  0  0  0  0  0  0
    2.3901    0.2610   -0.6465 C   0  0  0  0  0  0  0  0  0  0  0  0
    2.4342   -0.3046    0.6090 C   0  0  0  0  0  0  0  0  0  0  0  0
    3.5916   -0.5706    1.2386 N   0  0  0  0  0  0  0  0  0  0  0  0
    4.7740   -0.2787    0.6320 C   0  0  0  0  0  0  0  0  0  0  0  0
    6.0077   -0.5430    1.2606 N   0  0  0  0  0  0  0  0  0  0  0  0
    4.7460    0.2794   -0.6062 N   0  0  0  0  0  0  0  0  0  0  0  0
    3.5962    0.5517   -1.2497 C   0  0  0  0  0  0  0  0  0  0  0  0
    3.6827    1.1324   -2.5370 N   0  0  0  0  0  0  0  0  0  0  0  0
   -0.6674    1.1459    0.1391 C   0  0  0  0  0  0  0  0  0  0  0  0
   -1.8264    0.9176    0.8207 C   0  0  0  0  0  0  0  0  0  0  0  0
   -2.4076    1.8848    1.6650 O   0  0  0  0  0  0  0  0  0  0  0  0
   -1.7613    3.1392    1.8078 C   0  0  0  0  0  0  0  0  0  0  0  0
   -2.4607   -0.2879    0.6916 C   0  0  0  0  0  0  0  0  0  0  0  0
   -3.6384   -0.5101    1.3889 O   0  0  0  0  0  0  0  0  0  0  0  0
   -4.9032   -0.2003    0.8410 C   0  0  0  0  0  0  0  0  0  0  0  0
   -3.9241   -3.6700   -1.1538 H   0  0  0  0  0  0  0  0  0  0  0  0
   -3.3078   -4.2112    0.4444 H   0  0  0  0  0  0  0  0  0  0  0  0
   -2.2919   -4.3155   -0.9813 H   0  0  0  0  0  0  0  0  0  0  0  0
   -0.2880   -1.7554   -1.4663 H   0  0  0  0  0  0  0  0  0  0  0  0
    1.1396    1.6720   -1.5865 H   0  0  0  0  0  0  0  0  0  0  0  0
    1.2117    0.0358   -2.3619 H   0  0  0  0  0  0  0  0  0  0  0  0
    1.5157   -0.5500    1.1216 H   0  0  0  0  0  0  0  0  0  0  0  0
    6.7869   -0.9338    0.7122 H   0  0  0  0  0  0  0  0  0  0  0  0
    6.1354   -0.3483    2.2638 H   0  0  0  0  0  0  0  0  0  0  0  0
    2.8668    1.6641   -2.8942 H   0  0  0  0  0  0  0  0  0  0  0  0
    4.5190    1.0499   -3.1336 H   0  0  0  0  0  0  0  0  0  0  0  0
   -0.2005    2.1110    0.2701 H   0  0  0  0  0  0  0  0  0  0  0  0
   -0.7663    3.0716    2.2623 H   0  0  0  0  0  0  0  0  0  0  0  0
   -2.3904    3.7426    2.4886 H   0  0  0  0  0  0  0  0  0  0  0  0
   -1.6850    3.6820    0.8346 H   0  0  0  0  0  0  0  0  0  0  0  0
   -4.9307   -0.2852   -0.2443 H   0  0  0  0  0  0  0  0  0  0  0  0
   -5.6437   -0.9034    1.3070 H   0  0  0  0  0  0  0  0  0  0  0  0
   -5.2262    0.8215    1.1914 H   0  0  0  0  0  0  0  0  0  0  0  0
  1  2  1  0
  2  3  1  0
  3  4  2  0
  4  5  1  0
  5  6  1  0
  6  7  1  0
  7  8  2  0
  8  9  1  0
  9 10  2  0
 10 11  1  0
 10 12  1  0
 12 13  2  0
 13 14  1  0
  5 15  2  0
 15 16  1  0
 16 17  1  0
 17 18  1  0
 16 19  2  0
 19 20  1  0
 20 21  1  0
 19  3  1  0
 13  7  1  0
  1 22  1  0
  1 23  1  0
  1 24  1  0
  4 25  1  0
  6 26  1  0
  6 27  1  0
  8 28  1  0
 11 29  1  0
 11 30  1  0
 14 31  1  0
 14 32  1  0
 15 33  1  0
 18 34  1  0
 18 35  1  0
 18 36  1  0
 21 37  1  0
 21 38  1  0
 21 39  1  0
M  END
$$$$
