@<TRIPOS>MOLECULE
*****
 63 67 0 0 0
SMALL
GASTEIGER

@<TRIPOS>ATOM
      1 C           7.4779    1.2998   -0.6493 C.3     1  UNL1        0.0124
      2 C           6.7071    0.0271   -0.6993 C.2     1  UNL1        0.2133
      3 O           7.3104   -1.0617   -0.6989 O.2     1  UNL1       -0.2759
      4 N           5.2916    0.0421   -0.7473 N.am    1  UNL1       -0.2865
      5 C           4.6105    1.2935   -0.7512 C.3     1  UNL1        0.0319
      6 C           3.5221    1.3669    0.3048 C.3     1  UNL1        0.0357
      7 N           2.7559    0.1308    0.3277 N.am    1  UNL1       -0.2681
      8 C           1.5965    0.0671    1.1223 C.ar    1  UNL1        0.0370
      9 C           1.7372   -0.3649    2.4453 C.ar    1  UNL1       -0.0402
     10 C           0.6510   -0.4550    3.2870 C.ar    1  UNL1       -0.0594
     11 C          -0.5939   -0.1111    2.8084 C.ar    1  UNL1       -0.0525
     12 C          -0.7571    0.3170    1.5095 C.ar    1  UNL1        0.0022
     13 C          -2.0654    0.6877    0.9753 C.ar    1  UNL1        0.0741
     14 C          -3.2128   -0.0403    1.1654 C.ar    1  UNL1       -0.0243
     15 C          -4.3135    0.5593    0.5399 C.ar    1  UNL1        0.0308
     16 C          -5.6586    0.0108    0.4577 C.ar    1  UNL1        0.0714
     17 C          -6.8441    0.5432    0.0362 C.ar    1  UNL1       -0.0162
     18 C          -7.8332   -0.4601   -0.0469 C.ar    1  UNL1        0.0500
     19 N          -7.2445   -1.5442    0.3187 N.ar    1  UNL1       -0.1788
     20 N          -5.9529   -1.3050    0.6267 N.ar    1  UNL1       -0.2550
     21 C          -5.1522   -2.4302    1.0336 C.3     1  UNL1        0.1371
     22 C          -4.5354   -3.0607   -0.1815 C.3     1  UNL1        0.4089
     23 F          -3.7347   -4.1488    0.1558 F       1  UNL1       -0.1687
     24 F          -5.6194   -3.5335   -0.9414 F       1  UNL1       -0.1687
     25 F          -3.9008   -2.1473   -0.9444 F       1  UNL1       -0.1687
     26 C          -3.7649    1.7071   -0.0558 C.ar    1  UNL1        0.1146
     27 C          -4.2562    2.7051   -0.8453 C.ar    1  UNL1        0.1443
     28 N          -5.5724    2.7314   -1.3076 N.pl3   1  UNL1       -0.3414
     29 N          -3.3992    3.6818   -1.2923 N.ar    1  UNL1       -0.2172
     30 C          -2.1031    3.6732   -0.9761 C.ar    1  UNL1        0.1388
     31 N          -1.6220    2.6881   -0.2061 N.ar    1  UNL1       -0.1543
     32 N          -2.4262    1.7221    0.2458 N.ar    1  UNL1       -0.2268
     33 C           0.3442    0.4054    0.6655 C.ar    1  UNL1       -0.0311
     34 C           3.1505   -1.0007   -0.4286 C.2     1  UNL1        0.2430
     35 O           2.3018   -1.8717   -0.8083 O.2     1  UNL1       -0.2729
     36 C           4.5615   -1.1955   -0.7948 C.3     1  UNL1        0.1082
     37 C           4.6926   -1.8125   -2.1810 C.3     1  UNL1       -0.0352
     38 C           5.2052   -2.1511    0.2046 C.3     1  UNL1       -0.0352
     39 H           8.5656    1.0761   -0.5329 H       1  UNL1        0.0323
     40 H           7.1484    1.9031    0.2276 H       1  UNL1        0.0323
     41 H           7.3919    1.8517   -1.6077 H       1  UNL1        0.0323
     42 H           4.0951    1.5073   -1.7258 H       1  UNL1        0.0480
     43 H           5.2844    2.1533   -0.5588 H       1  UNL1        0.0480
     44 H           4.0243    1.5439    1.2649 H       1  UNL1        0.0484
     45 H           2.8675    2.2169    0.0827 H       1  UNL1        0.0484
     46 H           2.7005   -0.6381    2.8386 H       1  UNL1        0.0636
     47 H           0.7315   -0.7839    4.3079 H       1  UNL1        0.0618
     48 H          -1.4640   -0.1676    3.4324 H       1  UNL1        0.0624
     49 H          -3.2646   -0.9434    1.7366 H       1  UNL1        0.0646
     50 H          -7.0972    1.5585   -0.1470 H       1  UNL1        0.0654
     51 H          -8.8745   -0.2859   -0.3660 H       1  UNL1        0.0848
     52 H          -4.5062   -2.3481    1.8755 H       1  UNL1        0.0598
     53 H          -5.9331   -3.2460    1.4130 H       1  UNL1        0.0598
     54 H          -6.2313    3.4258   -0.9144 H       1  UNL1        0.1438
     55 H          -5.8785    2.0910   -2.0544 H       1  UNL1        0.1438
     56 H          -1.4324    4.4401   -1.3251 H       1  UNL1        0.1066
     57 H           0.2122    0.7415   -0.3526 H       1  UNL1        0.0643
     58 H           3.8292   -2.4386   -2.4258 H       1  UNL1        0.0255
     59 H           4.8007   -1.0397   -2.9663 H       1  UNL1        0.0255
     60 H           5.6576   -2.3806   -2.1687 H       1  UNL1        0.0255
     61 H           4.3824   -2.7605    0.6566 H       1  UNL1        0.0255
     62 H           5.7696   -1.5902    0.9636 H       1  UNL1        0.0255
     63 H           5.8676   -2.8519   -0.3403 H       1  UNL1        0.0255
@<TRIPOS>BOND
     1     1     2    1
     2     2     3    2
     3     2     4   am
     4     4     5    1
     5     5     6    1
     6     6     7    1
     7     7     8    1
     8     8     9   ar
     9     9    10   ar
    10    10    11   ar
    11    11    12   ar
    12    12    13    1
    13    13    14   ar
    14    14    15   ar
    15    15    16    1
    16    16    17   ar
    17    17    18   ar
    18    18    19   ar
    19    19    20   ar
    20    20    21    1
    21    21    22    1
    22    22    23    1
    23    22    24    1
    24    22    25    1
    25    15    26   ar
    26    26    27   ar
    27    27    28    1
    28    27    29   ar
    29    29    30   ar
    30    30    31   ar
    31    31    32   ar
    32    12    33   ar
    33     7    34   am
    34    34    35    2
    35    34    36    1
    36    36    37    1
    37    36    38    1
    38    36     4    1
    39    33     8   ar
    40    32    13   ar
    41    20    16   ar
    42    32    26   ar
    43     1    39    1
    44     1    40    1
    45     1    41    1
    46     5    42    1
    47     5    43    1
    48     6    44    1
    49     6    45    1
    50     9    46    1
    51    10    47    1
    52    11    48    1
    53    14    49    1
    54    17    50    1
    55    18    51    1
    56    21    52    1
    57    21    53    1
    58    28    54    1
    59    28    55    1
    60    30    56    1
    61    33    57    1
    62    37    58    1
    63    37    59    1
    64    37    60    1
    65    38    61    1
    66    38    62    1
    67    38    63    1
