
     RDKit          3D

 63 67  0  0  0  0  0  0  0  0999 V2000
    7.4779    1.2998   -0.6493 C   0  0  0  0  0  0  0  0  0  0  0  0
    6.7071    0.0271   -0.6993 C   0  0  0  0  0  0  0  0  0  0  0  0
    7.3104   -1.0617   -0.6989 O   0  0  0  0  0  0  0  0  0  0  0  0
    5.2916    0.0421   -0.7473 N   0  0  0  0  0  0  0  0  0  0  0  0
    4.6105    1.2935   -0.7512 C   0  0  0  0  0  0  0  0  0  0  0  0
    3.5221    1.3669    0.3048 C   0  0  0  0  0  0  0  0  0  0  0  0
    2.7559    0.1308    0.3277 N   0  0  0  0  0  0  0  0  0  0  0  0
    1.5965    0.0671    1.1223 C   0  0  0  0  0  0  0  0  0  0  0  0
    1.7372   -0.3649    2.4453 C   0  0  0  0  0  0  0  0  0  0  0  0
    0.6510   -0.4550    3.2870 C   0  0  0  0  0  0  0  0  0  0  0  0
   -0.5939   -0.1111    2.8084 C   0  0  0  0  0  0  0  0  0  0  0  0
   -0.7571    0.3170    1.5095 C   0  0  0  0  0  0  0  0  0  0  0  0
   -2.0654    0.6877    0.9753 C   0  0  0  0  0  0  0  0  0  0  0  0
   -3.2128   -0.0403    1.1654 C   0  0  0  0  0  0  0  0  0  0  0  0
   -4.3135    0.5593    0.5399 C   0  0  0  0  0  0  0  0  0  0  0  0
   -5.6586    0.0108    0.4577 C   0  0  0  0  0  0  0  0  0  0  0  0
   -6.8441    0.5432    0.0362 C   0  0  0  0  0  0  0  0  0  0  0  0
   -7.8332   -0.4601   -0.0469 C   0  0  0  0  0  0  0  0  0  0  0  0
   -7.2445   -1.5442    0.3187 N   0  0  0  0  0  0  0  0  0  0  0  0
   -5.9529   -1.3050    0.6267 N   0  0  0  0  0  0  0  0  0  0  0  0
   -5.1522   -2.4302    1.0336 C   0  0  0  0  0  0  0  0  0  0  0  0
   -4.5354   -3.0607   -0.1815 C   0  0  0  0  0  0  0  0  0  0  0  0
   -3.7347   -4.1488    0.1558 F   0  0  0  0  0  0  0  0  0  0  0  0
   -5.6194   -3.5335   -0.9414 F   0  0  0  0  0  0  0  0  0  0  0  0
   -3.9008   -2.1473   -0.9444 F   0  0  0  0  0  0  0  0  0  0  0  0
   -3.7649    1.7071   -0.0558 C   0  0  0  0  0  0  0  0  0  0  0  0
   -4.2562    2.7051   -0.8453 C   0  0  0  0  0  0  0  0  0  0  0  0
   -5.5724    2.7314   -1.3076 N   0  0  0  0  0  0  0  0  0  0  0  0
   -3.3992    3.6818   -1.2923 N   0  0  0  0  0  0  0  0  0  0  0  0
   -2.1031    3.6732   -0.9761 C   0  0  0  0  0  0  0  0  0  0  0  0
   -1.6220    2.6881   -0.2061 N   0  0  0  0  0  0  0  0  0  0  0  0
   -2.4262    1.7221    0.2458 N   0  0  0  0  0  0  0  0  0  0  0  0
    0.3442    0.4054    0.6655 C   0  0  0  0  0  0  0  0  0  0  0  0
    3.1505   -1.0007   -0.4286 C   0  0  0  0  0  0  0  0  0  0  0  0
    2.3018   -1.8717   -0.8083 O   0  0  0  0  0  0  0  0  0  0  0  0
    4.5615   -1.1955   -0.7948 C   0  0  0  0  0  0  0  0  0  0  0  0
    4.6926   -1.8125   -2.1810 C   0  0  0  0  0  0  0  0  0  0  0  0
    5.2052   -2.1511    0.2046 C   0  0  0  0  0  0  0  0  0  0  0  0
    8.5656    1.0761   -0.5329 H   0  0  0  0  0  0  0  0  0  0  0  0
    7.1484    1.9031    0.2276 H   0  0  0  0  0  0  0  0  0  0  0  0
    7.3919    1.8517   -1.6077 H   0  0  0  0  0  0  0  0  0  0  0  0
    4.0951    1.5073   -1.7258 H   0  0  0  0  0  0  0  0  0  0  0  0
    5.2844    2.1533   -0.5588 H   0  0  0  0  0  0  0  0  0  0  0  0
    4.0243    1.5439    1.2649 H   0  0  0  0  0  0  0  0  0  0  0  0
    2.8675    2.2169    0.0827 H   0  0  0  0  0  0  0  0  0  0  0  0
    2.7005   -0.6381    2.8386 H   0  0  0  0  0  0  0  0  0  0  0  0
    0.7315   -0.7839    4.3079 H   0  0  0  0  0  0  0  0  0  0  0  0
   -1.4640   -0.1676    3.4324 H   0  0  0  0  0  0  0  0  0  0  0  0
   -3.2646   -0.9434    1.7366 H   0  0  0  0  0  0  0  0  0  0  0  0
   -7.0972    1.5585   -0.1470 H   0  0  0  0  0  0  0  0  0  0  0  0
   -8.8745   -0.2859   -0.3660 H   0  0  0  0  0  0  0  0  0  0  0  0
   -4.5062   -2.3481    1.8755 H   0  0  0  0  0  0  0  0  0  0  0  0
   -5.9331   -3.2460    1.4130 H   0  0  0  0  0  0  0  0  0  0  0  0
   -6.2313    3.4258   -0.9144 H   0  0  0  0  0  0  0  0  0  0  0  0
   -5.8785    2.0910   -2.0544 H   0  0  0  0  0  0  0  0  0  0  0  0
   -1.4324    4.4401   -1.3251 H   0  0  0  0  0  0  0  0  0  0  0  0
    0.2122    0.7415   -0.3526 H   0  0  0  0  0  0  0  0  0  0  0  0
    3.8292   -2.4386   -2.4258 H   0  0  0  0  0  0  0  0  0  0  0  0
    4.8007   -1.0397   -2.9663 H   0  0  0  0  0  0  0  0  0  0  0  0
    5.6576   -2.3806   -2.1687 H   0  0  0  0  0  0  0  0  0  0  0  0
    4.3824   -2.7605    0.6566 H   0  0  0  0  0  0  0  0  0  0  0  0
    5.7696   -1.5902    0.9636 H   0  0  0  0  0  0  0  0  0  0  0  0
    5.8676   -2.8519   -0.3403 H   0  0  0  0  0  0  0  0  0  0  0  0
  1  2  1  0
  2  3  2  0
  2  4  1  0
  4  5  1  0
  5  6  1  0
  6  7  1  0
  7  8  1  0
  8  9  2  0
  9 10  1  0
 10 11  2  0
 11 12  1  0
 12 13  1  0
 13 14  2  0
 14 15  1  0
 15 16  1  0
 16 17  2  0
 17 18  1  0
 18 19  2  0
 19 20  1  0
 20 21  1  0
 21 22  1  0
 22 23  1  0
 22 24  1  0
 22 25  1  0
 15 26  2  0
 26 27  1  0
 27 28  1  0
 27 29  2  0
 29 30  1  0
 30 31  2  0
 31 32  1  0
 12 33  2  0
  7 34  1  0
 34 35  2  0
 34 36  1  0
 36 37  1  0
 36 38  1  0
 36  4  1  0
 33  8  1  0
 32 13  1  0
 20 16  1  0
 32 26  1  0
  1 39  1  0
  1 40  1  0
  1 41  1  0
  5 42  1  0
  5 43  1  0
  6 44  1  0
  6 45  1  0
  9 46  1  0
 10 47  1  0
 11 48  1  0
 14 49  1  0
 17 50  1  0
 18 51  1  0
 21 52  1  0
 21 53  1  0
 28 54  1  0
 28 55  1  0
 30 56  1  0
 33 57  1  0
 37 58  1  0
 37 59  1  0
 37 60  1  0
 38 61  1  0
 38 62  1  0
 38 63  1  0
M  END
$$$$
