@<TRIPOS>MOLECULE
*****
 55 57 0 0 0
SMALL
GASTEIGER

@<TRIPOS>ATOM
      1 CA         -2.4852   -2.5673   -1.1015 C.3     1  UNL1        0.0461
      2 C          -3.7965   -3.2199   -1.4678 C.3     1  UNL1       -0.0352
      3 C          -4.8168   -3.2167   -0.3809 C.3     1  UNL1       -0.0635
      4 C          -1.8220   -3.2484    0.0729 C.3     1  UNL1        0.0626
      5 O          -2.5058   -3.1311    1.2587 O.3     1  UNL1       -0.3932
      6 N          -2.6552   -1.1488   -0.9096 N.pl3   1  UNL1       -0.3083
      7 C          -1.6718   -0.1518   -0.5690 C.ar    1  UNL1        0.2192
      8 N          -1.9560    1.1538   -0.4110 N.ar    1  UNL1       -0.1947
      9 C          -0.9743    1.9880   -0.0985 C.ar    1  UNL1        0.1674
     10 C           0.3371    1.6047    0.0785 C.ar    1  UNL1        0.1477
     11 N           1.0707    2.6884    0.3860 N.ar    1  UNL1       -0.2306
     12 C           0.2384    3.7512    0.4053 C.ar    1  UNL1        0.0985
     13 N          -0.9966    3.3110    0.1099 N.ar    1  UNL1       -0.3123
     14 C          -2.1231    4.2043    0.0485 C.3     1  UNL1        0.0317
     15 C          -3.3734    3.5508   -0.4789 C.3     1  UNL1       -0.0444
     16 C          -2.4313    4.7411    1.4506 C.3     1  UNL1       -0.0444
     17 C           0.6221    0.2651   -0.0848 C.ar    1  UNL1        0.1542
     18 N          -0.3986   -0.5507   -0.4015 N.ar    1  UNL1       -0.1972
     19 N           1.9600   -0.1396    0.0936 N.pl3   1  UNL1       -0.3120
     20 C           2.4972    0.1332    1.4098 C.3     1  UNL1        0.0024
     21 C           2.7917   -0.7820   -0.9127 C.3     1  UNL1        0.0383
     22 C           4.1477   -1.0652   -0.3693 C.ar    1  UNL1       -0.0302
     23 C           5.0481   -0.0136   -0.5738 C.ar    1  UNL1       -0.0571
     24 C           6.3607   -0.0602   -0.1516 C.ar    1  UNL1       -0.0615
     25 C           6.7746   -1.2076    0.4982 C.ar    1  UNL1       -0.0617
     26 C           5.9033   -2.2555    0.7100 C.ar    1  UNL1       -0.0615
     27 C           4.5939   -2.1955    0.2826 C.ar    1  UNL1       -0.0571
     28 HA         -1.8074   -2.7135   -1.9673 H       1  UNL1        0.0521
     29 H          -3.6198   -4.2493   -1.8264 H       1  UNL1        0.0281
     30 H          -4.1759   -2.6346   -2.3560 H       1  UNL1        0.0281
     31 H          -5.8189   -3.1596   -0.8910 H       1  UNL1        0.0230
     32 H          -4.8092   -4.1633    0.1771 H       1  UNL1        0.0230
     33 H          -4.7840   -2.3114    0.2575 H       1  UNL1        0.0230
     34 H1         -1.6368   -4.3017   -0.2244 H       1  UNL1        0.0575
     35 H2         -0.8169   -2.8016    0.2047 H       1  UNL1        0.0575
     36 H          -1.8842   -3.3443    1.9926 H       1  UNL1        0.2095
     37 H          -3.6347   -0.7491   -1.0292 H       1  UNL1        0.1493
     38 H           0.5766    4.7658    0.6297 H       1  UNL1        0.1029
     39 H          -1.9253    5.0998   -0.5774 H       1  UNL1        0.0523
     40 H          -3.2517    3.3319   -1.5571 H       1  UNL1        0.0249
     41 H          -3.7228    2.7055    0.1261 H       1  UNL1        0.0249
     42 H          -4.1747    4.3378   -0.4127 H       1  UNL1        0.0249
     43 H          -2.9978    4.0167    2.0541 H       1  UNL1        0.0249
     44 H          -1.5052    5.0988    1.9310 H       1  UNL1        0.0249
     45 H          -3.0840    5.6274    1.2939 H       1  UNL1        0.0249
     46 H           1.7268    0.1524    2.1979 H       1  UNL1        0.0428
     47 H           3.2405   -0.6446    1.6427 H       1  UNL1        0.0428
     48 H           2.9579    1.1562    1.4267 H       1  UNL1        0.0428
     49 H           2.8531   -0.2209   -1.8556 H       1  UNL1        0.0513
     50 H           2.2862   -1.7459   -1.1786 H       1  UNL1        0.0513
     51 H           4.7846    0.9196   -1.0800 H       1  UNL1        0.0621
     52 H           7.0532    0.7551   -0.3120 H       1  UNL1        0.0618
     53 H           7.8046   -1.2568    0.8353 H       1  UNL1        0.0618
     54 H           6.1920   -3.1553    1.2087 H       1  UNL1        0.0618
     55 H           3.8349   -2.9526    0.3961 H       1  UNL1        0.0621
@<TRIPOS>BOND
     1     1     2    1
     2     2     3    1
     3     1     4    1
     4     4     5    1
     5     1     6    1
     6     6     7    1
     7     7     8   ar
     8     8     9   ar
     9     9    10   ar
    10    10    11   ar
    11    11    12   ar
    12    12    13   ar
    13    13    14    1
    14    14    15    1
    15    14    16    1
    16    10    17   ar
    17    17    18   ar
    18    17    19    1
    19    19    20    1
    20    19    21    1
    21    21    22    1
    22    22    23   ar
    23    23    24   ar
    24    24    25   ar
    25    25    26   ar
    26    26    27   ar
    27    18     7   ar
    28    27    22   ar
    29    13     9   ar
    30     1    28    1
    31     2    29    1
    32     2    30    1
    33     3    31    1
    34     3    32    1
    35     3    33    1
    36     4    34    1
    37     4    35    1
    38     5    36    1
    39     6    37    1
    40    12    38    1
    41    14    39    1
    42    15    40    1
    43    15    41    1
    44    15    42    1
    45    16    43    1
    46    16    44    1
    47    16    45    1
    48    20    46    1
    49    20    47    1
    50    20    48    1
    51    21    49    1
    52    21    50    1
    53    23    51    1
    54    24    52    1
    55    25    53    1
    56    26    54    1
    57    27    55    1
