
     RDKit          3D

 55 57  0  0  0  0  0  0  0  0999 V2000
   -2.4852   -2.5673   -1.1015 C   0  0  2  0  0  0  0  0  0  0  0  0
   -3.7965   -3.2199   -1.4678 C   0  0  0  0  0  0  0  0  0  0  0  0
   -4.8168   -3.2167   -0.3809 C   0  0  0  0  0  0  0  0  0  0  0  0
   -1.8220   -3.2484    0.0729 C   0  0  0  0  0  0  0  0  0  0  0  0
   -2.5058   -3.1311    1.2587 O   0  0  0  0  0  0  0  0  0  0  0  0
   -2.6552   -1.1488   -0.9096 N   0  0  0  0  0  0  0  0  0  0  0  0
   -1.6718   -0.1518   -0.5690 C   0  0  0  0  0  0  0  0  0  0  0  0
   -1.9560    1.1538   -0.4110 N   0  0  0  0  0  0  0  0  0  0  0  0
   -0.9743    1.9880   -0.0985 C   0  0  0  0  0  0  0  0  0  0  0  0
    0.3371    1.6047    0.0785 C   0  0  0  0  0  0  0  0  0  0  0  0
    1.0707    2.6884    0.3860 N   0  0  0  0  0  0  0  0  0  0  0  0
    0.2384    3.7512    0.4053 C   0  0  0  0  0  0  0  0  0  0  0  0
   -0.9966    3.3110    0.1099 N   0  0  0  0  0  0  0  0  0  0  0  0
   -2.1231    4.2043    0.0485 C   0  0  0  0  0  0  0  0  0  0  0  0
   -3.3734    3.5508   -0.4789 C   0  0  0  0  0  0  0  0  0  0  0  0
   -2.4313    4.7411    1.4506 C   0  0  0  0  0  0  0  0  0  0  0  0
    0.6221    0.2651   -0.0848 C   0  0  0  0  0  0  0  0  0  0  0  0
   -0.3986   -0.5507   -0.4015 N   0  0  0  0  0  0  0  0  0  0  0  0
    1.9600   -0.1396    0.0936 N   0  0  0  0  0  0  0  0  0  0  0  0
    2.4972    0.1332    1.4098 C   0  0  0  0  0  0  0  0  0  0  0  0
    2.7917   -0.7820   -0.9127 C   0  0  0  0  0  0  0  0  0  0  0  0
    4.1477   -1.0652   -0.3693 C   0  0  0  0  0  0  0  0  0  0  0  0
    5.0481   -0.0136   -0.5738 C   0  0  0  0  0  0  0  0  0  0  0  0
    6.3607   -0.0602   -0.1516 C   0  0  0  0  0  0  0  0  0  0  0  0
    6.7746   -1.2076    0.4982 C   0  0  0  0  0  0  0  0  0  0  0  0
    5.9033   -2.2555    0.7100 C   0  0  0  0  0  0  0  0  0  0  0  0
    4.5939   -2.1955    0.2826 C   0  0  0  0  0  0  0  0  0  0  0  0
   -1.8074   -2.7135   -1.9673 H   0  0  0  0  0  0  0  0  0  0  0  0
   -3.6198   -4.2493   -1.8264 H   0  0  0  0  0  0  0  0  0  0  0  0
   -4.1759   -2.6346   -2.3560 H   0  0  0  0  0  0  0  0  0  0  0  0
   -5.8189   -3.1596   -0.8910 H   0  0  0  0  0  0  0  0  0  0  0  0
   -4.8092   -4.1633    0.1771 H   0  0  0  0  0  0  0  0  0  0  0  0
   -4.7840   -2.3114    0.2575 H   0  0  0  0  0  0  0  0  0  0  0  0
   -1.6368   -4.3017   -0.2244 H   0  0  0  0  0  0  0  0  0  0  0  0
   -0.8169   -2.8016    0.2047 H   0  0  0  0  0  0  0  0  0  0  0  0
   -1.8842   -3.3443    1.9926 H   0  0  0  0  0  0  0  0  0  0  0  0
   -3.6347   -0.7491   -1.0292 H   0  0  0  0  0  0  0  0  0  0  0  0
    0.5766    4.7658    0.6297 H   0  0  0  0  0  0  0  0  0  0  0  0
   -1.9253    5.0998   -0.5774 H   0  0  0  0  0  0  0  0  0  0  0  0
   -3.2517    3.3319   -1.5571 H   0  0  0  0  0  0  0  0  0  0  0  0
   -3.7228    2.7055    0.1261 H   0  0  0  0  0  0  0  0  0  0  0  0
   -4.1747    4.3378   -0.4127 H   0  0  0  0  0  0  0  0  0  0  0  0
   -2.9978    4.0167    2.0541 H   0  0  0  0  0  0  0  0  0  0  0  0
   -1.5052    5.0988    1.9310 H   0  0  0  0  0  0  0  0  0  0  0  0
   -3.0840    5.6274    1.2939 H   0  0  0  0  0  0  0  0  0  0  0  0
    1.7268    0.1524    2.1979 H   0  0  0  0  0  0  0  0  0  0  0  0
    3.2405   -0.6446    1.6427 H   0  0  0  0  0  0  0  0  0  0  0  0
    2.9579    1.1562    1.4267 H   0  0  0  0  0  0  0  0  0  0  0  0
    2.8531   -0.2209   -1.8556 H   0  0  0  0  0  0  0  0  0  0  0  0
    2.2862   -1.7459   -1.1786 H   0  0  0  0  0  0  0  0  0  0  0  0
    4.7846    0.9196   -1.0800 H   0  0  0  0  0  0  0  0  0  0  0  0
    7.0532    0.7551   -0.3120 H   0  0  0  0  0  0  0  0  0  0  0  0
    7.8046   -1.2568    0.8353 H   0  0  0  0  0  0  0  0  0  0  0  0
    6.1920   -3.1553    1.2087 H   0  0  0  0  0  0  0  0  0  0  0  0
    3.8349   -2.9526    0.3961 H   0  0  0  0  0  0  0  0  0  0  0  0
  1  2  1  0
  2  3  1  0
  1  4  1  0
  4  5  1  0
  1  6  1  0
  6  7  1  0
  7  8  2  0
  8  9  1  0
  9 10  2  0
 10 11  1  0
 11 12  2  0
 12 13  1  0
 13 14  1  0
 14 15  1  0
 14 16  1  0
 10 17  1  0
 17 18  2  0
 17 19  1  0
 19 20  1  0
 19 21  1  0
 21 22  1  0
 22 23  2  0
 23 24  1  0
 24 25  2  0
 25 26  1  0
 26 27  2  0
 18  7  1  0
 27 22  1  0
 13  9  1  0
  1 28  1  6
  2 29  1  0
  2 30  1  0
  3 31  1  0
  3 32  1  0
  3 33  1  0
  4 34  1  0
  4 35  1  0
  5 36  1  0
  6 37  1  0
 12 38  1  0
 14 39  1  0
 15 40  1  0
 15 41  1  0
 15 42  1  0
 16 43  1  0
 16 44  1  0
 16 45  1  0
 20 46  1  0
 20 47  1  0
 20 48  1  0
 21 49  1  0
 21 50  1  0
 23 51  1  0
 24 52  1  0
 25 53  1  0
 26 54  1  0
 27 55  1  0
M  END
$$$$
