@<TRIPOS>MOLECULE
*****
 49 52 0 0 0
SMALL
GASTEIGER

@<TRIPOS>ATOM
      1 C           2.3074    0.5454   -2.2171 C.3     1  UNL1        0.0093
      2 N           1.9082    0.7702   -0.9104 N.3     1  UNL1       -0.1763
      3 C           0.5637    0.5969   -0.5285 C.3     1  UNL1        0.0360
      4 C           0.1029   -0.8304   -0.7100 C.3     1  UNL1       -0.0300
      5 C          -1.1561   -0.9387   -1.5651 C.3     1  UNL1       -0.0105
      6 C          -2.1718   -0.0755   -0.9091 C.ar    1  UNL1        0.0252
      7 C          -1.7694    1.2439   -0.6949 C.ar    1  UNL1        0.0009
      8 C          -2.8213    1.8796   -0.0887 C.ar    1  UNL1        0.0921
      9 N          -2.9453    3.1542    0.3254 N.ar    1  UNL1       -0.2532
     10 C          -4.0954    3.5162    0.8932 C.ar    1  UNL1        0.0284
     11 C          -5.1288    2.6126    1.0524 C.ar    1  UNL1       -0.0416
     12 C          -4.9985    1.3078    0.6272 C.ar    1  UNL1       -0.0346
     13 C          -3.8177    0.9376    0.0446 C.ar    1  UNL1        0.0685
     14 N          -3.4158   -0.2575   -0.4588 N.ar    1  UNL1       -0.3316
     15 C          -4.1339   -1.5047   -0.5249 C.3     1  UNL1        0.1205
     16 C          -3.9367   -2.3522    0.6538 C.2     1  UNL1        0.3247
     17 O          -3.2073   -1.9831    1.5964 O.2     1  UNL1       -0.2490
     18 O          -4.5594   -3.5787    0.7379 O.3     1  UNL1       -0.4794
     19 C          -0.3966    1.5886   -1.1510 C.3     1  UNL1       -0.0067
     20 S           3.0242    1.1956    0.2492 S.O2    1  UNL1        0.0609
     21 O           2.3308    1.4276    1.5690 O.2     1  UNL1       -0.1528
     22 O           3.7211    2.4819   -0.1702 O.2     1  UNL1       -0.1528
     23 C           4.2347   -0.0452    0.4747 C.ar    1  UNL1        0.1056
     24 C           4.0217   -1.0302    1.4001 C.ar    1  UNL1       -0.0326
     25 C           4.9753   -2.0177    1.5857 C.ar    1  UNL1       -0.0246
     26 C           6.1322   -1.9996    0.8354 C.ar    1  UNL1        0.1235
     27 F           7.0579   -2.9742    1.0283 F       1  UNL1       -0.2055
     28 C           6.3748   -1.0107   -0.1120 C.ar    1  UNL1       -0.0246
     29 C           5.3929   -0.0384   -0.2673 C.ar    1  UNL1       -0.0326
     30 H           2.0906   -0.5021   -2.5707 H       1  UNL1        0.0408
     31 H           1.8807    1.2040   -2.9992 H       1  UNL1        0.0408
     32 H           3.4105    0.6470   -2.2986 H       1  UNL1        0.0408
     33 H           0.5061    0.7959    0.5697 H       1  UNL1        0.0483
     34 H           0.9323   -1.4150   -1.1621 H       1  UNL1        0.0285
     35 H          -0.1533   -1.3096    0.2562 H       1  UNL1        0.0285
     36 H          -1.4446   -2.0100   -1.5336 H       1  UNL1        0.0328
     37 H          -0.9775   -0.5919   -2.5963 H       1  UNL1        0.0328
     38 H          -4.2575    4.5139    1.2436 H       1  UNL1        0.0830
     39 H          -6.0758    2.8963    1.5159 H       1  UNL1        0.0633
     40 H          -5.7836    0.5668    0.7326 H       1  UNL1        0.0639
     41 H          -5.2442   -1.3132   -0.6035 H       1  UNL1        0.0607
     42 H          -3.8853   -2.0948   -1.4298 H       1  UNL1        0.0607
     43 H          -4.8314   -3.9989    1.6391 H       1  UNL1        0.2951
     44 H          -0.1675    2.6168   -0.8296 H       1  UNL1        0.0330
     45 H          -0.4085    1.5468   -2.2524 H       1  UNL1        0.0330
     46 H           3.1361   -1.0974    2.0173 H       1  UNL1        0.0638
     47 H           4.8430   -2.7994    2.2968 H       1  UNL1        0.0647
     48 H           7.2889   -1.0154   -0.6896 H       1  UNL1        0.0647
     49 H           5.5472    0.7390   -0.9890 H       1  UNL1        0.0638
@<TRIPOS>BOND
     1     1     2    1
     2     2     3    1
     3     3     4    1
     4     4     5    1
     5     5     6    1
     6     6     7   ar
     7     7     8   ar
     8     8     9   ar
     9     9    10   ar
    10    10    11   ar
    11    11    12   ar
    12    12    13   ar
    13    13    14   ar
    14    14    15    1
    15    15    16    1
    16    16    17    2
    17    16    18    1
    18     7    19    1
    19     2    20    1
    20    20    21    2
    21    20    22    2
    22    20    23    1
    23    23    24   ar
    24    24    25   ar
    25    25    26   ar
    26    26    27    1
    27    26    28   ar
    28    28    29   ar
    29    19     3    1
    30    29    23   ar
    31    14     6   ar
    32    13     8   ar
    33     1    30    1
    34     1    31    1
    35     1    32    1
    36     3    33    1
    37     4    34    1
    38     4    35    1
    39     5    36    1
    40     5    37    1
    41    10    38    1
    42    11    39    1
    43    12    40    1
    44    15    41    1
    45    15    42    1
    46    18    43    1
    47    19    44    1
    48    19    45    1
    49    24    46    1
    50    25    47    1
    51    28    48    1
    52    29    49    1
