
     RDKit          3D

 49 52  0  0  0  0  0  0  0  0999 V2000
    2.3074    0.5454   -2.2171 C   0  0  0  0  0  0  0  0  0  0  0  0
    1.9082    0.7702   -0.9104 N   0  0  0  0  0  0  0  0  0  0  0  0
    0.5637    0.5969   -0.5285 C   0  0  2  0  0  0  0  0  0  0  0  0
    0.1029   -0.8304   -0.7100 C   0  0  0  0  0  0  0  0  0  0  0  0
   -1.1561   -0.9387   -1.5651 C   0  0  0  0  0  0  0  0  0  0  0  0
   -2.1718   -0.0755   -0.9091 C   0  0  0  0  0  0  0  0  0  0  0  0
   -1.7694    1.2439   -0.6949 C   0  0  0  0  0  0  0  0  0  0  0  0
   -2.8213    1.8796   -0.0887 C   0  0  0  0  0  0  0  0  0  0  0  0
   -2.9453    3.1542    0.3254 N   0  0  0  0  0  0  0  0  0  0  0  0
   -4.0954    3.5162    0.8932 C   0  0  0  0  0  0  0  0  0  0  0  0
   -5.1288    2.6126    1.0524 C   0  0  0  0  0  0  0  0  0  0  0  0
   -4.9985    1.3078    0.6272 C   0  0  0  0  0  0  0  0  0  0  0  0
   -3.8177    0.9376    0.0446 C   0  0  0  0  0  0  0  0  0  0  0  0
   -3.4158   -0.2575   -0.4588 N   0  0  0  0  0  0  0  0  0  0  0  0
   -4.1339   -1.5047   -0.5249 C   0  0  0  0  0  0  0  0  0  0  0  0
   -3.9367   -2.3522    0.6538 C   0  0  0  0  0  0  0  0  0  0  0  0
   -3.2073   -1.9831    1.5964 O   0  0  0  0  0  0  0  0  0  0  0  0
   -4.5594   -3.5787    0.7379 O   0  0  0  0  0  0  0  0  0  0  0  0
   -0.3966    1.5886   -1.1510 C   0  0  0  0  0  0  0  0  0  0  0  0
    3.0242    1.1956    0.2492 S   0  0  0  0  0  6  0  0  0  0  0  0
    2.3308    1.4276    1.5690 O   0  0  0  0  0  0  0  0  0  0  0  0
    3.7211    2.4819   -0.1702 O   0  0  0  0  0  0  0  0  0  0  0  0
    4.2347   -0.0452    0.4747 C   0  0  0  0  0  0  0  0  0  0  0  0
    4.0217   -1.0302    1.4001 C   0  0  0  0  0  0  0  0  0  0  0  0
    4.9753   -2.0177    1.5857 C   0  0  0  0  0  0  0  0  0  0  0  0
    6.1322   -1.9996    0.8354 C   0  0  0  0  0  0  0  0  0  0  0  0
    7.0579   -2.9742    1.0283 F   0  0  0  0  0  0  0  0  0  0  0  0
    6.3748   -1.0107   -0.1120 C   0  0  0  0  0  0  0  0  0  0  0  0
    5.3929   -0.0384   -0.2673 C   0  0  0  0  0  0  0  0  0  0  0  0
    2.0906   -0.5021   -2.5707 H   0  0  0  0  0  0  0  0  0  0  0  0
    1.8807    1.2040   -2.9992 H   0  0  0  0  0  0  0  0  0  0  0  0
    3.4105    0.6470   -2.2986 H   0  0  0  0  0  0  0  0  0  0  0  0
    0.5061    0.7959    0.5697 H   0  0  0  0  0  0  0  0  0  0  0  0
    0.9323   -1.4150   -1.1621 H   0  0  0  0  0  0  0  0  0  0  0  0
   -0.1533   -1.3096    0.2562 H   0  0  0  0  0  0  0  0  0  0  0  0
   -1.4446   -2.0100   -1.5336 H   0  0  0  0  0  0  0  0  0  0  0  0
   -0.9775   -0.5919   -2.5963 H   0  0  0  0  0  0  0  0  0  0  0  0
   -4.2575    4.5139    1.2436 H   0  0  0  0  0  0  0  0  0  0  0  0
   -6.0758    2.8963    1.5159 H   0  0  0  0  0  0  0  0  0  0  0  0
   -5.7836    0.5668    0.7326 H   0  0  0  0  0  0  0  0  0  0  0  0
   -5.2442   -1.3132   -0.6035 H   0  0  0  0  0  0  0  0  0  0  0  0
   -3.8853   -2.0948   -1.4298 H   0  0  0  0  0  0  0  0  0  0  0  0
   -4.8314   -3.9989    1.6391 H   0  0  0  0  0  0  0  0  0  0  0  0
   -0.1675    2.6168   -0.8296 H   0  0  0  0  0  0  0  0  0  0  0  0
   -0.4085    1.5468   -2.2524 H   0  0  0  0  0  0  0  0  0  0  0  0
    3.1361   -1.0974    2.0173 H   0  0  0  0  0  0  0  0  0  0  0  0
    4.8430   -2.7994    2.2968 H   0  0  0  0  0  0  0  0  0  0  0  0
    7.2889   -1.0154   -0.6896 H   0  0  0  0  0  0  0  0  0  0  0  0
    5.5472    0.7390   -0.9890 H   0  0  0  0  0  0  0  0  0  0  0  0
  1  2  1  0
  2  3  1  0
  3  4  1  0
  4  5  1  0
  5  6  1  0
  6  7  2  0
  7  8  1  0
  8  9  2  0
  9 10  1  0
 10 11  2  0
 11 12  1  0
 12 13  2  0
 13 14  1  0
 14 15  1  0
 15 16  1  0
 16 17  2  0
 16 18  1  0
  7 19  1  0
  2 20  1  0
 20 21  2  0
 20 22  2  0
 20 23  1  0
 23 24  2  0
 24 25  1  0
 25 26  2  0
 26 27  1  0
 26 28  1  0
 28 29  2  0
 19  3  1  0
 29 23  1  0
 14  6  1  0
 13  8  1  0
  1 30  1  0
  1 31  1  0
  1 32  1  0
  3 33  1  1
  4 34  1  0
  4 35  1  0
  5 36  1  0
  5 37  1  0
 10 38  1  0
 11 39  1  0
 12 40  1  0
 15 41  1  0
 15 42  1  0
 18 43  1  0
 19 44  1  0
 19 45  1  0
 24 46  1  0
 25 47  1  0
 28 48  1  0
 29 49  1  0
M  END
$$$$
