
     RDKit          3D

 20 19  0  0  0  0  0  0  0  0999 V2000
    3.3444   -0.1221   -0.3513 C   0  0  0  0  0  0  0  0  0  0  0  0
    1.6310   -0.6775   -0.0729 P   0  0  1  0  0  5  0  0  0  0  0  0
    1.1335   -1.6645   -1.3203 O   0  0  0  0  0  0  0  0  0  0  0  0
    1.5814   -1.3851    1.2718 O   0  0  0  0  0  0  0  0  0  0  0  0
    0.6214    0.8210    0.0752 C   0  0  0  0  0  0  0  0  0  0  0  0
   -0.7434    0.5420    0.6033 C   0  0  0  0  0  0  0  0  0  0  0  0
   -0.7664    0.3737    1.8149 O   0  0  0  0  0  0  0  0  0  0  0  0
   -1.8645    0.5161   -0.4013 C   0  0  0  0  0  0  0  0  0  0  0  0
   -3.1217    0.2734    0.2956 C   0  0  0  0  0  0  0  0  0  0  0  0
   -4.4603    0.1558    0.0107 O   0  0  0  0  0  0  0  0  0  0  0  0
   -2.8907    0.1386    1.5152 O   0  0  0  0  0  0  0  0  0  0  0  0
    3.3734    0.9519   -0.7130 H   0  0  0  0  0  0  0  0  0  0  0  0
    3.9342   -0.2128    0.5766 H   0  0  0  0  0  0  0  0  0  0  0  0
    3.7888   -0.7156   -1.1669 H   0  0  0  0  0  0  0  0  0  0  0  0
    1.5117   -2.5896   -1.1364 H   0  0  0  0  0  0  0  0  0  0  0  0
    1.1386    1.4825    0.8002 H   0  0  0  0  0  0  0  0  0  0  0  0
    0.5352    1.2962   -0.9225 H   0  0  0  0  0  0  0  0  0  0  0  0
   -1.7127   -0.2999   -1.1422 H   0  0  0  0  0  0  0  0  0  0  0  0
   -1.8965    1.4823   -0.9335 H   0  0  0  0  0  0  0  0  0  0  0  0
   -5.1371   -0.3662    0.5459 H   0  0  0  0  0  0  0  0  0  0  0  0
  1  2  1  0
  2  3  1  6
  2  4  2  0
  2  5  1  0
  5  6  1  0
  6  7  2  0
  6  8  1  0
  8  9  1  0
  9 10  1  0
  9 11  2  0
  1 12  1  0
  1 13  1  0
  1 14  1  0
  3 15  1  0
  5 16  1  0
  5 17  1  0
  8 18  1  0
  8 19  1  0
 10 20  1  0
M  END
$$$$
