@<TRIPOS>MOLECULE
*****
 88 91 0 0 0
SMALL
GASTEIGER

@<TRIPOS>ATOM
      1 C          -4.9168    0.9549    0.9306 C.3     1  UNL1       -0.0296
      2 C          -4.3381    1.2033    2.2418 C.3     1  UNL1       -0.0470
      3 C          -5.3869    2.0668    2.9256 C.3     1  UNL1       -0.0261
      4 C          -6.6729    1.8510    2.1610 C.3     1  UNL1        0.0609
      5 O          -7.6732    1.4896    3.0836 O.3     1  UNL1       -0.3912
      6 C          -6.3853    0.6677    1.2975 C.3     1  UNL1       -0.0030
      7 C          -6.5332   -0.5600    2.1477 C.3     1  UNL1       -0.0569
      8 C          -7.2519    0.5943    0.0905 C.3     1  UNL1       -0.0445
      9 C          -6.7057   -0.3060   -0.9967 C.3     1  UNL1       -0.0453
     10 C          -5.2792    0.0900   -1.2187 C.3     1  UNL1       -0.0122
     11 C          -4.6634   -0.4845   -2.4131 C.ar    1  UNL1       -0.0406
     12 C          -5.4342   -1.1350   -3.3727 C.ar    1  UNL1       -0.0546
     13 C          -4.8913   -1.6842   -4.5177 C.ar    1  UNL1       -0.0199
     14 C          -3.5314   -1.5871   -4.7234 C.ar    1  UNL1        0.1171
     15 O          -2.8818   -2.1056   -5.8430 O.3     1  UNL1       -0.5068
     16 C          -2.7182   -0.9542   -3.8069 C.ar    1  UNL1       -0.0167
     17 C          -3.3089   -0.4224   -2.6797 C.ar    1  UNL1       -0.0402
     18 C          -2.6362    0.3024   -1.5347 C.3     1  UNL1       -0.0242
     19 C          -3.1179   -0.4099   -0.2885 C.3     1  UNL1       -0.0334
     20 C          -2.1131   -0.3845    0.8384 C.3     1  UNL1       -0.0496
     21 C          -0.8006   -1.0560    0.4906 C.3     1  UNL1       -0.0528
     22 C           0.1751   -1.0166    1.6439 C.3     1  UNL1       -0.0530
     23 C           1.4481   -1.7176    1.1741 C.3     1  UNL1       -0.0531
     24 C           2.4918   -1.7288    2.2724 C.3     1  UNL1       -0.0531
     25 C           2.8673   -0.3281    2.6957 C.3     1  UNL1       -0.0530
     26 C           3.4372    0.5014    1.5888 C.3     1  UNL1       -0.0522
     27 C           4.6957   -0.1463    1.0443 C.3     1  UNL1       -0.0417
     28 C           5.2109    0.7560   -0.0712 C.3     1  UNL1        0.0234
     29 S           6.7135    0.0816   -0.7950 S.O     1  UNL1        0.0222
     30 O           6.4641   -1.2697   -1.4254 O.2     1  UNL1       -0.2572
     31 C           7.9245   -0.0203    0.5367 C.3     1  UNL1        0.0236
     32 C           9.2214   -0.5686    0.0584 C.3     1  UNL1       -0.0360
     33 C           9.9013    0.1899   -1.0263 C.3     1  UNL1        0.0206
     34 C          10.2292    1.5856   -0.6232 C.3     1  UNL1        0.3416
     35 F           9.1687    2.3711   -0.2823 F       1  UNL1       -0.1958
     36 F          11.1216    1.6033    0.4487 F       1  UNL1       -0.1958
     37 C          11.0061    2.2158   -1.7883 C.3     1  UNL1        0.4538
     38 F          12.1477    1.4759   -1.9989 F       1  UNL1       -0.1650
     39 F          11.3073    3.5222   -1.5304 F       1  UNL1       -0.1650
     40 F          10.2004    2.1626   -2.9316 F       1  UNL1       -0.1650
     41 C          -4.5150   -0.1627    0.0727 C.3     1  UNL1       -0.0277
     42 H          -4.9469    1.8948    0.3610 H       1  UNL1        0.0310
     43 H          -3.4205    1.8630    2.2688 H       1  UNL1        0.0269
     44 H          -4.2182    0.3279    2.9044 H       1  UNL1        0.0269
     45 H          -5.1666    3.1478    2.8500 H       1  UNL1        0.0290
     46 H          -5.5125    1.8132    3.9988 H       1  UNL1        0.0290
     47 H          -6.9900    2.7360    1.5758 H       1  UNL1        0.0599
     48 H          -8.5887    1.6535    2.7370 H       1  UNL1        0.2098
     49 H          -7.2036   -1.3375    1.6922 H       1  UNL1        0.0236
     50 H          -5.6129   -1.0759    2.4104 H       1  UNL1        0.0236
     51 H          -7.0363   -0.3368    3.1342 H       1  UNL1        0.0236
     52 H          -7.4520    1.5915   -0.3715 H       1  UNL1        0.0272
     53 H          -8.2188    0.1515    0.3943 H       1  UNL1        0.0272
     54 H          -6.7713   -1.3642   -0.6843 H       1  UNL1        0.0271
     55 H          -7.3400   -0.1035   -1.8922 H       1  UNL1        0.0271
     56 H          -5.3239    1.2036   -1.4284 H       1  UNL1        0.0352
     57 H          -6.5017   -1.2654   -3.3068 H       1  UNL1        0.0622
     58 H          -5.4807   -2.1930   -5.2721 H       1  UNL1        0.0654
     59 H          -3.4761   -2.3246   -6.6533 H       1  UNL1        0.2921
     60 H          -1.6458   -0.8078   -3.8428 H       1  UNL1        0.0657
     61 H          -1.5571    0.3254   -1.6348 H       1  UNL1        0.0316
     62 H          -3.0897    1.3349   -1.5383 H       1  UNL1        0.0316
     63 H          -3.0806   -1.5067   -0.6055 H       1  UNL1        0.0307
     64 H          -2.4683   -0.8420    1.7537 H       1  UNL1        0.0268
     65 H          -1.8374    0.7094    0.9390 H       1  UNL1        0.0268
     66 H          -0.9497   -2.1412    0.2438 H       1  UNL1        0.0265
     67 H          -0.3110   -0.5900   -0.3626 H       1  UNL1        0.0265
     68 H          -0.2380   -1.6271    2.4713 H       1  UNL1        0.0265
     69 H           0.3712   -0.0119    2.0113 H       1  UNL1        0.0265
     70 H           1.2473   -2.7844    0.9467 H       1  UNL1        0.0265
     71 H           1.8482   -1.2746    0.2404 H       1  UNL1        0.0265
     72 H           2.0745   -2.2676    3.1284 H       1  UNL1        0.0265
     73 H           3.3615   -2.2937    1.8874 H       1  UNL1        0.0265
     74 H           3.6798   -0.4246    3.4621 H       1  UNL1        0.0265
     75 H           2.0232    0.1533    3.1931 H       1  UNL1        0.0265
     76 H           2.7559    0.6619    0.7511 H       1  UNL1        0.0266
     77 H           3.6529    1.5005    2.0169 H       1  UNL1        0.0266
     78 H           5.4453   -0.2728    1.8471 H       1  UNL1        0.0274
     79 H           4.4869   -1.1523    0.6294 H       1  UNL1        0.0274
     80 H           5.4699    1.7490    0.3544 H       1  UNL1        0.0401
     81 H           4.4001    0.9018   -0.7973 H       1  UNL1        0.0401
     82 H           8.0169    0.9598    1.0121 H       1  UNL1        0.0401
     83 H           7.5405   -0.7588    1.3017 H       1  UNL1        0.0401
     84 H           9.0228   -1.6253   -0.2901 H       1  UNL1        0.0276
     85 H           9.9100   -0.5994    0.9523 H       1  UNL1        0.0276
     86 H          10.8532   -0.3707   -1.2526 H       1  UNL1        0.0326
     87 H           9.2796    0.1530   -1.9619 H       1  UNL1        0.0326
     88 H          -4.9781   -1.1176    0.4726 H       1  UNL1        0.0312
@<TRIPOS>BOND
     1     1     2    1
     2     2     3    1
     3     3     4    1
     4     4     5    1
     5     4     6    1
     6     6     7    1
     7     6     8    1
     8     8     9    1
     9     9    10    1
    10    10    11    1
    11    11    12   ar
    12    12    13   ar
    13    13    14   ar
    14    14    15    1
    15    14    16   ar
    16    16    17   ar
    17    17    18    1
    18    18    19    1
    19    19    20    1
    20    20    21    1
    21    21    22    1
    22    22    23    1
    23    23    24    1
    24    24    25    1
    25    25    26    1
    26    26    27    1
    27    27    28    1
    28    28    29    1
    29    29    30    2
    30    29    31    1
    31    31    32    1
    32    32    33    1
    33    33    34    1
    34    34    35    1
    35    34    36    1
    36    34    37    1
    37    37    38    1
    38    37    39    1
    39    37    40    1
    40    19    41    1
    41     6     1    1
    42    41    10    1
    43    41     1    1
    44    17    11   ar
    45     1    42    1
    46     2    43    1
    47     2    44    1
    48     3    45    1
    49     3    46    1
    50     4    47    1
    51     5    48    1
    52     7    49    1
    53     7    50    1
    54     7    51    1
    55     8    52    1
    56     8    53    1
    57     9    54    1
    58     9    55    1
    59    10    56    1
    60    12    57    1
    61    13    58    1
    62    15    59    1
    63    16    60    1
    64    18    61    1
    65    18    62    1
    66    19    63    1
    67    20    64    1
    68    20    65    1
    69    21    66    1
    70    21    67    1
    71    22    68    1
    72    22    69    1
    73    23    70    1
    74    23    71    1
    75    24    72    1
    76    24    73    1
    77    25    74    1
    78    25    75    1
    79    26    76    1
    80    26    77    1
    81    27    78    1
    82    27    79    1
    83    28    80    1
    84    28    81    1
    85    31    82    1
    86    31    83    1
    87    32    84    1
    88    32    85    1
    89    33    86    1
    90    33    87    1
    91    41    88    1
