
     RDKit          3D

 36 38  0  0  0  0  0  0  0  0999 V2000
    1.2911   -1.6993    1.0289 F   0  0  0  0  0  0  0  0  0  0  0  0
    2.3504   -0.8400    0.8675 C   0  0  0  0  0  0  0  0  0  0  0  0
    3.5563   -1.3454    1.2583 C   0  0  0  0  0  0  0  0  0  0  0  0
    4.6650   -0.5108    1.1137 C   0  0  0  0  0  0  0  0  0  0  0  0
    4.5565    0.7666    0.6009 C   0  0  0  0  0  0  0  0  0  0  0  0
    3.3281    1.2693    0.2081 C   0  0  0  0  0  0  0  0  0  0  0  0
    2.2067    0.4417    0.3483 C   0  0  0  0  0  0  0  0  0  0  0  0
    0.8366    0.7900    0.0110 C   0  0  0  0  0  0  0  0  0  0  0  0
    0.4571    1.9027    0.5581 N   0  0  0  0  0  0  0  0  0  0  0  0
   -0.7638    2.6412    0.5275 C   0  0  0  0  0  0  0  0  0  0  0  0
   -1.9861    1.8368    0.4518 C   0  0  0  0  0  0  0  0  0  0  0  0
   -3.2787    2.6142    1.1243 S   0  0  0  0  0  0  0  0  0  0  0  0
   -2.3176    0.5289   -0.0892 N   0  0  0  0  0  0  0  0  0  0  0  0
   -3.5668   -0.0771    0.1818 C   0  0  0  0  0  0  0  0  0  0  0  0
   -3.7212   -0.6230    1.5946 C   0  0  0  0  0  0  0  0  0  0  0  0
   -4.9584   -1.1948    1.8136 F   0  0  0  0  0  0  0  0  0  0  0  0
   -3.5352    0.3069    2.5790 F   0  0  0  0  0  0  0  0  0  0  0  0
   -2.7046   -1.5647    1.8554 F   0  0  0  0  0  0  0  0  0  0  0  0
   -1.3433   -0.1613   -0.8572 C   0  0  0  0  0  0  0  0  0  0  0  0
    0.0476   -0.0894   -0.8537 C   0  0  0  0  0  0  0  0  0  0  0  0
    0.9175   -0.8171   -1.6342 C   0  0  0  0  0  0  0  0  0  0  0  0
    0.2799   -1.7092   -2.5039 C   0  0  0  0  0  0  0  0  0  0  0  0
    1.3074   -2.6982   -3.5430 Cl  0  0  0  0  0  0  0  0  0  0  0  0
   -1.1060   -1.8166   -2.5425 C   0  0  0  0  0  0  0  0  0  0  0  0
   -1.9063   -1.0474   -1.7253 C   0  0  0  0  0  0  0  0  0  0  0  0
    3.6788   -2.3313    1.6576 H   0  0  0  0  0  0  0  0  0  0  0  0
    5.6550   -0.8772    1.4137 H   0  0  0  0  0  0  0  0  0  0  0  0
    5.4007    1.4326    0.4795 H   0  0  0  0  0  0  0  0  0  0  0  0
    3.1175    2.2448   -0.2027 H   0  0  0  0  0  0  0  0  0  0  0  0
   -0.7087    3.3426   -0.3377 H   0  0  0  0  0  0  0  0  0  0  0  0
   -0.8075    3.2710    1.4293 H   0  0  0  0  0  0  0  0  0  0  0  0
   -4.1679   -0.5442   -0.5790 H   0  0  0  0  0  0  0  0  0  0  0  0
   -4.2475    0.8819    0.2973 H   0  0  0  0  0  0  0  0  0  0  0  0
    1.9860   -0.6736   -1.5442 H   0  0  0  0  0  0  0  0  0  0  0  0
   -1.5664   -2.5257   -3.2373 H   0  0  0  0  0  0  0  0  0  0  0  0
   -2.9521   -1.1252   -1.7501 H   0  0  0  0  0  0  0  0  0  0  0  0
  1  2  1  0
  2  3  2  0
  3  4  1  0
  4  5  2  0
  5  6  1  0
  6  7  2  0
  7  8  1  0
  8  9  2  0
  9 10  1  0
 10 11  1  0
 11 12  2  0
 11 13  1  0
 13 14  1  0
 14 15  1  0
 15 16  1  0
 15 17  1  0
 15 18  1  0
 13 19  1  0
 19 20  2  0
 20 21  1  0
 21 22  2  0
 22 23  1  0
 22 24  1  0
 24 25  2  0
  7  2  1  0
 20  8  1  0
 25 19  1  0
  3 26  1  0
  4 27  1  0
  5 28  1  0
  6 29  1  0
 10 30  1  0
 10 31  1  0
 14 32  1  0
 14 33  1  0
 21 34  1  0
 24 35  1  0
 25 36  1  0
M  END
$$$$
