
     RDKit          3D

 49 53  0  0  0  0  0  0  0  0999 V2000
   -1.9163   -1.0195   -0.6621 C   0  0  2  0  0  0  0  0  0  0  0  0
   -1.5619   -1.7768   -1.8412 N   0  0  0  0  0  0  0  0  0  0  0  0
   -0.9699   -1.2694    0.4683 C   0  0  0  0  0  0  0  0  0  0  0  0
    0.3290   -0.9889    0.2438 O   0  0  0  0  0  0  0  0  0  0  0  0
    1.2864   -1.4273   -0.5286 C   0  0  0  0  0  0  0  0  0  0  0  0
    1.5487   -2.3745   -1.4861 C   0  0  0  0  0  0  0  0  0  0  0  0
    2.7110   -2.5657   -2.1243 N   0  0  0  0  0  0  0  0  0  0  0  0
    3.7859   -1.7883   -1.8543 C   0  0  0  0  0  0  0  0  0  0  0  0
    3.6876   -0.7762   -0.9024 C   0  0  0  0  0  0  0  0  0  0  0  0
    2.4379   -0.6451   -0.2842 C   0  0  0  0  0  0  0  0  0  0  0  0
    4.8617    0.0279   -0.6470 C   0  0  0  0  0  0  0  0  0  0  0  0
    5.9251   -0.2411   -1.3147 N   0  0  0  0  0  0  0  0  0  0  0  0
    7.1875    0.4256   -1.2184 C   0  0  0  0  0  0  0  0  0  0  0  0
    7.1733    1.5230   -0.2234 C   0  0  0  0  0  0  0  0  0  0  0  0
    8.1019    2.3314    0.1340 N   0  0  0  0  0  0  0  0  0  0  0  0
    7.6220    3.2131    1.1208 N   0  0  0  0  0  0  0  0  0  0  0  0
    6.3791    2.9616    1.3911 C   0  0  0  0  0  0  0  0  0  0  0  0
    5.9875    1.8451    0.5411 C   0  0  0  0  0  0  0  0  0  0  0  0
    4.9208    1.1199    0.3138 C   0  0  0  0  0  0  0  0  0  0  0  0
   -3.3179   -1.4005   -0.2668 C   0  0  0  0  0  0  0  0  0  0  0  0
   -3.8487   -0.7462    0.9129 C   0  0  0  0  0  0  0  0  0  0  0  0
   -4.8510    0.1466    0.8380 C   0  0  0  0  0  0  0  0  0  0  0  0
   -5.6014    0.6554   -0.3115 C   0  0  0  0  0  0  0  0  0  0  0  0
   -6.5632    1.5350   -0.1302 C   0  0  0  0  0  0  0  0  0  0  0  0
   -6.9864    2.0909    1.1758 C   0  0  0  0  0  0  0  0  0  0  0  0
   -6.1903    1.5363    2.2950 C   0  0  0  0  0  0  0  0  0  0  0  0
   -5.2193    0.6537    2.1538 C   0  0  0  0  0  0  0  0  0  0  0  0
   -4.3288   -0.0350    3.0368 N   0  0  0  0  0  0  0  0  0  0  0  0
   -3.5732   -0.8116    2.3235 C   0  0  0  0  0  0  0  0  0  0  0  0
   -1.8859    0.0566   -0.9968 H   0  0  0  0  0  0  0  0  0  0  0  0
   -1.7239   -1.2538   -2.7281 H   0  0  0  0  0  0  0  0  0  0  0  0
   -2.0913   -2.6775   -1.8373 H   0  0  0  0  0  0  0  0  0  0  0  0
   -1.1836   -2.3118    0.8278 H   0  0  0  0  0  0  0  0  0  0  0  0
   -1.3490   -0.5791    1.2994 H   0  0  0  0  0  0  0  0  0  0  0  0
    0.7304   -3.0277   -1.7116 H   0  0  0  0  0  0  0  0  0  0  0  0
    4.6665   -2.0334   -2.4282 H   0  0  0  0  0  0  0  0  0  0  0  0
    2.5172    0.1891    0.4363 H   0  0  0  0  0  0  0  0  0  0  0  0
    7.9968   -0.2820   -0.8982 H   0  0  0  0  0  0  0  0  0  0  0  0
    7.4954    0.7766   -2.2247 H   0  0  0  0  0  0  0  0  0  0  0  0
    5.7034    3.4387    2.0914 H   0  0  0  0  0  0  0  0  0  0  0  0
    4.0521    1.3811    0.8967 H   0  0  0  0  0  0  0  0  0  0  0  0
   -3.3404   -2.5156   -0.0690 H   0  0  0  0  0  0  0  0  0  0  0  0
   -3.9750   -1.2977   -1.1688 H   0  0  0  0  0  0  0  0  0  0  0  0
   -5.4098    0.3448   -1.3328 H   0  0  0  0  0  0  0  0  0  0  0  0
   -7.1528    1.9480   -0.9346 H   0  0  0  0  0  0  0  0  0  0  0  0
   -6.7085    3.1840    1.1366 H   0  0  0  0  0  0  0  0  0  0  0  0
   -8.0769    1.9966    1.3424 H   0  0  0  0  0  0  0  0  0  0  0  0
   -6.4370    1.8915    3.2880 H   0  0  0  0  0  0  0  0  0  0  0  0
   -2.8447   -1.4281    2.8066 H   0  0  0  0  0  0  0  0  0  0  0  0
  1  2  1  0
  1  3  1  0
  3  4  1  0
  4  5  1  0
  5  6  2  0
  6  7  1  0
  7  8  2  0
  8  9  1  0
  9 10  2  0
  9 11  1  0
 11 12  2  0
 12 13  1  0
 13 14  1  0
 14 15  2  0
 15 16  1  0
 16 17  2  0
 17 18  1  0
 18 19  2  0
  1 20  1  0
 20 21  1  0
 21 22  2  0
 22 23  1  0
 23 24  2  0
 24 25  1  0
 25 26  1  0
 26 27  2  0
 27 28  1  0
 28 29  2  0
 10  5  1  0
 19 11  1  0
 29 21  1  0
 18 14  1  0
 27 22  1  0
  1 30  1  6
  2 31  1  0
  2 32  1  0
  3 33  1  0
  3 34  1  0
  6 35  1  0
  8 36  1  0
 10 37  1  0
 13 38  1  0
 13 39  1  0
 17 40  1  0
 19 41  1  0
 20 42  1  0
 20 43  1  0
 23 44  1  0
 24 45  1  0
 25 46  1  0
 25 47  1  0
 26 48  1  0
 29 49  1  0
M  END
$$$$
