@<TRIPOS>MOLECULE
*****
 49 53 0 0 0
SMALL
GASTEIGER

@<TRIPOS>ATOM
      1 C          -1.9163   -1.0195   -0.6621 C.3     1  UNL1        0.0435
      2 N          -1.5619   -1.7768   -1.8412 N.3     1  UNL1       -0.3242
      3 C          -0.9699   -1.2694    0.4683 C.3     1  UNL1        0.1050
      4 O           0.3290   -0.9889    0.2438 O.3     1  UNL1       -0.4889
      5 C           1.2864   -1.4273   -0.5286 C.ar    1  UNL1        0.1392
      6 C           1.5487   -2.3745   -1.4861 C.ar    1  UNL1        0.0692
      7 N           2.7110   -2.5657   -2.1243 N.ar    1  UNL1       -0.2590
      8 C           3.7859   -1.7883   -1.8543 C.ar    1  UNL1        0.0370
      9 C           3.6876   -0.7762   -0.9024 C.ar    1  UNL1        0.0215
     10 C           2.4379   -0.6451   -0.2842 C.ar    1  UNL1       -0.0078
     11 C           4.8617    0.0279   -0.6470 C.2     1  UNL1        0.0682
     12 N           5.9251   -0.2411   -1.3147 N.2     1  UNL1       -0.2770
     13 C           7.1875    0.4256   -1.2184 C.3     1  UNL1        0.0847
     14 C           7.1733    1.5230   -0.2234 C.2     1  UNL1        0.0934
     15 N           8.1019    2.3314    0.1340 N.2     1  UNL1       -0.1517
     16 N           7.6220    3.2131    1.1208 N.2     1  UNL1       -0.1567
     17 C           6.3791    2.9616    1.3911 C.2     1  UNL1        0.0590
     18 C           5.9875    1.8451    0.5411 C.2     1  UNL1        0.0216
     19 C           4.9208    1.1199    0.3138 C.2     1  UNL1       -0.0256
     20 C          -3.3179   -1.4005   -0.2668 C.3     1  UNL1       -0.0072
     21 C          -3.8487   -0.7462    0.9129 C.2     1  UNL1       -0.0186
     22 C          -4.8510    0.1466    0.8380 C.2     1  UNL1        0.0044
     23 C          -5.6014    0.6554   -0.3115 C.2     1  UNL1       -0.0559
     24 C          -6.5632    1.5350   -0.1302 C.2     1  UNL1       -0.0796
     25 C          -6.9864    2.0909    1.1758 C.3     1  UNL1       -0.0139
     26 C          -6.1903    1.5363    2.2950 C.2     1  UNL1       -0.0543
     27 C          -5.2193    0.6537    2.1538 C.2     1  UNL1        0.0677
     28 N          -4.3288   -0.0350    3.0368 N.2     1  UNL1       -0.2550
     29 C          -3.5732   -0.8116    2.3235 C.2     1  UNL1        0.0321
     30 H          -1.8859    0.0566   -0.9968 H       1  UNL1        0.0495
     31 H          -1.7239   -1.2538   -2.7281 H       1  UNL1        0.1186
     32 H          -2.0913   -2.6775   -1.8373 H       1  UNL1        0.1186
     33 H          -1.1836   -2.3118    0.8278 H       1  UNL1        0.0712
     34 H          -1.3490   -0.5791    1.2994 H       1  UNL1        0.0712
     35 H           0.7304   -3.0277   -1.7116 H       1  UNL1        0.0867
     36 H           4.6665   -2.0334   -2.4282 H       1  UNL1        0.0836
     37 H           2.5172    0.1891    0.4363 H       1  UNL1        0.0662
     38 H           7.9968   -0.2820   -0.8982 H       1  UNL1        0.0574
     39 H           7.4954    0.7766   -2.2247 H       1  UNL1        0.0574
     40 H           5.7034    3.4387    2.0914 H       1  UNL1        0.0854
     41 H           4.0521    1.3811    0.8967 H       1  UNL1        0.0646
     42 H          -3.3404   -2.5156   -0.0690 H       1  UNL1        0.0330
     43 H          -3.9750   -1.2977   -1.1688 H       1  UNL1        0.0330
     44 H          -5.4098    0.3448   -1.3328 H       1  UNL1        0.0621
     45 H          -7.1528    1.9480   -0.9346 H       1  UNL1        0.0575
     46 H          -6.7085    3.1840    1.1366 H       1  UNL1        0.0350
     47 H          -8.0769    1.9966    1.3424 H       1  UNL1        0.0350
     48 H          -6.4370    1.8915    3.2880 H       1  UNL1        0.0596
     49 H          -2.8447   -1.4281    2.8066 H       1  UNL1        0.0833
@<TRIPOS>BOND
     1     1     2    1
     2     1     3    1
     3     3     4    1
     4     4     5    1
     5     5     6   ar
     6     6     7   ar
     7     7     8   ar
     8     8     9   ar
     9     9    10   ar
    10     9    11    1
    11    11    12    2
    12    12    13    1
    13    13    14    1
    14    14    15    2
    15    15    16    1
    16    16    17    2
    17    17    18    1
    18    18    19    2
    19     1    20    1
    20    20    21    1
    21    21    22    2
    22    22    23    1
    23    23    24    2
    24    24    25    1
    25    25    26    1
    26    26    27    2
    27    27    28    1
    28    28    29    2
    29    10     5   ar
    30    19    11    1
    31    29    21    1
    32    18    14    1
    33    27    22    1
    34     1    30    1
    35     2    31    1
    36     2    32    1
    37     3    33    1
    38     3    34    1
    39     6    35    1
    40     8    36    1
    41    10    37    1
    42    13    38    1
    43    13    39    1
    44    17    40    1
    45    19    41    1
    46    20    42    1
    47    20    43    1
    48    23    44    1
    49    24    45    1
    50    25    46    1
    51    25    47    1
    52    26    48    1
    53    29    49    1
