@<TRIPOS>MOLECULE
*****
 42 44 0 0 0
SMALL
GASTEIGER

@<TRIPOS>ATOM
      1 C           4.9438    3.0618   -1.7958 C.3     1  UNL1        0.0788
      2 O           4.2282    2.8347   -0.6371 O.3     1  UNL1       -0.4951
      3 C           3.9328    1.6367   -0.0251 C.ar    1  UNL1        0.1202
      4 C           3.1815    1.6460    1.1566 C.ar    1  UNL1       -0.0179
      5 C           2.9394    0.4031    1.6861 C.ar    1  UNL1       -0.0328
      6 C           3.3425   -0.8022    1.1955 C.ar    1  UNL1        0.0669
      7 C           4.0813   -0.7530    0.0271 C.ar    1  UNL1       -0.0328
      8 C           4.3824    0.4299   -0.5886 C.ar    1  UNL1       -0.0179
      9 N           3.0062   -1.9981    1.8527 N.2     1  UNL1       -0.2237
     10 C           1.6639   -2.2824    1.7864 C.ar    1  UNL1        0.1731
     11 N           0.8385   -3.2761    2.2370 N.ar    1  UNL1       -0.3219
     12 C          -0.4348   -3.1412    1.9469 C.ar    1  UNL1        0.1133
     13 N          -1.1923   -4.2198    2.4519 N.pl3   1  UNL1       -0.3436
     14 C          -1.0140   -2.1316    1.2558 C.ar    1  UNL1        0.1003
     15 S           0.5064   -1.1662    0.9361 S.2     1  UNL1       -0.0446
     16 C          -2.2989   -1.8619    0.8617 C.2     1  UNL1        0.2030
     17 O          -3.1125   -2.7749    1.1611 O.2     1  UNL1       -0.2860
     18 C          -2.6812   -0.6447    0.1672 C.ar    1  UNL1        0.0231
     19 C          -2.0389    0.5835    0.1902 C.ar    1  UNL1       -0.0474
     20 C          -2.5565    1.6029   -0.5687 C.ar    1  UNL1       -0.0193
     21 C          -3.6687    1.5209   -1.3617 C.ar    1  UNL1        0.1201
     22 O          -4.0258    2.6652   -2.0486 O.3     1  UNL1       -0.4951
     23 C          -5.1500    2.6540   -2.8824 C.3     1  UNL1        0.0788
     24 C          -4.3113    0.2793   -1.3780 C.ar    1  UNL1       -0.0193
     25 C          -3.8199   -0.7702   -0.6276 C.ar    1  UNL1       -0.0474
     26 H           4.3416    3.2808   -2.6900 H       1  UNL1        0.0660
     27 H           5.5548    3.9981   -1.6214 H       1  UNL1        0.0660
     28 H           5.7035    2.2883   -2.0133 H       1  UNL1        0.0660
     29 H           2.8387    2.5766    1.5864 H       1  UNL1        0.0655
     30 H           2.3495    0.4380    2.6143 H       1  UNL1        0.0640
     31 H           4.4246   -1.6929   -0.4014 H       1  UNL1        0.0640
     32 H           4.9539    0.4094   -1.4853 H       1  UNL1        0.0655
     33 H           1.4351   -3.9578    2.7399 H       1  UNL1        0.1690
     34 H          -1.5031   -4.0054    3.4452 H       1  UNL1        0.1437
     35 H          -1.7247   -5.0417    2.7302 H       1  UNL1        0.1437
     36 H          -1.1790    0.6710    0.8045 H       1  UNL1        0.0626
     37 H          -1.9933    2.5251   -0.4950 H       1  UNL1        0.0654
     38 H          -4.9736    1.9146   -3.7164 H       1  UNL1        0.0660
     39 H          -6.0732    2.4595   -2.3326 H       1  UNL1        0.0660
     40 H          -5.2969    3.6249   -3.4171 H       1  UNL1        0.0660
     41 H          -5.1906    0.2407   -2.0168 H       1  UNL1        0.0654
     42 H          -4.4093   -1.6768   -0.7298 H       1  UNL1        0.0626
@<TRIPOS>BOND
     1     1     2    1
     2     2     3    1
     3     3     4   ar
     4     4     5   ar
     5     5     6   ar
     6     6     7   ar
     7     7     8   ar
     8     6     9    1
     9     9    10    2
    10    10    11   ar
    11    11    12   ar
    12    12    13    1
    13    12    14   ar
    14    14    15   ar
    15    14    16    1
    16    16    17    2
    17    16    18    1
    18    18    19   ar
    19    19    20   ar
    20    20    21   ar
    21    21    22    1
    22    22    23    1
    23    21    24   ar
    24    24    25   ar
    25     8     3   ar
    26    15    10   ar
    27    25    18   ar
    28     1    26    1
    29     1    27    1
    30     1    28    1
    31     4    29    1
    32     5    30    1
    33     7    31    1
    34     8    32    1
    35    11    33    1
    36    13    34    1
    37    13    35    1
    38    19    36    1
    39    20    37    1
    40    23    38    1
    41    23    39    1
    42    23    40    1
    43    24    41    1
    44    25    42    1
