@<TRIPOS>MOLECULE
*****
 44 48 0 0 0
SMALL
GASTEIGER

@<TRIPOS>ATOM
      1 C          -4.1441   -1.5998    2.0907 C.3     1  UNL1       -0.0391
      2 C          -4.8510   -0.5933    1.2642 C.ar    1  UNL1       -0.0427
      3 C          -6.2291   -0.4986    1.3384 C.ar    1  UNL1       -0.0583
      4 C          -6.9326    0.4206    0.5793 C.ar    1  UNL1       -0.0615
      5 C          -6.2062    1.2393   -0.2549 C.ar    1  UNL1       -0.0612
      6 C          -4.8300    1.1455   -0.3297 C.ar    1  UNL1       -0.0538
      7 C          -4.1274    0.2202    0.4354 C.ar    1  UNL1       -0.0149
      8 C          -2.6974    0.1926    0.3052 C.ar    1  UNL1       -0.0157
      9 C          -1.8087    0.1861    1.3382 C.ar    1  UNL1       -0.0533
     10 C          -0.4365    0.1532    1.1587 C.ar    1  UNL1       -0.0499
     11 C           0.0177    0.1264   -0.1481 C.ar    1  UNL1        0.0260
     12 C          -0.8171    0.1313   -1.2275 C.ar    1  UNL1        0.0519
     13 C          -2.1732    0.1645   -0.9924 C.ar    1  UNL1       -0.0299
     14 N          -0.3345    0.1043   -2.5045 N.ar    1  UNL1       -0.3203
     15 C           0.9808    0.0716   -2.7701 C.ar    1  UNL1        0.2748
     16 O           1.4598    0.0464   -3.9168 O.2     1  UNL1       -0.2656
     17 C           1.8461    0.0660   -1.6961 C.ar    1  UNL1        0.1322
     18 N           3.2105    0.0370   -1.5867 N.ar    1  UNL1       -0.3335
     19 C           3.6133    0.0440   -0.3255 C.ar    1  UNL1        0.1436
     20 C           4.9450    0.0216    0.2470 C.ar    1  UNL1        0.0707
     21 C           5.0888    0.0360    1.6449 C.ar    1  UNL1        0.1354
     22 F           3.9568    0.0703    2.3718 F       1  UNL1       -0.2047
     23 C           6.3180    0.0165    2.2646 C.ar    1  UNL1       -0.0257
     24 C           7.4735   -0.0186    1.5141 C.ar    1  UNL1       -0.0576
     25 C           7.3595   -0.0330    0.1644 C.ar    1  UNL1       -0.0425
     26 C           6.1063   -0.0130   -0.4522 C.ar    1  UNL1        0.0544
     27 CL          6.0740   -0.0345   -2.2248 Cl      1  UNL1       -0.0827
     28 N           2.4498    0.0793    0.4129 N.ar    1  UNL1       -0.2268
     29 C           1.3920    0.0926   -0.4004 C.ar    1  UNL1        0.1039
     30 H          -4.7572   -2.5233    2.2254 H       1  UNL1        0.0278
     31 H          -3.1482   -1.8559    1.6499 H       1  UNL1        0.0278
     32 H          -3.9579   -1.1919    3.1043 H       1  UNL1        0.0278
     33 H          -6.7937   -1.1534    2.0037 H       1  UNL1        0.0620
     34 H          -8.0225    0.4884    0.6446 H       1  UNL1        0.0618
     35 H          -6.7678    1.9607   -0.8498 H       1  UNL1        0.0618
     36 H          -4.3275    1.8146   -1.0008 H       1  UNL1        0.0624
     37 H          -2.1857    0.2122    2.3496 H       1  UNL1        0.0624
     38 H           0.2750    0.1475    1.9602 H       1  UNL1        0.0625
     39 H          -2.8427    0.1684   -1.8573 H       1  UNL1        0.0644
     40 H          -1.0235    0.1098   -3.2877 H       1  UNL1        0.1690
     41 H           3.7896    0.0132   -2.4422 H       1  UNL1        0.1675
     42 H           6.4090    0.0282    3.3520 H       1  UNL1        0.0646
     43 H           8.4204   -0.0329    2.0489 H       1  UNL1        0.0619
     44 H           8.2284   -0.0601   -0.4564 H       1  UNL1        0.0632
@<TRIPOS>BOND
     1     1     2    1
     2     2     3   ar
     3     3     4   ar
     4     4     5   ar
     5     5     6   ar
     6     6     7   ar
     7     7     8    1
     8     8     9   ar
     9     9    10   ar
    10    10    11   ar
    11    11    12   ar
    12    12    13   ar
    13    12    14   ar
    14    14    15   ar
    15    15    16    2
    16    15    17   ar
    17    17    18   ar
    18    18    19   ar
    19    19    20    1
    20    20    21   ar
    21    21    22    1
    22    21    23   ar
    23    23    24   ar
    24    24    25   ar
    25    25    26   ar
    26    26    27    1
    27    19    28   ar
    28    28    29   ar
    29     7     2   ar
    30    13     8   ar
    31    29    17   ar
    32    29    11   ar
    33    26    20   ar
    34     1    30    1
    35     1    31    1
    36     1    32    1
    37     3    33    1
    38     4    34    1
    39     5    35    1
    40     6    36    1
    41     9    37    1
    42    10    38    1
    43    13    39    1
    44    14    40    1
    45    18    41    1
    46    23    42    1
    47    24    43    1
    48    25    44    1
