
     RDKit          3D

 44 48  0  0  0  0  0  0  0  0999 V2000
   -4.1441   -1.5998    2.0907 C   0  0  0  0  0  0  0  0  0  0  0  0
   -4.8510   -0.5933    1.2642 C   0  0  0  0  0  0  0  0  0  0  0  0
   -6.2291   -0.4986    1.3384 C   0  0  0  0  0  0  0  0  0  0  0  0
   -6.9326    0.4206    0.5793 C   0  0  0  0  0  0  0  0  0  0  0  0
   -6.2062    1.2393   -0.2549 C   0  0  0  0  0  0  0  0  0  0  0  0
   -4.8300    1.1455   -0.3297 C   0  0  0  0  0  0  0  0  0  0  0  0
   -4.1274    0.2202    0.4354 C   0  0  0  0  0  0  0  0  0  0  0  0
   -2.6974    0.1926    0.3052 C   0  0  0  0  0  0  0  0  0  0  0  0
   -1.8087    0.1861    1.3382 C   0  0  0  0  0  0  0  0  0  0  0  0
   -0.4365    0.1532    1.1587 C   0  0  0  0  0  0  0  0  0  0  0  0
    0.0177    0.1264   -0.1481 C   0  0  0  0  0  0  0  0  0  0  0  0
   -0.8171    0.1313   -1.2275 C   0  0  0  0  0  0  0  0  0  0  0  0
   -2.1732    0.1645   -0.9924 C   0  0  0  0  0  0  0  0  0  0  0  0
   -0.3345    0.1043   -2.5045 N   0  0  0  0  0  0  0  0  0  0  0  0
    0.9808    0.0716   -2.7701 C   0  0  0  0  0  0  0  0  0  0  0  0
    1.4598    0.0464   -3.9168 O   0  0  0  0  0  0  0  0  0  0  0  0
    1.8461    0.0660   -1.6961 C   0  0  0  0  0  0  0  0  0  0  0  0
    3.2105    0.0370   -1.5867 N   0  0  0  0  0  0  0  0  0  0  0  0
    3.6133    0.0440   -0.3255 C   0  0  0  0  0  0  0  0  0  0  0  0
    4.9450    0.0216    0.2470 C   0  0  0  0  0  0  0  0  0  0  0  0
    5.0888    0.0360    1.6449 C   0  0  0  0  0  0  0  0  0  0  0  0
    3.9568    0.0703    2.3718 F   0  0  0  0  0  0  0  0  0  0  0  0
    6.3180    0.0165    2.2646 C   0  0  0  0  0  0  0  0  0  0  0  0
    7.4735   -0.0186    1.5141 C   0  0  0  0  0  0  0  0  0  0  0  0
    7.3595   -0.0330    0.1644 C   0  0  0  0  0  0  0  0  0  0  0  0
    6.1063   -0.0130   -0.4522 C   0  0  0  0  0  0  0  0  0  0  0  0
    6.0740   -0.0345   -2.2248 Cl  0  0  0  0  0  0  0  0  0  0  0  0
    2.4498    0.0793    0.4129 N   0  0  0  0  0  0  0  0  0  0  0  0
    1.3920    0.0926   -0.4004 C   0  0  0  0  0  0  0  0  0  0  0  0
   -4.7572   -2.5233    2.2254 H   0  0  0  0  0  0  0  0  0  0  0  0
   -3.1482   -1.8559    1.6499 H   0  0  0  0  0  0  0  0  0  0  0  0
   -3.9579   -1.1919    3.1043 H   0  0  0  0  0  0  0  0  0  0  0  0
   -6.7937   -1.1534    2.0037 H   0  0  0  0  0  0  0  0  0  0  0  0
   -8.0225    0.4884    0.6446 H   0  0  0  0  0  0  0  0  0  0  0  0
   -6.7678    1.9607   -0.8498 H   0  0  0  0  0  0  0  0  0  0  0  0
   -4.3275    1.8146   -1.0008 H   0  0  0  0  0  0  0  0  0  0  0  0
   -2.1857    0.2122    2.3496 H   0  0  0  0  0  0  0  0  0  0  0  0
    0.2750    0.1475    1.9602 H   0  0  0  0  0  0  0  0  0  0  0  0
   -2.8427    0.1684   -1.8573 H   0  0  0  0  0  0  0  0  0  0  0  0
   -1.0235    0.1098   -3.2877 H   0  0  0  0  0  0  0  0  0  0  0  0
    3.7896    0.0132   -2.4422 H   0  0  0  0  0  0  0  0  0  0  0  0
    6.4090    0.0282    3.3520 H   0  0  0  0  0  0  0  0  0  0  0  0
    8.4204   -0.0329    2.0489 H   0  0  0  0  0  0  0  0  0  0  0  0
    8.2284   -0.0601   -0.4564 H   0  0  0  0  0  0  0  0  0  0  0  0
  1  2  1  0
  2  3  2  0
  3  4  1  0
  4  5  2  0
  5  6  1  0
  6  7  2  0
  7  8  1  0
  8  9  2  0
  9 10  1  0
 10 11  2  0
 11 12  1  0
 12 13  2  0
 12 14  1  0
 14 15  1  0
 15 16  2  0
 15 17  1  0
 17 18  1  0
 18 19  1  0
 19 20  1  0
 20 21  2  0
 21 22  1  0
 21 23  1  0
 23 24  2  0
 24 25  1  0
 25 26  2  0
 26 27  1  0
 19 28  2  0
 28 29  1  0
  7  2  1  0
 13  8  1  0
 29 17  2  0
 29 11  1  0
 26 20  1  0
  1 30  1  0
  1 31  1  0
  1 32  1  0
  3 33  1  0
  4 34  1  0
  5 35  1  0
  6 36  1  0
  9 37  1  0
 10 38  1  0
 13 39  1  0
 14 40  1  0
 18 41  1  0
 23 42  1  0
 24 43  1  0
 25 44  1  0
M  END
$$$$
