@<TRIPOS>MOLECULE
*****
 69 72 0 0 0
SMALL
GASTEIGER

@<TRIPOS>ATOM
      1 C           8.8352    1.0647   -1.7759 C.3     1  UNL1       -0.0470
      2 C           8.7318    0.1108   -0.5860 C.3     1  UNL1        0.0233
      3 N           7.5348    0.5004    0.1606 N.ar    1  UNL1       -0.3149
      4 C           6.3332   -0.0215   -0.1019 C.ar    1  UNL1        0.0156
      5 C           5.1773    0.3156    0.5751 C.ar    1  UNL1       -0.0015
      6 C           3.8844   -0.3024    0.2285 C.ar    1  UNL1       -0.0165
      7 C           3.5991   -0.6852   -1.0643 C.ar    1  UNL1       -0.0537
      8 C           2.3853   -1.2620   -1.3807 C.ar    1  UNL1       -0.0562
      9 C           1.4033   -1.4857   -0.4392 C.ar    1  UNL1       -0.0271
     10 C           0.0910   -2.1027   -0.7519 C.3     1  UNL1        0.0515
     11 C           0.0009   -2.2358   -2.2572 C.3     1  UNL1       -0.0421
     12 N          -1.0129   -1.4326   -0.1691 N.am    1  UNL1       -0.2605
     13 C          -1.3818   -0.0398   -0.3855 C.3     1  UNL1        0.0224
     14 C          -2.8775   -0.0618   -0.7518 C.3     1  UNL1        0.0076
     15 C          -3.6445   -0.3383    0.4903 C.3     1  UNL1        0.1440
     16 C          -4.9901   -0.9591    0.3365 C.3     1  UNL1        0.0199
     17 C          -6.0361   -0.2439   -0.4087 C.3     1  UNL1        0.0645
     18 C          -7.3124   -1.1331   -0.3572 C.3     1  UNL1       -0.0362
     19 C          -5.7242   -0.1492   -1.8751 C.3     1  UNL1       -0.0362
     20 O          -6.4160    0.9669    0.1215 O.3     1  UNL1       -0.3890
     21 C          -3.7158    0.8750    1.3776 C.ar    1  UNL1       -0.0040
     22 C          -4.3066    0.7592    2.6143 C.ar    1  UNL1       -0.0548
     23 C          -4.3905    1.8765    3.4518 C.ar    1  UNL1       -0.0614
     24 C          -3.8934    3.1046    3.0719 C.ar    1  UNL1       -0.0617
     25 C          -3.3002    3.2252    1.8327 C.ar    1  UNL1       -0.0614
     26 C          -3.2249    2.1052    1.0122 C.ar    1  UNL1       -0.0548
     27 O          -2.8872   -1.2806    1.2773 O.3     1  UNL1       -0.4387
     28 C          -1.9122   -2.1018    0.7335 C.2     1  UNL1        0.4042
     29 O          -1.7987   -3.3262    0.9873 O.2     1  UNL1       -0.2262
     30 C           1.7088   -1.0947    0.8525 C.ar    1  UNL1       -0.0562
     31 C           2.9147   -0.5186    1.1816 C.ar    1  UNL1       -0.0537
     32 C           5.2996    1.2516    1.5799 C.ar    1  UNL1       -0.0475
     33 C           6.5223    1.8139    1.8814 C.ar    1  UNL1        0.0036
     34 C           7.6369    1.4118    1.1433 C.ar    1  UNL1        0.2513
     35 O           8.7808    1.8899    1.3722 O.2     1  UNL1       -0.2677
     36 H           8.1223    1.8983   -1.6857 H       1  UNL1        0.0247
     37 H           8.5582    0.5001   -2.7064 H       1  UNL1        0.0247
     38 H           9.8523    1.4807   -1.8533 H       1  UNL1        0.0247
     39 H           9.6010    0.2237    0.1016 H       1  UNL1        0.0490
     40 H           8.6209   -0.9343   -0.9272 H       1  UNL1        0.0490
     41 H           6.2676   -0.7587   -0.9013 H       1  UNL1        0.0816
     42 H           4.3794   -0.5087   -1.8177 H       1  UNL1        0.0624
     43 H           2.1962   -1.5534   -2.4244 H       1  UNL1        0.0621
     44 H           0.0901   -3.1585   -0.3748 H       1  UNL1        0.0549
     45 H           0.2095   -1.3188   -2.8036 H       1  UNL1        0.0251
     46 H          -0.9878   -2.6977   -2.5308 H       1  UNL1        0.0251
     47 H           0.7587   -2.9899   -2.5549 H       1  UNL1        0.0251
     48 H          -0.7732    0.4870   -1.1049 H       1  UNL1        0.0467
     49 H          -1.3282    0.4320    0.6163 H       1  UNL1        0.0467
     50 H          -3.1506    0.8168   -1.3265 H       1  UNL1        0.0322
     51 H          -2.9632   -0.9517   -1.4253 H       1  UNL1        0.0322
     52 H          -4.8416   -1.9848   -0.0938 H       1  UNL1        0.0335
     53 H          -5.3764   -1.1255    1.3903 H       1  UNL1        0.0335
     54 H          -7.0726   -2.1640   -0.6565 H       1  UNL1        0.0257
     55 H          -7.8065   -1.0463    0.6129 H       1  UNL1        0.0257
     56 H          -8.0140   -0.7349   -1.1328 H       1  UNL1        0.0257
     57 H          -5.3416    0.8552   -2.0927 H       1  UNL1        0.0257
     58 H          -5.1187   -0.9813   -2.2636 H       1  UNL1        0.0257
     59 H          -6.6787   -0.2091   -2.4892 H       1  UNL1        0.0257
     60 H          -7.2766    1.2179   -0.2995 H       1  UNL1        0.2101
     61 H          -4.7267   -0.1490    3.0188 H       1  UNL1        0.0622
     62 H          -4.8517    1.8037    4.4274 H       1  UNL1        0.0618
     63 H          -3.9380    3.9915    3.6884 H       1  UNL1        0.0618
     64 H          -2.8995    4.1778    1.5044 H       1  UNL1        0.0618
     65 H          -2.7593    2.2452    0.0585 H       1  UNL1        0.0622
     66 H           0.9892   -1.2391    1.6380 H       1  UNL1        0.0621
     67 H           3.1187   -0.2262    2.1997 H       1  UNL1        0.0624
     68 H           4.4488    1.5553    2.1395 H       1  UNL1        0.0626
     69 H           6.6782    2.5503    2.6564 H       1  UNL1        0.0672
@<TRIPOS>BOND
     1     1     2    1
     2     2     3    1
     3     3     4   ar
     4     4     5   ar
     5     5     6    1
     6     6     7   ar
     7     7     8   ar
     8     8     9   ar
     9     9    10    1
    10    10    11    1
    11    10    12    1
    12    12    13    1
    13    13    14    1
    14    14    15    1
    15    15    16    1
    16    16    17    1
    17    17    18    1
    18    17    19    1
    19    17    20    1
    20    15    21    1
    21    21    22   ar
    22    22    23   ar
    23    23    24   ar
    24    24    25   ar
    25    25    26   ar
    26    15    27    1
    27    27    28    1
    28    28    29    2
    29     9    30   ar
    30    30    31   ar
    31     5    32   ar
    32    32    33   ar
    33    33    34   ar
    34    34    35    2
    35    34     3   ar
    36    31     6   ar
    37    28    12   am
    38    26    21   ar
    39     1    36    1
    40     1    37    1
    41     1    38    1
    42     2    39    1
    43     2    40    1
    44     4    41    1
    45     7    42    1
    46     8    43    1
    47    10    44    1
    48    11    45    1
    49    11    46    1
    50    11    47    1
    51    13    48    1
    52    13    49    1
    53    14    50    1
    54    14    51    1
    55    16    52    1
    56    16    53    1
    57    18    54    1
    58    18    55    1
    59    18    56    1
    60    19    57    1
    61    19    58    1
    62    19    59    1
    63    20    60    1
    64    22    61    1
    65    23    62    1
    66    24    63    1
    67    25    64    1
    68    26    65    1
    69    30    66    1
    70    31    67    1
    71    32    68    1
    72    33    69    1
