@<TRIPOS>MOLECULE
*****
 38 41 0 0 0
SMALL
GASTEIGER

@<TRIPOS>ATOM
      1 F          -6.2513   -0.9970   -0.8330 F       1  UNL1       -0.2055
      2 C          -4.9286   -0.8295   -1.0093 C.ar    1  UNL1        0.1234
      3 C          -4.3167   -0.0767   -2.0080 C.ar    1  UNL1       -0.0258
      4 C          -2.9387    0.0239   -2.0916 C.ar    1  UNL1       -0.0498
      5 C          -2.1176   -0.6337   -1.1671 C.ar    1  UNL1        0.0026
      6 C          -2.7560   -1.3709   -0.1907 C.ar    1  UNL1       -0.0498
      7 C          -4.1252   -1.4880   -0.0843 C.ar    1  UNL1       -0.0258
      8 C          -0.6766   -0.4878   -1.3164 C.ar    1  UNL1        0.0967
      9 C           0.1765    0.1587   -0.4414 C.ar    1  UNL1        0.0765
     10 N           1.4487    0.0767   -0.9297 N.ar    1  UNL1       -0.3293
     11 C           2.6522    0.6237   -0.3165 C.3     1  UNL1        0.0275
     12 C           3.2377   -0.4194    0.5922 C.3     1  UNL1       -0.0230
     13 C           3.6510   -1.7164    0.0157 C.3     1  UNL1       -0.0483
     14 C           4.6566   -0.7806    0.6161 C.3     1  UNL1       -0.0483
     15 C           1.3990   -0.6144   -2.1008 C.ar    1  UNL1        0.0971
     16 N           0.1266   -0.9387   -2.3090 N.ar    1  UNL1       -0.2351
     17 C          -0.1204    0.8424    0.8108 C.ar    1  UNL1        0.0035
     18 C          -0.5645    0.3732    2.0111 C.ar    1  UNL1       -0.0344
     19 C          -0.7826    1.2239    3.0738 C.ar    1  UNL1        0.0282
     20 N          -0.5574    2.5521    2.9418 N.ar    1  UNL1       -0.2632
     21 C          -0.1235    3.0461    1.7846 C.ar    1  UNL1        0.0282
     22 C           0.1110    2.2178    0.6799 C.ar    1  UNL1       -0.0344
     23 H          -5.0392    0.3760   -2.6500 H       1  UNL1        0.0646
     24 H          -2.5602    0.6360   -2.9070 H       1  UNL1        0.0625
     25 H          -2.1357   -1.8854    0.5265 H       1  UNL1        0.0625
     26 H          -4.5408   -2.0855    0.7121 H       1  UNL1        0.0646
     27 H           2.4695    1.5851    0.2042 H       1  UNL1        0.0495
     28 H           3.4149    0.8582   -1.1011 H       1  UNL1        0.0495
     29 H           2.6965   -0.4706    1.5743 H       1  UNL1        0.0318
     30 H           3.3500   -2.6460    0.5463 H       1  UNL1        0.0269
     31 H           3.7831   -1.8350   -1.0888 H       1  UNL1        0.0269
     32 H           5.4013   -0.2778   -0.0200 H       1  UNL1        0.0269
     33 H           5.1063   -1.1259    1.5793 H       1  UNL1        0.0269
     34 H           2.2326   -0.8622   -2.7535 H       1  UNL1        0.1029
     35 H          -0.7090   -0.6849    2.0126 H       1  UNL1        0.0639
     36 H          -1.1373    0.6814    3.9574 H       1  UNL1        0.0830
     37 H           0.0089    4.1170    1.8342 H       1  UNL1        0.0830
     38 H           0.4587    2.8344   -0.1547 H       1  UNL1        0.0639
@<TRIPOS>BOND
     1     1     2    1
     2     2     3   ar
     3     3     4   ar
     4     4     5   ar
     5     5     6   ar
     6     6     7   ar
     7     5     8    1
     8     8     9   ar
     9     9    10   ar
    10    10    11    1
    11    11    12    1
    12    12    13    1
    13    13    14    1
    14    10    15   ar
    15    15    16   ar
    16     9    17    1
    17    17    18   ar
    18    18    19   ar
    19    19    20   ar
    20    20    21   ar
    21    21    22   ar
    22     7     2   ar
    23    16     8   ar
    24    22    17   ar
    25    14    12    1
    26     3    23    1
    27     4    24    1
    28     6    25    1
    29     7    26    1
    30    11    27    1
    31    11    28    1
    32    12    29    1
    33    13    30    1
    34    13    31    1
    35    14    32    1
    36    14    33    1
    37    15    34    1
    38    18    35    1
    39    19    36    1
    40    21    37    1
    41    22    38    1
