
     RDKit          3D

 38 41  0  0  0  0  0  0  0  0999 V2000
   -6.2513   -0.9970   -0.8330 F   0  0  0  0  0  0  0  0  0  0  0  0
   -4.9286   -0.8295   -1.0093 C   0  0  0  0  0  0  0  0  0  0  0  0
   -4.3167   -0.0767   -2.0080 C   0  0  0  0  0  0  0  0  0  0  0  0
   -2.9387    0.0239   -2.0916 C   0  0  0  0  0  0  0  0  0  0  0  0
   -2.1176   -0.6337   -1.1671 C   0  0  0  0  0  0  0  0  0  0  0  0
   -2.7560   -1.3709   -0.1907 C   0  0  0  0  0  0  0  0  0  0  0  0
   -4.1252   -1.4880   -0.0843 C   0  0  0  0  0  0  0  0  0  0  0  0
   -0.6766   -0.4878   -1.3164 C   0  0  0  0  0  0  0  0  0  0  0  0
    0.1765    0.1587   -0.4414 C   0  0  0  0  0  0  0  0  0  0  0  0
    1.4487    0.0767   -0.9297 N   0  0  0  0  0  0  0  0  0  0  0  0
    2.6522    0.6237   -0.3165 C   0  0  0  0  0  0  0  0  0  0  0  0
    3.2377   -0.4194    0.5922 C   0  0  0  0  0  0  0  0  0  0  0  0
    3.6510   -1.7164    0.0157 C   0  0  0  0  0  0  0  0  0  0  0  0
    4.6566   -0.7806    0.6161 C   0  0  0  0  0  0  0  0  0  0  0  0
    1.3990   -0.6144   -2.1008 C   0  0  0  0  0  0  0  0  0  0  0  0
    0.1266   -0.9387   -2.3090 N   0  0  0  0  0  0  0  0  0  0  0  0
   -0.1204    0.8424    0.8108 C   0  0  0  0  0  0  0  0  0  0  0  0
   -0.5645    0.3732    2.0111 C   0  0  0  0  0  0  0  0  0  0  0  0
   -0.7826    1.2239    3.0738 C   0  0  0  0  0  0  0  0  0  0  0  0
   -0.5574    2.5521    2.9418 N   0  0  0  0  0  0  0  0  0  0  0  0
   -0.1235    3.0461    1.7846 C   0  0  0  0  0  0  0  0  0  0  0  0
    0.1110    2.2178    0.6799 C   0  0  0  0  0  0  0  0  0  0  0  0
   -5.0392    0.3760   -2.6500 H   0  0  0  0  0  0  0  0  0  0  0  0
   -2.5602    0.6360   -2.9070 H   0  0  0  0  0  0  0  0  0  0  0  0
   -2.1357   -1.8854    0.5265 H   0  0  0  0  0  0  0  0  0  0  0  0
   -4.5408   -2.0855    0.7121 H   0  0  0  0  0  0  0  0  0  0  0  0
    2.4695    1.5851    0.2042 H   0  0  0  0  0  0  0  0  0  0  0  0
    3.4149    0.8582   -1.1011 H   0  0  0  0  0  0  0  0  0  0  0  0
    2.6965   -0.4706    1.5743 H   0  0  0  0  0  0  0  0  0  0  0  0
    3.3500   -2.6460    0.5463 H   0  0  0  0  0  0  0  0  0  0  0  0
    3.7831   -1.8350   -1.0888 H   0  0  0  0  0  0  0  0  0  0  0  0
    5.4013   -0.2778   -0.0200 H   0  0  0  0  0  0  0  0  0  0  0  0
    5.1063   -1.1259    1.5793 H   0  0  0  0  0  0  0  0  0  0  0  0
    2.2326   -0.8622   -2.7535 H   0  0  0  0  0  0  0  0  0  0  0  0
   -0.7090   -0.6849    2.0126 H   0  0  0  0  0  0  0  0  0  0  0  0
   -1.1373    0.6814    3.9574 H   0  0  0  0  0  0  0  0  0  0  0  0
    0.0089    4.1170    1.8342 H   0  0  0  0  0  0  0  0  0  0  0  0
    0.4587    2.8344   -0.1547 H   0  0  0  0  0  0  0  0  0  0  0  0
  1  2  1  0
  2  3  2  0
  3  4  1  0
  4  5  2  0
  5  6  1  0
  6  7  2  0
  5  8  1  0
  8  9  2  0
  9 10  1  0
 10 11  1  0
 11 12  1  0
 12 13  1  0
 13 14  1  0
 10 15  1  0
 15 16  2  0
  9 17  1  0
 17 18  2  0
 18 19  1  0
 19 20  2  0
 20 21  1  0
 21 22  2  0
  7  2  1  0
 16  8  1  0
 22 17  1  0
 14 12  1  0
  3 23  1  0
  4 24  1  0
  6 25  1  0
  7 26  1  0
 11 27  1  0
 11 28  1  0
 12 29  1  0
 13 30  1  0
 13 31  1  0
 14 32  1  0
 14 33  1  0
 15 34  1  0
 18 35  1  0
 19 36  1  0
 21 37  1  0
 22 38  1  0
M  END
$$$$
