@<TRIPOS>MOLECULE
*****
 51 54 0 0 0
SMALL
GASTEIGER

@<TRIPOS>ATOM
      1 N          -6.8880   -0.8885    0.8889 N.1     1  UNL1       -0.1908
      2 C          -6.9345   -0.9973   -0.2882 C.1     1  UNL1        0.1011
      3 C          -7.0034   -1.1072   -1.6987 C.ar    1  UNL1        0.0762
      4 C          -8.1205   -1.6914   -2.2983 C.ar    1  UNL1        0.0453
      5 N          -8.1778   -1.7900   -3.6110 N.ar    1  UNL1       -0.2620
      6 C          -7.1702   -1.3353   -4.4175 C.ar    1  UNL1        0.0280
      7 C          -6.0709   -0.7605   -3.8286 C.ar    1  UNL1       -0.0360
      8 C          -5.9604   -0.6329   -2.4615 C.ar    1  UNL1        0.0099
      9 C          -4.7369   -0.0116   -1.9060 C.3     1  UNL1        0.1161
     10 O          -3.9200   -1.0559   -1.3983 O.3     1  UNL1       -0.4843
     11 C          -2.6686   -0.7589   -0.8221 C.ar    1  UNL1        0.1571
     12 C          -1.8906   -1.7825   -0.3337 C.ar    1  UNL1        0.0743
     13 N          -0.7013   -1.5145    0.2124 N.ar    1  UNL1       -0.2191
     14 C          -0.2119   -0.2688    0.3133 C.ar    1  UNL1        0.2181
     15 N           1.0633   -0.0423    0.8978 N.pl3   1  UNL1       -0.2961
     16 C           1.5335    1.3043    1.0326 C.3     1  UNL1        0.0337
     17 C           2.7142    1.3672    1.9892 C.3     1  UNL1        0.0453
     18 C           2.2983    0.9440    3.3897 C.3     1  UNL1       -0.0310
     19 C           2.6460   -0.5252    3.5189 C.3     1  UNL1       -0.0310
     20 C           3.0358   -0.8983    2.0782 C.3     1  UNL1        0.0453
     21 C           1.7968   -1.2257    1.3161 C.3     1  UNL1        0.0337
     22 N           3.6508    0.3336    1.6687 N.am    1  UNL1       -0.2584
     23 C           4.9068    0.4672    1.0677 C.2     1  UNL1        0.4037
     24 O           5.6436   -0.5127    0.7720 O.2     1  UNL1       -0.2262
     25 O           5.4021    1.7155    0.7686 O.3     1  UNL1       -0.4412
     26 C           6.6086    2.0626    0.1890 C.3     1  UNL1        0.1886
     27 C           7.8054    1.6311    0.9998 C.3     1  UNL1        0.4237
     28 F           7.7783    2.2049    2.2714 F       1  UNL1       -0.1671
     29 F           7.9731    0.2780    1.0599 F       1  UNL1       -0.1671
     30 F           8.9322    2.1583    0.3625 F       1  UNL1       -0.1671
     31 N          -0.9812    0.7205   -0.1665 N.ar    1  UNL1       -0.2191
     32 C          -2.1912    0.5238   -0.7303 C.ar    1  UNL1        0.0743
     33 H          -8.9414   -2.0643   -1.6706 H       1  UNL1        0.0843
     34 H          -7.2841   -1.4484   -5.4768 H       1  UNL1        0.0829
     35 H          -5.2567   -0.3925   -4.4759 H       1  UNL1        0.0637
     36 H          -4.9653    0.7400   -1.1187 H       1  UNL1        0.0748
     37 H          -4.1896    0.5060   -2.7131 H       1  UNL1        0.0748
     38 H          -2.2762   -2.8139   -0.4058 H       1  UNL1        0.0869
     39 H           1.9509    1.5997    0.0333 H       1  UNL1        0.0483
     40 H           0.7756    2.0035    1.3815 H       1  UNL1        0.0483
     41 H           3.1143    2.3884    1.9463 H       1  UNL1        0.0517
     42 H           2.9820    1.5006    4.0968 H       1  UNL1        0.0284
     43 H           1.2491    1.1230    3.6062 H       1  UNL1        0.0284
     44 H           3.5489   -0.6777    4.1457 H       1  UNL1        0.0284
     45 H           1.7910   -1.1537    3.8373 H       1  UNL1        0.0284
     46 H           3.7382   -1.7547    2.0516 H       1  UNL1        0.0517
     47 H           1.9882   -1.8852    0.4533 H       1  UNL1        0.0483
     48 H           1.0827   -1.8145    1.9647 H       1  UNL1        0.0483
     49 H           6.6403    3.1933    0.0835 H       1  UNL1        0.0789
     50 H           6.7073    1.7095   -0.8684 H       1  UNL1        0.0789
     51 H          -2.8166    1.3294   -1.1181 H       1  UNL1        0.0869
@<TRIPOS>BOND
     1     1     2    3
     2     2     3    1
     3     3     4   ar
     4     4     5   ar
     5     5     6   ar
     6     6     7   ar
     7     7     8   ar
     8     8     9    1
     9     9    10    1
    10    10    11    1
    11    11    12   ar
    12    12    13   ar
    13    13    14   ar
    14    14    15    1
    15    15    16    1
    16    16    17    1
    17    17    18    1
    18    18    19    1
    19    19    20    1
    20    20    21    1
    21    20    22    1
    22    22    23   am
    23    23    24    2
    24    23    25    1
    25    25    26    1
    26    26    27    1
    27    27    28    1
    28    27    29    1
    29    27    30    1
    30    14    31   ar
    31    31    32   ar
    32     8     3   ar
    33    32    11   ar
    34    21    15    1
    35    22    17    1
    36     4    33    1
    37     6    34    1
    38     7    35    1
    39     9    36    1
    40     9    37    1
    41    12    38    1
    42    16    39    1
    43    16    40    1
    44    17    41    1
    45    18    42    1
    46    18    43    1
    47    19    44    1
    48    19    45    1
    49    20    46    1
    50    21    47    1
    51    21    48    1
    52    26    49    1
    53    26    50    1
    54    32    51    1
