
     RDKit          3D

 51 54  0  0  0  0  0  0  0  0999 V2000
   -6.8880   -0.8885    0.8889 N   0  0  0  0  0  0  0  0  0  0  0  0
   -6.9345   -0.9973   -0.2882 C   0  0  0  0  0  0  0  0  0  0  0  0
   -7.0034   -1.1072   -1.6987 C   0  0  0  0  0  0  0  0  0  0  0  0
   -8.1205   -1.6914   -2.2983 C   0  0  0  0  0  0  0  0  0  0  0  0
   -8.1778   -1.7900   -3.6110 N   0  0  0  0  0  0  0  0  0  0  0  0
   -7.1702   -1.3353   -4.4175 C   0  0  0  0  0  0  0  0  0  0  0  0
   -6.0709   -0.7605   -3.8286 C   0  0  0  0  0  0  0  0  0  0  0  0
   -5.9604   -0.6329   -2.4615 C   0  0  0  0  0  0  0  0  0  0  0  0
   -4.7369   -0.0116   -1.9060 C   0  0  0  0  0  0  0  0  0  0  0  0
   -3.9200   -1.0559   -1.3983 O   0  0  0  0  0  0  0  0  0  0  0  0
   -2.6686   -0.7589   -0.8221 C   0  0  0  0  0  0  0  0  0  0  0  0
   -1.8906   -1.7825   -0.3337 C   0  0  0  0  0  0  0  0  0  0  0  0
   -0.7013   -1.5145    0.2124 N   0  0  0  0  0  0  0  0  0  0  0  0
   -0.2119   -0.2688    0.3133 C   0  0  0  0  0  0  0  0  0  0  0  0
    1.0633   -0.0423    0.8978 N   0  0  0  0  0  0  0  0  0  0  0  0
    1.5335    1.3043    1.0326 C   0  0  0  0  0  0  0  0  0  0  0  0
    2.7142    1.3672    1.9892 C   0  0  0  0  0  0  0  0  0  0  0  0
    2.2983    0.9440    3.3897 C   0  0  0  0  0  0  0  0  0  0  0  0
    2.6460   -0.5252    3.5189 C   0  0  0  0  0  0  0  0  0  0  0  0
    3.0358   -0.8983    2.0782 C   0  0  0  0  0  0  0  0  0  0  0  0
    1.7968   -1.2257    1.3161 C   0  0  0  0  0  0  0  0  0  0  0  0
    3.6508    0.3336    1.6687 N   0  0  0  0  0  0  0  0  0  0  0  0
    4.9068    0.4672    1.0677 C   0  0  0  0  0  0  0  0  0  0  0  0
    5.6436   -0.5127    0.7720 O   0  0  0  0  0  0  0  0  0  0  0  0
    5.4021    1.7155    0.7686 O   0  0  0  0  0  0  0  0  0  0  0  0
    6.6086    2.0626    0.1890 C   0  0  0  0  0  0  0  0  0  0  0  0
    7.8054    1.6311    0.9998 C   0  0  0  0  0  0  0  0  0  0  0  0
    7.7783    2.2049    2.2714 F   0  0  0  0  0  0  0  0  0  0  0  0
    7.9731    0.2780    1.0599 F   0  0  0  0  0  0  0  0  0  0  0  0
    8.9322    2.1583    0.3625 F   0  0  0  0  0  0  0  0  0  0  0  0
   -0.9812    0.7205   -0.1665 N   0  0  0  0  0  0  0  0  0  0  0  0
   -2.1912    0.5238   -0.7303 C   0  0  0  0  0  0  0  0  0  0  0  0
   -8.9414   -2.0643   -1.6706 H   0  0  0  0  0  0  0  0  0  0  0  0
   -7.2841   -1.4484   -5.4768 H   0  0  0  0  0  0  0  0  0  0  0  0
   -5.2567   -0.3925   -4.4759 H   0  0  0  0  0  0  0  0  0  0  0  0
   -4.9653    0.7400   -1.1187 H   0  0  0  0  0  0  0  0  0  0  0  0
   -4.1896    0.5060   -2.7131 H   0  0  0  0  0  0  0  0  0  0  0  0
   -2.2762   -2.8139   -0.4058 H   0  0  0  0  0  0  0  0  0  0  0  0
    1.9509    1.5997    0.0333 H   0  0  0  0  0  0  0  0  0  0  0  0
    0.7756    2.0035    1.3815 H   0  0  0  0  0  0  0  0  0  0  0  0
    3.1143    2.3884    1.9463 H   0  0  0  0  0  0  0  0  0  0  0  0
    2.9820    1.5006    4.0968 H   0  0  0  0  0  0  0  0  0  0  0  0
    1.2491    1.1230    3.6062 H   0  0  0  0  0  0  0  0  0  0  0  0
    3.5489   -0.6777    4.1457 H   0  0  0  0  0  0  0  0  0  0  0  0
    1.7910   -1.1537    3.8373 H   0  0  0  0  0  0  0  0  0  0  0  0
    3.7382   -1.7547    2.0516 H   0  0  0  0  0  0  0  0  0  0  0  0
    1.9882   -1.8852    0.4533 H   0  0  0  0  0  0  0  0  0  0  0  0
    1.0827   -1.8145    1.9647 H   0  0  0  0  0  0  0  0  0  0  0  0
    6.6403    3.1933    0.0835 H   0  0  0  0  0  0  0  0  0  0  0  0
    6.7073    1.7095   -0.8684 H   0  0  0  0  0  0  0  0  0  0  0  0
   -2.8166    1.3294   -1.1181 H   0  0  0  0  0  0  0  0  0  0  0  0
  1  2  3  0
  2  3  1  0
  3  4  2  0
  4  5  1  0
  5  6  2  0
  6  7  1  0
  7  8  2  0
  8  9  1  0
  9 10  1  0
 10 11  1  0
 11 12  2  0
 12 13  1  0
 13 14  2  0
 14 15  1  0
 15 16  1  0
 16 17  1  0
 17 18  1  0
 18 19  1  0
 19 20  1  0
 20 21  1  0
 20 22  1  0
 22 23  1  0
 23 24  2  0
 23 25  1  0
 25 26  1  0
 26 27  1  0
 27 28  1  0
 27 29  1  0
 27 30  1  0
 14 31  1  0
 31 32  2  0
  8  3  1  0
 32 11  1  0
 21 15  1  0
 22 17  1  0
  4 33  1  0
  6 34  1  0
  7 35  1  0
  9 36  1  0
  9 37  1  0
 12 38  1  0
 16 39  1  0
 16 40  1  0
 17 41  1  0
 18 42  1  0
 18 43  1  0
 19 44  1  0
 19 45  1  0
 20 46  1  0
 21 47  1  0
 21 48  1  0
 26 49  1  0
 26 50  1  0
 32 51  1  0
M  END
$$$$
