@<TRIPOS>MOLECULE
*****
 33 35 0 0 0
SMALL
GASTEIGER

@<TRIPOS>ATOM
      1 C          -1.9743   -1.7756   -0.9651 C.3     1  UNL1       -0.0377
      2 C          -2.4534   -0.4756   -0.4603 C.ar    1  UNL1       -0.0265
      3 C          -3.7708   -0.1184   -0.5244 C.ar    1  UNL1       -0.0569
      4 C          -4.2215    1.0819   -0.0598 C.ar    1  UNL1       -0.0614
      5 C          -3.2682    1.9412    0.4909 C.ar    1  UNL1       -0.0598
      6 C          -1.9265    1.5850    0.5596 C.ar    1  UNL1       -0.0374
      7 C          -1.4898    0.3474    0.0758 C.ar    1  UNL1        0.0540
      8 N          -0.0976    0.0942    0.1995 N.ar    1  UNL1       -0.2644
      9 C           0.4367   -0.7862    1.0652 C.ar    1  UNL1        0.1144
     10 C          -0.4680   -1.5502    1.9546 C.3     1  UNL1       -0.0058
     11 N           1.7595   -1.0182    1.1738 N.ar    1  UNL1       -0.2335
     12 C           2.6457   -0.3455    0.3816 C.ar    1  UNL1        0.0782
     13 C           4.0043   -0.5871    0.4968 C.ar    1  UNL1       -0.0355
     14 C           4.8621    0.1261   -0.3349 C.ar    1  UNL1       -0.0597
     15 C           4.3255    1.0313   -1.2262 C.ar    1  UNL1       -0.0609
     16 C           2.9694    1.2716   -1.3403 C.ar    1  UNL1       -0.0473
     17 C           2.1136    0.5664   -0.5171 C.ar    1  UNL1        0.0652
     18 C           0.7431    0.7867   -0.6088 C.ar    1  UNL1        0.2663
     19 O           0.3223    1.6298   -1.4470 O.2     1  UNL1       -0.2666
     20 H          -0.9248   -1.7551   -1.3014 H       1  UNL1        0.0278
     21 H          -2.1956   -2.6167   -0.2628 H       1  UNL1        0.0278
     22 H          -2.5786   -2.0331   -1.8813 H       1  UNL1        0.0278
     23 H          -4.4635   -0.8088   -0.9543 H       1  UNL1        0.0621
     24 H          -5.2605    1.3057   -0.1364 H       1  UNL1        0.0618
     25 H          -3.6488    2.8879    0.8530 H       1  UNL1        0.0618
     26 H          -1.3095    2.3573    1.0136 H       1  UNL1        0.0638
     27 H          -0.0039   -1.7050    2.9702 H       1  UNL1        0.0308
     28 H          -0.6609   -2.5772    1.5819 H       1  UNL1        0.0308
     29 H          -1.4301   -1.0489    2.1529 H       1  UNL1        0.0308
     30 H           4.3708   -1.3134    1.2184 H       1  UNL1        0.0639
     31 H           5.9227   -0.0741   -0.2331 H       1  UNL1        0.0618
     32 H           5.0273    1.5804   -1.8707 H       1  UNL1        0.0618
     33 H           2.6433    1.9960   -2.0640 H       1  UNL1        0.0626
@<TRIPOS>BOND
     1     1     2    1
     2     2     3   ar
     3     3     4   ar
     4     4     5   ar
     5     5     6   ar
     6     6     7   ar
     7     7     8    1
     8     8     9   ar
     9     9    10    1
    10     9    11   ar
    11    11    12   ar
    12    12    13   ar
    13    13    14   ar
    14    14    15   ar
    15    15    16   ar
    16    16    17   ar
    17    17    18   ar
    18    18    19    2
    19     7     2   ar
    20    18     8   ar
    21    17    12   ar
    22     1    20    1
    23     1    21    1
    24     1    22    1
    25     3    23    1
    26     4    24    1
    27     5    25    1
    28     6    26    1
    29    10    27    1
    30    10    28    1
    31    10    29    1
    32    13    30    1
    33    14    31    1
    34    15    32    1
    35    16    33    1
