@<TRIPOS>MOLECULE
*****
 52 55 0 0 0
SMALL
GASTEIGER

@<TRIPOS>ATOM
      1 C          -4.5678   -2.4579    1.2988 C.3     1  UNL1       -0.0234
      2 C          -4.3911   -0.9441    1.0252 C.3     1  UNL1        0.1253
      3 O          -3.1360   -0.7303    0.5593 O.3     1  UNL1       -0.4810
      4 C          -2.0635   -0.0363    0.9848 C.ar    1  UNL1        0.1613
      5 C          -0.8837   -0.0657    0.1755 C.ar    1  UNL1       -0.0072
      6 C           0.2246    0.6036    0.5380 C.ar    1  UNL1        0.0068
      7 C           1.4397    0.5812   -0.2832 C.ar    1  UNL1        0.0211
      8 C           1.5627    0.4823   -1.6529 C.ar    1  UNL1        0.0571
      9 N           2.8779    0.5032   -1.9510 N.ar    1  UNL1       -0.1788
     10 N           3.6073    0.6099   -0.8504 N.ar    1  UNL1       -0.2677
     11 C           5.0608    0.6685   -0.7193 C.3     1  UNL1        0.0550
     12 C           5.7355   -0.0576   -1.8472 C.3     1  UNL1       -0.0179
     13 C           7.2193    0.0864   -1.6857 C.3     1  UNL1       -0.0022
     14 N           7.6887   -0.3917   -0.4022 N.3     1  UNL1       -0.3158
     15 C           6.9813    0.2177    0.7040 C.3     1  UNL1       -0.0022
     16 C           5.4850    0.0182    0.5787 C.3     1  UNL1       -0.0179
     17 C           2.7457    0.6591    0.1814 C.ar    1  UNL1        0.0336
     18 C           0.1843    1.3187    1.7161 C.ar    1  UNL1        0.0377
     19 N          -0.9099    1.3594    2.4880 N.ar    1  UNL1       -0.2364
     20 C          -2.0579    0.6867    2.1458 C.ar    1  UNL1        0.1583
     21 N          -3.1781    0.7806    3.0189 N.pl3   1  UNL1       -0.3402
     22 C          -5.4592   -0.5239    0.0448 C.ar    1  UNL1        0.0318
     23 C          -5.2600   -0.5485   -1.3074 C.ar    1  UNL1        0.0492
     24 CL         -3.7134   -1.0825   -1.9419 Cl      1  UNL1       -0.0831
     25 C          -6.2442   -0.1642   -2.1936 C.ar    1  UNL1       -0.0402
     26 C          -7.4636    0.2571   -1.7108 C.ar    1  UNL1       -0.0236
     27 C          -7.6834    0.2886   -0.3454 C.ar    1  UNL1        0.1421
     28 F          -8.9053    0.7124    0.0850 F       1  UNL1       -0.2039
     29 C          -6.6835   -0.1001    0.5072 C.ar    1  UNL1        0.0841
     30 CL         -7.0527   -0.0269    2.2345 Cl      1  UNL1       -0.0801
     31 H          -3.6126   -2.8087    1.7425 H       1  UNL1        0.0269
     32 H          -4.7309   -3.0075    0.3604 H       1  UNL1        0.0269
     33 H          -5.3783   -2.6381    2.0047 H       1  UNL1        0.0269
     34 H          -4.7025   -0.4808    1.9744 H       1  UNL1        0.0782
     35 H          -0.9414   -0.6479   -0.7260 H       1  UNL1        0.0662
     36 H           0.7230    0.4026   -2.3466 H       1  UNL1        0.0854
     37 H           5.4387    1.7086   -0.7216 H       1  UNL1        0.0545
     38 H           5.4612    0.4447   -2.8038 H       1  UNL1        0.0298
     39 H           5.4135   -1.1169   -1.9121 H       1  UNL1        0.0298
     40 H           7.4622    1.1714   -1.7689 H       1  UNL1        0.0425
     41 H           7.7890   -0.4754   -2.4619 H       1  UNL1        0.0425
     42 H           8.7033   -0.3666   -0.2987 H       1  UNL1        0.1219
     43 H           7.3311   -0.3044    1.6241 H       1  UNL1        0.0425
     44 H           7.1672    1.3003    0.7535 H       1  UNL1        0.0425
     45 H           5.2046   -1.0600    0.5857 H       1  UNL1        0.0298
     46 H           5.0043    0.5866    1.4086 H       1  UNL1        0.0298
     47 H           2.9729    0.7470    1.2530 H       1  UNL1        0.0832
     48 H           1.0466    1.8663    2.0419 H       1  UNL1        0.0836
     49 H          -3.9045    1.5190    2.9460 H       1  UNL1        0.1438
     50 H          -3.2859    0.0804    3.7816 H       1  UNL1        0.1438
     51 H          -6.0919   -0.1813   -3.2725 H       1  UNL1        0.0633
     52 H          -8.2292    0.5566   -2.4211 H       1  UNL1        0.0647
@<TRIPOS>BOND
     1     1     2    1
     2     2     3    1
     3     3     4    1
     4     4     5   ar
     5     5     6   ar
     6     6     7    1
     7     7     8   ar
     8     8     9   ar
     9     9    10   ar
    10    10    11    1
    11    11    12    1
    12    12    13    1
    13    13    14    1
    14    14    15    1
    15    15    16    1
    16    10    17   ar
    17     6    18   ar
    18    18    19   ar
    19    19    20   ar
    20    20    21    1
    21     2    22    1
    22    22    23   ar
    23    23    24    1
    24    23    25   ar
    25    25    26   ar
    26    26    27   ar
    27    27    28    1
    28    27    29   ar
    29    29    30    1
    30    20     4   ar
    31    29    22   ar
    32    17     7   ar
    33    16    11    1
    34     1    31    1
    35     1    32    1
    36     1    33    1
    37     2    34    1
    38     5    35    1
    39     8    36    1
    40    11    37    1
    41    12    38    1
    42    12    39    1
    43    13    40    1
    44    13    41    1
    45    14    42    1
    46    15    43    1
    47    15    44    1
    48    16    45    1
    49    16    46    1
    50    17    47    1
    51    18    48    1
    52    21    49    1
    53    21    50    1
    54    25    51    1
    55    26    52    1
