
     RDKit          3D

 52 55  0  0  0  0  0  0  0  0999 V2000
   -4.5678   -2.4579    1.2988 C   0  0  0  0  0  0  0  0  0  0  0  0
   -4.3911   -0.9441    1.0252 C   0  0  1  0  0  0  0  0  0  0  0  0
   -3.1360   -0.7303    0.5593 O   0  0  0  0  0  0  0  0  0  0  0  0
   -2.0635   -0.0363    0.9848 C   0  0  0  0  0  0  0  0  0  0  0  0
   -0.8837   -0.0657    0.1755 C   0  0  0  0  0  0  0  0  0  0  0  0
    0.2246    0.6036    0.5380 C   0  0  0  0  0  0  0  0  0  0  0  0
    1.4397    0.5812   -0.2832 C   0  0  0  0  0  0  0  0  0  0  0  0
    1.5627    0.4823   -1.6529 C   0  0  0  0  0  0  0  0  0  0  0  0
    2.8779    0.5032   -1.9510 N   0  0  0  0  0  0  0  0  0  0  0  0
    3.6073    0.6099   -0.8504 N   0  0  0  0  0  0  0  0  0  0  0  0
    5.0608    0.6685   -0.7193 C   0  0  0  0  0  0  0  0  0  0  0  0
    5.7355   -0.0576   -1.8472 C   0  0  0  0  0  0  0  0  0  0  0  0
    7.2193    0.0864   -1.6857 C   0  0  0  0  0  0  0  0  0  0  0  0
    7.6887   -0.3917   -0.4022 N   0  0  0  0  0  0  0  0  0  0  0  0
    6.9813    0.2177    0.7040 C   0  0  0  0  0  0  0  0  0  0  0  0
    5.4850    0.0182    0.5787 C   0  0  0  0  0  0  0  0  0  0  0  0
    2.7457    0.6591    0.1814 C   0  0  0  0  0  0  0  0  0  0  0  0
    0.1843    1.3187    1.7161 C   0  0  0  0  0  0  0  0  0  0  0  0
   -0.9099    1.3594    2.4880 N   0  0  0  0  0  0  0  0  0  0  0  0
   -2.0579    0.6867    2.1458 C   0  0  0  0  0  0  0  0  0  0  0  0
   -3.1781    0.7806    3.0189 N   0  0  0  0  0  0  0  0  0  0  0  0
   -5.4592   -0.5239    0.0448 C   0  0  0  0  0  0  0  0  0  0  0  0
   -5.2600   -0.5485   -1.3074 C   0  0  0  0  0  0  0  0  0  0  0  0
   -3.7134   -1.0825   -1.9419 Cl  0  0  0  0  0  0  0  0  0  0  0  0
   -6.2442   -0.1642   -2.1936 C   0  0  0  0  0  0  0  0  0  0  0  0
   -7.4636    0.2571   -1.7108 C   0  0  0  0  0  0  0  0  0  0  0  0
   -7.6834    0.2886   -0.3454 C   0  0  0  0  0  0  0  0  0  0  0  0
   -8.9053    0.7124    0.0850 F   0  0  0  0  0  0  0  0  0  0  0  0
   -6.6835   -0.1001    0.5072 C   0  0  0  0  0  0  0  0  0  0  0  0
   -7.0527   -0.0269    2.2345 Cl  0  0  0  0  0  0  0  0  0  0  0  0
   -3.6126   -2.8087    1.7425 H   0  0  0  0  0  0  0  0  0  0  0  0
   -4.7309   -3.0075    0.3604 H   0  0  0  0  0  0  0  0  0  0  0  0
   -5.3783   -2.6381    2.0047 H   0  0  0  0  0  0  0  0  0  0  0  0
   -4.7025   -0.4808    1.9744 H   0  0  0  0  0  0  0  0  0  0  0  0
   -0.9414   -0.6479   -0.7260 H   0  0  0  0  0  0  0  0  0  0  0  0
    0.7230    0.4026   -2.3466 H   0  0  0  0  0  0  0  0  0  0  0  0
    5.4387    1.7086   -0.7216 H   0  0  0  0  0  0  0  0  0  0  0  0
    5.4612    0.4447   -2.8038 H   0  0  0  0  0  0  0  0  0  0  0  0
    5.4135   -1.1169   -1.9121 H   0  0  0  0  0  0  0  0  0  0  0  0
    7.4622    1.1714   -1.7689 H   0  0  0  0  0  0  0  0  0  0  0  0
    7.7890   -0.4754   -2.4619 H   0  0  0  0  0  0  0  0  0  0  0  0
    8.7033   -0.3666   -0.2987 H   0  0  0  0  0  0  0  0  0  0  0  0
    7.3311   -0.3044    1.6241 H   0  0  0  0  0  0  0  0  0  0  0  0
    7.1672    1.3003    0.7535 H   0  0  0  0  0  0  0  0  0  0  0  0
    5.2046   -1.0600    0.5857 H   0  0  0  0  0  0  0  0  0  0  0  0
    5.0043    0.5866    1.4086 H   0  0  0  0  0  0  0  0  0  0  0  0
    2.9729    0.7470    1.2530 H   0  0  0  0  0  0  0  0  0  0  0  0
    1.0466    1.8663    2.0419 H   0  0  0  0  0  0  0  0  0  0  0  0
   -3.9045    1.5190    2.9460 H   0  0  0  0  0  0  0  0  0  0  0  0
   -3.2859    0.0804    3.7816 H   0  0  0  0  0  0  0  0  0  0  0  0
   -6.0919   -0.1813   -3.2725 H   0  0  0  0  0  0  0  0  0  0  0  0
   -8.2292    0.5566   -2.4211 H   0  0  0  0  0  0  0  0  0  0  0  0
  1  2  1  0
  2  3  1  0
  3  4  1  0
  4  5  2  0
  5  6  1  0
  6  7  1  0
  7  8  1  0
  8  9  2  0
  9 10  1  0
 10 11  1  0
 11 12  1  0
 12 13  1  0
 13 14  1  0
 14 15  1  0
 15 16  1  0
 10 17  1  0
  6 18  2  0
 18 19  1  0
 19 20  2  0
 20 21  1  0
  2 22  1  0
 22 23  2  0
 23 24  1  0
 23 25  1  0
 25 26  2  0
 26 27  1  0
 27 28  1  0
 27 29  2  0
 29 30  1  0
 20  4  1  0
 29 22  1  0
 17  7  2  0
 16 11  1  0
  1 31  1  0
  1 32  1  0
  1 33  1  0
  2 34  1  1
  5 35  1  0
  8 36  1  0
 11 37  1  0
 12 38  1  0
 12 39  1  0
 13 40  1  0
 13 41  1  0
 14 42  1  0
 15 43  1  0
 15 44  1  0
 16 45  1  0
 16 46  1  0
 17 47  1  0
 18 48  1  0
 21 49  1  0
 21 50  1  0
 25 51  1  0
 26 52  1  0
M  END
$$$$
