@<TRIPOS>MOLECULE
*****
 40 41 0 0 0
SMALL
GASTEIGER

@<TRIPOS>ATOM
      1 C          -3.0430   -3.7345    0.5520 C.3     1  UNL1       -0.0158
      2 N          -2.0354   -3.4507   -0.4128 N.3     1  UNL1       -0.3188
      3 C          -1.1098   -2.4179   -0.0814 C.3     1  UNL1       -0.0007
      4 C          -1.8264   -1.0846   -0.0806 C.3     1  UNL1        0.0010
      5 C          -0.8951    0.0617    0.2658 C.3     1  UNL1        0.1263
      6 O           0.1508    0.1292   -0.6659 O.3     1  UNL1       -0.4842
      7 C           1.4838    0.1482   -0.3638 C.ar    1  UNL1        0.1214
      8 C           1.9765    0.1102    0.9210 C.ar    1  UNL1       -0.0194
      9 C           3.3590    0.1346    1.1266 C.ar    1  UNL1       -0.0467
     10 C           4.2531    0.1950    0.0895 C.ar    1  UNL1        0.0550
     11 C           5.7239    0.2220    0.3168 C.3     1  UNL1        0.4174
     12 F           6.1737    1.4779   -0.0897 F       1  UNL1       -0.1659
     13 F           6.0354    0.0457    1.6325 F       1  UNL1       -0.1659
     14 F           6.3451   -0.7239   -0.4596 F       1  UNL1       -0.1659
     15 C           3.7552    0.2330   -1.2034 C.ar    1  UNL1       -0.0467
     16 C           2.3960    0.2092   -1.4124 C.ar    1  UNL1       -0.0194
     17 C          -1.6625    1.3517    0.1111 C.ar    1  UNL1       -0.0073
     18 C          -0.9288    2.5343    0.0059 C.ar    1  UNL1       -0.0551
     19 C          -1.5322    3.7591   -0.1319 C.ar    1  UNL1       -0.0614
     20 C          -2.9158    3.8286   -0.1678 C.ar    1  UNL1       -0.0617
     21 C          -3.6290    2.6568   -0.0631 C.ar    1  UNL1       -0.0614
     22 C          -3.0263    1.4201    0.0754 C.ar    1  UNL1       -0.0551
     23 H          -3.7036   -2.8797    0.6810 H       1  UNL1        0.0388
     24 H          -3.6900   -4.5442    0.0904 H       1  UNL1        0.0388
     25 H          -2.6767   -4.1817    1.5010 H       1  UNL1        0.0388
     26 H          -1.6662   -4.2592   -0.9217 H       1  UNL1        0.1216
     27 H          -0.2771   -2.3415   -0.8075 H       1  UNL1        0.0425
     28 H          -0.6366   -2.5464    0.9144 H       1  UNL1        0.0425
     29 H          -2.6564   -1.1682    0.6508 H       1  UNL1        0.0317
     30 H          -2.2487   -0.9334   -1.0932 H       1  UNL1        0.0317
     31 H          -0.5397   -0.0562    1.2881 H       1  UNL1        0.0785
     32 H           1.3688    0.0632    1.7858 H       1  UNL1        0.0654
     33 H           3.7426    0.1060    2.1435 H       1  UNL1        0.0624
     34 H           4.4663    0.2820   -2.0279 H       1  UNL1        0.0624
     35 H           2.0005    0.2374   -2.4402 H       1  UNL1        0.0654
     36 H           0.1500    2.4776    0.0339 H       1  UNL1        0.0621
     37 H          -0.9129    4.6323   -0.2081 H       1  UNL1        0.0618
     38 H          -3.4194    4.7832   -0.2752 H       1  UNL1        0.0618
     39 H          -4.7256    2.7021   -0.0910 H       1  UNL1        0.0618
     40 H          -3.6237    0.5210    0.1533 H       1  UNL1        0.0621
@<TRIPOS>BOND
     1     1     2    1
     2     2     3    1
     3     3     4    1
     4     4     5    1
     5     5     6    1
     6     6     7    1
     7     7     8   ar
     8     8     9   ar
     9     9    10   ar
    10    10    11    1
    11    11    12    1
    12    11    13    1
    13    11    14    1
    14    10    15   ar
    15    15    16   ar
    16     5    17    1
    17    17    18   ar
    18    18    19   ar
    19    19    20   ar
    20    20    21   ar
    21    21    22   ar
    22    16     7   ar
    23    22    17   ar
    24     1    23    1
    25     1    24    1
    26     1    25    1
    27     2    26    1
    28     3    27    1
    29     3    28    1
    30     4    29    1
    31     4    30    1
    32     5    31    1
    33     8    32    1
    34     9    33    1
    35    15    34    1
    36    16    35    1
    37    18    36    1
    38    19    37    1
    39    20    38    1
    40    21    39    1
    41    22    40    1
