@<TRIPOS>MOLECULE
*****
 47 51 0 0 0
SMALL
GASTEIGER

@<TRIPOS>ATOM
      1 C          -2.1103   -2.1405   -0.8799 C.3     1  UNL1       -0.0223
      2 C          -2.4236   -1.1489    0.2488 C.3     1  UNL1        0.1365
      3 C          -3.8912   -1.3003    0.5242 C.3     1  UNL1       -0.0085
      4 C          -4.6420   -0.9834   -0.7158 C.3     1  UNL1       -0.0258
      5 C          -4.0420   -0.0257   -1.6530 C.3     1  UNL1        0.0484
      6 O          -2.6929    0.1621   -1.6098 O.3     1  UNL1       -0.3697
      7 C          -2.2434    0.2500   -0.2860 C.3     1  UNL1        0.1304
      8 C          -0.9027    0.8375   -0.1476 C.3     1  UNL1        0.1583
      9 C          -0.4073    1.5156   -1.4103 C.3     1  UNL1        0.1244
     10 O           0.1537    2.7155   -0.9220 O.2     1  UNL1       -0.4630
     11 C          -0.4232    3.0131    0.2983 C.2     1  UNL1        0.2762
     12 N          -0.3918    4.2731    1.0009 N.pl3   1  UNL1       -0.3134
     13 N          -1.0189    1.9930    0.7584 N.2     1  UNL1       -0.2193
     14 C           0.1016   -0.0389    0.4478 C.ar    1  UNL1        0.0282
     15 C           1.4272    0.2708    0.2628 C.ar    1  UNL1       -0.0448
     16 C           2.4115   -0.5362    0.8321 C.ar    1  UNL1       -0.0158
     17 C           3.8167   -0.1592    0.6048 C.ar    1  UNL1        0.0016
     18 C           4.1552    1.1526    0.4755 C.ar    1  UNL1        0.0353
     19 N           5.4409    1.5582    0.2622 N.ar    1  UNL1       -0.2612
     20 C           6.4208    0.6427    0.1740 C.ar    1  UNL1        0.0459
     21 C           6.0883   -0.6852    0.3035 C.ar    1  UNL1        0.0596
     22 CL          7.3834   -1.8635    0.1851 Cl      1  UNL1       -0.0820
     23 C           4.7990   -1.1237    0.5193 C.ar    1  UNL1       -0.0327
     24 C           2.0682   -1.6364    1.5749 C.ar    1  UNL1       -0.0505
     25 C           0.7481   -1.9556    1.7659 C.ar    1  UNL1       -0.0190
     26 C          -0.2419   -1.1352    1.1871 C.ar    1  UNL1        0.1271
     27 O          -1.5936   -1.4165    1.3500 O.3     1  UNL1       -0.4829
     28 H          -2.1914   -1.6822   -1.8666 H       1  UNL1        0.0269
     29 H          -1.0912   -2.5891   -0.7114 H       1  UNL1        0.0269
     30 H          -2.8121   -2.9981   -0.8333 H       1  UNL1        0.0269
     31 H          -4.1504   -0.5273    1.3013 H       1  UNL1        0.0305
     32 H          -4.1062   -2.3086    0.9094 H       1  UNL1        0.0305
     33 H          -5.6510   -0.5829   -0.3999 H       1  UNL1        0.0289
     34 H          -4.8979   -1.9663   -1.2109 H       1  UNL1        0.0289
     35 H          -4.5214    0.9956   -1.5872 H       1  UNL1        0.0560
     36 H          -4.2942   -0.3588   -2.7044 H       1  UNL1        0.0560
     37 H          -3.0216    0.9171    0.2042 H       1  UNL1        0.0665
     38 H           0.3635    0.9112   -1.8963 H       1  UNL1        0.0726
     39 H          -1.2443    1.7949   -2.0728 H       1  UNL1        0.0726
     40 H           0.4404    4.4543    1.5748 H       1  UNL1        0.1466
     41 H          -1.2041    4.9057    0.8806 H       1  UNL1        0.1466
     42 H           1.7380    1.1242   -0.3143 H       1  UNL1        0.0628
     43 H           3.3968    1.9222    0.5414 H       1  UNL1        0.0836
     44 H           7.4519    0.9782    0.0024 H       1  UNL1        0.0844
     45 H           4.5366   -2.1672    0.6212 H       1  UNL1        0.0639
     46 H           2.8318   -2.2451    2.0048 H       1  UNL1        0.0625
     47 H           0.4370   -2.8126    2.3455 H       1  UNL1        0.0654
@<TRIPOS>BOND
     1     2     1    1
     2     2     3    1
     3     3     4    1
     4     4     5    1
     5     5     6    1
     6     6     7    1
     7     7     8    1
     8     8     9    1
     9     9    10    1
    10    10    11    1
    11    11    12    1
    12    11    13    2
    13     8    14    1
    14    14    15   ar
    15    15    16   ar
    16    16    17    1
    17    17    18   ar
    18    18    19   ar
    19    19    20   ar
    20    20    21   ar
    21    21    22    1
    22    21    23   ar
    23    16    24   ar
    24    24    25   ar
    25    25    26   ar
    26    26    27    1
    27     7     2    1
    28    13     8    1
    29    26    14   ar
    30    27     2    1
    31    23    17   ar
    32     1    28    1
    33     1    29    1
    34     1    30    1
    35     3    31    1
    36     3    32    1
    37     4    33    1
    38     4    34    1
    39     5    35    1
    40     5    36    1
    41     7    37    1
    42     9    38    1
    43     9    39    1
    44    12    40    1
    45    12    41    1
    46    15    42    1
    47    18    43    1
    48    20    44    1
    49    23    45    1
    50    24    46    1
    51    25    47    1
