@<TRIPOS>MOLECULE
*****
 53 58 0 0 0
SMALL
GASTEIGER

@<TRIPOS>ATOM
      1 C          -4.3748    1.4651    1.9720 C.3     1  UNL1       -0.0361
      2 C          -3.7364    0.5161    1.0310 C.ar    1  UNL1       -0.0041
      3 C          -2.3653    0.4485    0.9420 C.ar    1  UNL1       -0.0324
      4 C          -1.6794   -0.4021    0.0952 C.ar    1  UNL1        0.0545
      5 N          -0.2587   -0.4412    0.0325 N.am    1  UNL1       -0.2531
      6 C           0.5775   -1.2625   -0.7379 C.2     1  UNL1        0.2700
      7 O           0.2452   -2.1022   -1.5833 O.2     1  UNL1       -0.2679
      8 C           1.9971   -1.0041   -0.4134 C.ar    1  UNL1        0.1297
      9 C           1.9920   -0.0218    0.5477 C.ar    1  UNL1        0.0330
     10 C           3.2883    0.2358    0.9063 C.ar    1  UNL1        0.0943
     11 C           3.8021    1.2234    1.9243 C.3     1  UNL1        0.0883
     12 O           3.5948    0.7220    3.2106 O.3     1  UNL1       -0.3888
     13 N           4.0736   -0.5873    0.1616 N.ar    1  UNL1       -0.1726
     14 N           3.2815   -1.3045   -0.6062 N.ar    1  UNL1       -0.2555
     15 C           3.7435   -2.2946   -1.5484 C.3     1  UNL1        0.0537
     16 C           5.1013   -2.9560   -1.2455 C.3     1  UNL1       -0.0285
     17 C           3.8183   -3.7161   -1.1963 C.3     1  UNL1       -0.0285
     18 C           0.6098    0.4165    0.8149 C.3     1  UNL1        0.0855
     19 C           0.4618    1.8513    0.4498 C.ar    1  UNL1       -0.0221
     20 C           0.4565    2.8012    1.4426 C.ar    1  UNL1       -0.0551
     21 C           0.3195    4.1393    1.0799 C.ar    1  UNL1       -0.0431
     22 C           0.1954    4.4610   -0.2442 C.ar    1  UNL1        0.0410
     23 CL          0.0252    6.1465   -0.6717 Cl      1  UNL1       -0.0835
     24 C           0.2038    3.4805   -1.2293 C.ar    1  UNL1       -0.0431
     25 C           0.3382    2.1573   -0.8859 C.ar    1  UNL1       -0.0551
     26 C          -2.4603   -1.2328   -0.7071 C.ar    1  UNL1        0.0344
     27 N          -3.8075   -1.1842   -0.6366 N.ar    1  UNL1       -0.2846
     28 C          -4.7356   -1.9056   -1.3283 C.ar    1  UNL1        0.1347
     29 C          -4.4454   -2.9538   -2.3589 C.3     1  UNL1       -0.0041
     30 N          -5.9235   -1.4731   -0.8834 N.ar    1  UNL1       -0.1340
     31 N          -5.7507   -0.5346    0.0342 N.ar    1  UNL1       -0.1292
     32 C          -4.4383   -0.3376    0.2048 C.ar    1  UNL1        0.1641
     33 H          -4.4990    2.4859    1.5050 H       1  UNL1        0.0279
     34 H          -5.3607    1.0907    2.3195 H       1  UNL1        0.0279
     35 H          -3.7666    1.6388    2.8800 H       1  UNL1        0.0279
     36 H          -1.8104    1.1061    1.5868 H       1  UNL1        0.0640
     37 H           4.8618    1.4600    1.7149 H       1  UNL1        0.0623
     38 H           3.2533    2.1888    1.8403 H       1  UNL1        0.0623
     39 H           4.4868    0.7320    3.6709 H       1  UNL1        0.2099
     40 H           3.6392   -1.9565   -2.6108 H       1  UNL1        0.0545
     41 H           5.5962   -2.6204   -0.3110 H       1  UNL1        0.0286
     42 H           5.7641   -3.1523   -2.1004 H       1  UNL1        0.0286
     43 H           3.4487   -3.9968   -0.1938 H       1  UNL1        0.0286
     44 H           3.6459   -4.4622   -2.0044 H       1  UNL1        0.0286
     45 H           0.3146    0.3031    1.8750 H       1  UNL1        0.0606
     46 H           0.5554    2.5283    2.4817 H       1  UNL1        0.0621
     47 H           0.3187    4.8550    1.8764 H       1  UNL1        0.0632
     48 H           0.1036    3.7742   -2.2599 H       1  UNL1        0.0632
     49 H           0.3499    1.3563   -1.6251 H       1  UNL1        0.0621
     50 H          -2.0145   -1.9223   -1.3919 H       1  UNL1        0.0833
     51 H          -4.1547   -2.5184   -3.3306 H       1  UNL1        0.0308
     52 H          -5.2947   -3.6390   -2.4821 H       1  UNL1        0.0308
     53 H          -3.5872   -3.6019   -2.0133 H       1  UNL1        0.0308
@<TRIPOS>BOND
     1     1     2    1
     2     2     3   ar
     3     3     4   ar
     4     4     5    1
     5     5     6   am
     6     6     7    2
     7     6     8    1
     8     8     9   ar
     9     9    10   ar
    10    10    11    1
    11    11    12    1
    12    10    13   ar
    13    13    14   ar
    14    14    15    1
    15    15    16    1
    16    16    17    1
    17     9    18    1
    18    18    19    1
    19    19    20   ar
    20    20    21   ar
    21    21    22   ar
    22    22    23    1
    23    22    24   ar
    24    24    25   ar
    25     4    26   ar
    26    26    27   ar
    27    27    28   ar
    28    28    29    1
    29    28    30   ar
    30    30    31   ar
    31    31    32   ar
    32    32     2   ar
    33    18     5    1
    34    25    19   ar
    35    32    27   ar
    36    14     8   ar
    37    17    15    1
    38     1    33    1
    39     1    34    1
    40     1    35    1
    41     3    36    1
    42    11    37    1
    43    11    38    1
    44    12    39    1
    45    15    40    1
    46    16    41    1
    47    16    42    1
    48    17    43    1
    49    17    44    1
    50    18    45    1
    51    20    46    1
    52    21    47    1
    53    24    48    1
    54    25    49    1
    55    26    50    1
    56    29    51    1
    57    29    52    1
    58    29    53    1
