@<TRIPOS>MOLECULE
*****
 48 51 0 0 0
SMALL
GASTEIGER

@<TRIPOS>ATOM
      1 N           6.1948   -3.0854   -0.6036 N.3     1  UNL1       -0.2030
      2 S           6.3681   -1.4842    0.0180 S.O2    1  UNL1        0.0623
      3 O           7.2267   -0.6930   -0.9280 O.2     1  UNL1       -0.1527
      4 O           7.0377   -1.5772    1.3488 O.2     1  UNL1       -0.1527
      5 C           4.7946   -0.7980    0.1278 C.ar    1  UNL1        0.1446
      6 C           3.5061   -1.2488   -0.1870 C.ar    1  UNL1       -0.0189
      7 C           2.4590   -0.4005    0.0369 C.ar    1  UNL1        0.0123
      8 C           2.7752    0.8943    0.5837 C.ar    1  UNL1        0.1552
      9 S           4.5928    0.8086    0.7418 S.2     1  UNL1       -0.0478
     10 S           1.5433    2.0410    0.9393 S.O2    1  UNL1        0.0855
     11 O           1.3871    2.1649    2.4477 O.2     1  UNL1       -0.1489
     12 O           1.7666    3.3769    0.3438 O.2     1  UNL1       -0.1489
     13 N           0.0612    1.3278    0.3485 N.pl3   1  UNL1       -0.1739
     14 C           0.0685    0.0051   -0.1475 C.2     1  UNL1        0.0490
     15 C          -1.3301   -0.3461   -0.4262 C.3     1  UNL1        0.0392
     16 N          -1.5324   -1.7235   -0.8672 N.3     1  UNL1       -0.2925
     17 C          -2.9484   -1.7936   -1.2164 C.3     1  UNL1        0.0228
     18 C          -3.8644   -1.6739   -0.0426 C.3     1  UNL1        0.0604
     19 O          -3.4037   -2.3878    1.0642 O.3     1  UNL1       -0.3772
     20 C          -2.5111   -3.3529    0.6064 C.3     1  UNL1        0.0604
     21 C          -1.2292   -2.6563    0.2081 C.3     1  UNL1        0.0228
     22 C           1.1023   -0.7638   -0.2945 C.2     1  UNL1       -0.0319
     23 C          -0.9231    2.2982    0.4926 C.ar    1  UNL1        0.0600
     24 C          -0.9670    3.0765   -0.6577 C.ar    1  UNL1        0.0029
     25 C          -1.8383    4.1532   -0.8483 C.ar    1  UNL1        0.1187
     26 O          -1.9548    4.9694   -1.9354 O.3     1  UNL1       -0.5067
     27 C          -2.7044    4.4221    0.2229 C.ar    1  UNL1       -0.0201
     28 C          -2.6859    3.6625    1.3877 C.ar    1  UNL1       -0.0565
     29 C          -1.8074    2.6129    1.5243 C.ar    1  UNL1       -0.0384
     30 H           5.3517   -3.1220   -1.2295 H       1  UNL1        0.1443
     31 H           5.9448   -3.7414    0.1921 H       1  UNL1        0.1443
     32 H           3.5589   -2.2511   -0.5782 H       1  UNL1        0.0649
     33 H          -1.9795   -0.2064    0.4644 H       1  UNL1        0.0489
     34 H          -1.6894    0.3027   -1.2510 H       1  UNL1        0.0489
     35 H          -3.1463   -0.8987   -1.8823 H       1  UNL1        0.0449
     36 H          -3.1870   -2.6586   -1.8518 H       1  UNL1        0.0449
     37 H          -4.8533   -2.1181   -0.3587 H       1  UNL1        0.0572
     38 H          -4.0944   -0.6309    0.2320 H       1  UNL1        0.0572
     39 H          -2.9377   -3.8732   -0.2538 H       1  UNL1        0.0572
     40 H          -2.3148   -4.1079    1.4029 H       1  UNL1        0.0572
     41 H          -0.7581   -2.1449    1.0816 H       1  UNL1        0.0449
     42 H          -0.5427   -3.4811   -0.0947 H       1  UNL1        0.0449
     43 H           0.8000   -1.7046   -0.7158 H       1  UNL1        0.0640
     44 H          -0.3586    2.9855   -1.5639 H       1  UNL1        0.0673
     45 H          -2.5438    4.8553   -2.7386 H       1  UNL1        0.2921
     46 H          -3.4400    5.2087    0.2609 H       1  UNL1        0.0654
     47 H          -3.3258    3.8230    2.2418 H       1  UNL1        0.0619
     48 H          -1.6677    1.9351    2.3543 H       1  UNL1        0.0637
@<TRIPOS>BOND
     1     1     2    1
     2     2     3    2
     3     2     4    2
     4     2     5    1
     5     5     6   ar
     6     6     7   ar
     7     7     8   ar
     8     8     9   ar
     9     8    10    1
    10    10    11    2
    11    10    12    2
    12    10    13    1
    13    13    14    1
    14    14    15    1
    15    15    16    1
    16    16    17    1
    17    17    18    1
    18    18    19    1
    19    19    20    1
    20    20    21    1
    21    14    22    2
    22    13    23    1
    23    23    24   ar
    24    24    25   ar
    25    25    26    1
    26    25    27   ar
    27    27    28   ar
    28    28    29   ar
    29     9     5   ar
    30    21    16    1
    31    29    23   ar
    32    22     7    1
    33     1    30    1
    34     1    31    1
    35     6    32    1
    36    15    33    1
    37    15    34    1
    38    17    35    1
    39    17    36    1
    40    18    37    1
    41    18    38    1
    42    20    39    1
    43    20    40    1
    44    21    41    1
    45    21    42    1
    46    22    43    1
    47    24    44    1
    48    26    45    1
    49    27    46    1
    50    28    47    1
    51    29    48    1
