
     RDKit          3D

 48 51  0  0  0  0  0  0  0  0999 V2000
    6.1948   -3.0854   -0.6036 N   0  0  0  0  0  0  0  0  0  0  0  0
    6.3681   -1.4842    0.0180 S   0  0  0  0  0  0  0  0  0  0  0  0
    7.2267   -0.6930   -0.9280 O   0  0  0  0  0  0  0  0  0  0  0  0
    7.0377   -1.5772    1.3488 O   0  0  0  0  0  0  0  0  0  0  0  0
    4.7946   -0.7980    0.1278 C   0  0  0  0  0  0  0  0  0  0  0  0
    3.5061   -1.2488   -0.1870 C   0  0  0  0  0  0  0  0  0  0  0  0
    2.4590   -0.4005    0.0369 C   0  0  0  0  0  0  0  0  0  0  0  0
    2.7752    0.8943    0.5837 C   0  0  0  0  0  0  0  0  0  0  0  0
    4.5928    0.8086    0.7418 S   0  0  0  0  0  0  0  0  0  0  0  0
    1.5433    2.0410    0.9393 S   0  0  0  0  0  0  0  0  0  0  0  0
    1.3871    2.1649    2.4477 O   0  0  0  0  0  0  0  0  0  0  0  0
    1.7666    3.3769    0.3438 O   0  0  0  0  0  0  0  0  0  0  0  0
    0.0612    1.3278    0.3485 N   0  0  0  0  0  0  0  0  0  0  0  0
    0.0685    0.0051   -0.1475 C   0  0  0  0  0  0  0  0  0  0  0  0
   -1.3301   -0.3461   -0.4262 C   0  0  0  0  0  0  0  0  0  0  0  0
   -1.5324   -1.7235   -0.8672 N   0  0  0  0  0  0  0  0  0  0  0  0
   -2.9484   -1.7936   -1.2164 C   0  0  0  0  0  0  0  0  0  0  0  0
   -3.8644   -1.6739   -0.0426 C   0  0  0  0  0  0  0  0  0  0  0  0
   -3.4037   -2.3878    1.0642 O   0  0  0  0  0  0  0  0  0  0  0  0
   -2.5111   -3.3529    0.6064 C   0  0  0  0  0  0  0  0  0  0  0  0
   -1.2292   -2.6563    0.2081 C   0  0  0  0  0  0  0  0  0  0  0  0
    1.1023   -0.7638   -0.2945 C   0  0  0  0  0  0  0  0  0  0  0  0
   -0.9231    2.2982    0.4926 C   0  0  0  0  0  0  0  0  0  0  0  0
   -0.9670    3.0765   -0.6577 C   0  0  0  0  0  0  0  0  0  0  0  0
   -1.8383    4.1532   -0.8483 C   0  0  0  0  0  0  0  0  0  0  0  0
   -1.9548    4.9694   -1.9354 O   0  0  0  0  0  0  0  0  0  0  0  0
   -2.7044    4.4221    0.2229 C   0  0  0  0  0  0  0  0  0  0  0  0
   -2.6859    3.6625    1.3877 C   0  0  0  0  0  0  0  0  0  0  0  0
   -1.8074    2.6129    1.5243 C   0  0  0  0  0  0  0  0  0  0  0  0
    5.3517   -3.1220   -1.2295 H   0  0  0  0  0  0  0  0  0  0  0  0
    5.9448   -3.7414    0.1921 H   0  0  0  0  0  0  0  0  0  0  0  0
    3.5589   -2.2511   -0.5782 H   0  0  0  0  0  0  0  0  0  0  0  0
   -1.9795   -0.2064    0.4644 H   0  0  0  0  0  0  0  0  0  0  0  0
   -1.6894    0.3027   -1.2510 H   0  0  0  0  0  0  0  0  0  0  0  0
   -3.1463   -0.8987   -1.8823 H   0  0  0  0  0  0  0  0  0  0  0  0
   -3.1870   -2.6586   -1.8518 H   0  0  0  0  0  0  0  0  0  0  0  0
   -4.8533   -2.1181   -0.3587 H   0  0  0  0  0  0  0  0  0  0  0  0
   -4.0944   -0.6309    0.2320 H   0  0  0  0  0  0  0  0  0  0  0  0
   -2.9377   -3.8732   -0.2538 H   0  0  0  0  0  0  0  0  0  0  0  0
   -2.3148   -4.1079    1.4029 H   0  0  0  0  0  0  0  0  0  0  0  0
   -0.7581   -2.1449    1.0816 H   0  0  0  0  0  0  0  0  0  0  0  0
   -0.5427   -3.4811   -0.0947 H   0  0  0  0  0  0  0  0  0  0  0  0
    0.8000   -1.7046   -0.7158 H   0  0  0  0  0  0  0  0  0  0  0  0
   -0.3586    2.9855   -1.5639 H   0  0  0  0  0  0  0  0  0  0  0  0
   -2.5438    4.8553   -2.7386 H   0  0  0  0  0  0  0  0  0  0  0  0
   -3.4400    5.2087    0.2609 H   0  0  0  0  0  0  0  0  0  0  0  0
   -3.3258    3.8230    2.2418 H   0  0  0  0  0  0  0  0  0  0  0  0
   -1.6677    1.9351    2.3543 H   0  0  0  0  0  0  0  0  0  0  0  0
  1  2  1  0
  2  3  2  0
  2  4  2  0
  2  5  1  0
  5  6  2  0
  6  7  1  0
  7  8  2  0
  8  9  1  0
  8 10  1  0
 10 11  2  0
 10 12  2  0
 10 13  1  0
 13 14  1  0
 14 15  1  0
 15 16  1  0
 16 17  1  0
 17 18  1  0
 18 19  1  0
 19 20  1  0
 20 21  1  0
 14 22  2  0
 13 23  1  0
 23 24  2  0
 24 25  1  0
 25 26  1  0
 25 27  2  0
 27 28  1  0
 28 29  2  0
  9  5  1  0
 21 16  1  0
 29 23  1  0
 22  7  1  0
  1 30  1  0
  1 31  1  0
  6 32  1  0
 15 33  1  0
 15 34  1  0
 17 35  1  0
 17 36  1  0
 18 37  1  0
 18 38  1  0
 20 39  1  0
 20 40  1  0
 21 41  1  0
 21 42  1  0
 22 43  1  0
 24 44  1  0
 26 45  1  0
 27 46  1  0
 28 47  1  0
 29 48  1  0
M  END
$$$$
