@<TRIPOS>MOLECULE
*****
 35 35 0 0 0
SMALL
GASTEIGER

@<TRIPOS>ATOM
      1 C           5.0575   -0.1332   -0.9632 C.3     1  UNL1        0.0060
      2 N           4.0395    0.3118   -0.0230 N.am    1  UNL1       -0.2732
      3 C           4.3628    1.3457    0.9400 C.3     1  UNL1        0.0060
      4 C           2.7628   -0.3154   -0.1164 C.2     1  UNL1        0.4077
      5 O           3.0002   -1.0991   -1.0656 O.2     1  UNL1       -0.2258
      6 O           1.8052    0.1002    0.7650 O.3     1  UNL1       -0.4112
      7 C           0.5167   -0.3446    0.8729 C.ar    1  UNL1        0.1393
      8 C          -0.5835    0.1742    0.2067 C.ar    1  UNL1        0.0460
      9 C          -1.8555   -0.3532    0.3877 C.ar    1  UNL1        0.1489
     10 C          -1.9712   -1.4158    1.2602 C.ar    1  UNL1        0.0039
     11 C          -0.9030   -1.9570    1.9386 C.ar    1  UNL1       -0.0523
     12 C           0.3562   -1.4140    1.7418 C.ar    1  UNL1       -0.0188
     13 N          -2.8743    0.2676   -0.3475 N.pl3   1  UNL1       -0.3830
     14 C          -3.9811   -0.6365   -0.5487 C.3     1  UNL1        0.0812
     15 C          -3.3530    1.4240    0.4090 C.3     1  UNL1        0.0812
     16 C          -2.3939    0.6710   -1.6422 C.3     1  UNL1        0.0812
     17 H           5.9199    0.5486   -0.9981 H       1  UNL1        0.0429
     18 H           5.3378   -1.1721   -0.6257 H       1  UNL1        0.0429
     19 H           4.5506   -0.2776   -1.9393 H       1  UNL1        0.0429
     20 H           5.4516    1.3379    1.1402 H       1  UNL1        0.0429
     21 H           3.8632    1.2064    1.9210 H       1  UNL1        0.0429
     22 H           4.1142    2.3545    0.5695 H       1  UNL1        0.0429
     23 H          -0.3191    0.9952   -0.4311 H       1  UNL1        0.0718
     24 H          -2.9651   -1.8102    1.3867 H       1  UNL1        0.0681
     25 H          -1.0360   -2.7866    2.6109 H       1  UNL1        0.0621
     26 H           1.1670   -1.8731    2.2974 H       1  UNL1        0.0654
     27 H          -4.4740   -0.8392    0.4162 H       1  UNL1        0.0931
     28 H          -4.7413   -0.2452   -1.2350 H       1  UNL1        0.0931
     29 H          -3.5999   -1.5790   -1.0093 H       1  UNL1        0.0931
     30 H          -4.1982    1.9381   -0.0968 H       1  UNL1        0.0931
     31 H          -3.7443    1.0585    1.3853 H       1  UNL1        0.0931
     32 H          -2.4683    2.0824    0.5416 H       1  UNL1        0.0931
     33 H          -1.8811    1.6693   -1.5590 H       1  UNL1        0.0931
     34 H          -1.6689   -0.0276   -2.0801 H       1  UNL1        0.0931
     35 H          -3.2937    0.7937   -2.2955 H       1  UNL1        0.0931
@<TRIPOS>UNITY_ATOM_ATTR
13 1
charge 1
@<TRIPOS>BOND
     1     1     2    1
     2     2     3    1
     3     2     4   am
     4     4     5    2
     5     4     6    1
     6     6     7    1
     7     7     8   ar
     8     8     9   ar
     9     9    10   ar
    10    10    11   ar
    11    11    12   ar
    12     9    13    1
    13    13    14    1
    14    13    15    1
    15    13    16    1
    16    12     7   ar
    17     1    17    1
    18     1    18    1
    19     1    19    1
    20     3    20    1
    21     3    21    1
    22     3    22    1
    23     8    23    1
    24    10    24    1
    25    11    25    1
    26    12    26    1
    27    14    27    1
    28    14    28    1
    29    14    29    1
    30    15    30    1
    31    15    31    1
    32    15    32    1
    33    16    33    1
    34    16    34    1
    35    16    35    1
