@<TRIPOS>MOLECULE
*****
 51 53 0 0 0
SMALL
GASTEIGER

@<TRIPOS>ATOM
      1 C           0.1241   -5.6055   -0.4353 C.3     1  UNL1       -0.0307
      2 C           0.9752   -4.4434   -0.8562 C.3     1  UNL1        0.0868
      3 O           0.3898   -3.2110   -0.5770 O.3     1  UNL1       -0.4915
      4 C           1.0276   -2.0299   -0.8946 C.ar    1  UNL1        0.1311
      5 C           2.2874   -2.1231   -1.5093 C.ar    1  UNL1       -0.0190
      6 C           2.9800   -1.0152   -1.8530 C.ar    1  UNL1       -0.0551
      7 C           2.4275    0.2378   -1.5895 C.ar    1  UNL1       -0.0460
      8 C           3.1055    1.4796   -1.9567 C.3     1  UNL1       -0.0193
      9 C           4.1461    2.0008   -1.0612 C.3     1  UNL1        0.0299
     10 C           3.8048    2.3376    0.3095 C.2     1  UNL1        0.2357
     11 O           2.6526    2.1962    0.7506 O.2     1  UNL1       -0.2737
     12 N           4.8203    2.8515    1.1961 N.am    1  UNL1       -0.1975
     13 O           4.4396    3.1445    2.4570 O.3     1  UNL1       -0.2952
     14 C           1.1948    0.3059   -0.9890 C.ar    1  UNL1       -0.0444
     15 C           0.4510   -0.8262   -0.6194 C.ar    1  UNL1        0.0592
     16 C          -0.8426   -0.6191    0.0157 C.ar    1  UNL1        0.1451
     17 N          -1.2933    0.6469    0.2180 N.ar    1  UNL1       -0.2254
     18 C          -2.4589    0.8983    0.7887 C.ar    1  UNL1        0.1192
     19 C          -3.1654    2.0516    1.1189 C.ar    1  UNL1        0.0889
     20 C          -2.6833    3.4156    0.8601 C.3     1  UNL1       -0.0094
     21 C          -2.8663    3.6784   -0.6297 C.3     1  UNL1       -0.0597
     22 N          -4.3009    1.6667    1.6847 N.ar    1  UNL1       -0.1736
     23 N          -4.3925    0.3546    1.7506 N.ar    1  UNL1       -0.2598
     24 C          -5.5232   -0.3663    2.3200 C.3     1  UNL1        0.0311
     25 C          -3.2747   -0.1341    1.2072 C.ar    1  UNL1        0.1513
     26 C          -2.8342   -1.4198    1.0102 C.ar    1  UNL1        0.2775
     27 O          -3.5534   -2.3647    1.3797 O.2     1  UNL1       -0.2655
     28 N          -1.6205   -1.6101    0.4149 N.ar    1  UNL1       -0.3051
     29 H           0.7750   -6.5097   -0.3129 H       1  UNL1        0.0262
     30 H          -0.6173   -5.8377   -1.2331 H       1  UNL1        0.0262
     31 H          -0.3700   -5.4038    0.5268 H       1  UNL1        0.0262
     32 H           1.1639   -4.4963   -1.9545 H       1  UNL1        0.0694
     33 H           1.9723   -4.5209   -0.3687 H       1  UNL1        0.0694
     34 H           2.7105   -3.1142   -1.7108 H       1  UNL1        0.0654
     35 H           3.9470   -1.0152   -2.3252 H       1  UNL1        0.0621
     36 H           2.3132    2.2736   -2.0807 H       1  UNL1        0.0318
     37 H           3.5164    1.3846   -3.0092 H       1  UNL1        0.0318
     38 H           4.5227    2.9691   -1.5295 H       1  UNL1        0.0362
     39 H           5.0762    1.3793   -1.0303 H       1  UNL1        0.0362
     40 H           5.8087    2.9871    0.8634 H       1  UNL1        0.1822
     41 H           4.9241    2.5541    3.0651 H       1  UNL1        0.2414
     42 H           0.7162    1.2777   -0.7851 H       1  UNL1        0.0628
     43 H          -1.6240    3.5592    1.1074 H       1  UNL1        0.0327
     44 H          -3.3182    4.1770    1.3882 H       1  UNL1        0.0327
     45 H          -2.7828    4.7452   -0.8777 H       1  UNL1        0.0233
     46 H          -2.0343    3.1452   -1.1411 H       1  UNL1        0.0233
     47 H          -3.8496    3.2296   -0.8945 H       1  UNL1        0.0233
     48 H          -6.0360   -0.9726    1.5747 H       1  UNL1        0.0473
     49 H          -6.2466    0.3440    2.7629 H       1  UNL1        0.0473
     50 H          -5.2091   -1.0397    3.1436 H       1  UNL1        0.0473
     51 H          -1.3752   -2.6130    0.3106 H       1  UNL1        0.1704
@<TRIPOS>BOND
     1     1     2    1
     2     2     3    1
     3     3     4    1
     4     4     5   ar
     5     5     6   ar
     6     6     7   ar
     7     7     8    1
     8     8     9    1
     9     9    10    1
    10    10    11    2
    11    10    12   am
    12    12    13    1
    13     7    14   ar
    14    14    15   ar
    15    15    16    1
    16    16    17   ar
    17    17    18   ar
    18    18    19   ar
    19    19    20    1
    20    20    21    1
    21    19    22   ar
    22    22    23   ar
    23    23    24    1
    24    23    25   ar
    25    25    26   ar
    26    26    27    2
    27    26    28   ar
    28    15     4   ar
    29    28    16   ar
    30    25    18   ar
    31     1    29    1
    32     1    30    1
    33     1    31    1
    34     2    32    1
    35     2    33    1
    36     5    34    1
    37     6    35    1
    38     8    36    1
    39     8    37    1
    40     9    38    1
    41     9    39    1
    42    12    40    1
    43    13    41    1
    44    14    42    1
    45    20    43    1
    46    20    44    1
    47    21    45    1
    48    21    46    1
    49    21    47    1
    50    24    48    1
    51    24    49    1
    52    24    50    1
    53    28    51    1
