
     RDKit          3D

 51 53  0  0  0  0  0  0  0  0999 V2000
    0.1241   -5.6055   -0.4353 C   0  0  0  0  0  0  0  0  0  0  0  0
    0.9752   -4.4434   -0.8562 C   0  0  0  0  0  0  0  0  0  0  0  0
    0.3898   -3.2110   -0.5770 O   0  0  0  0  0  0  0  0  0  0  0  0
    1.0276   -2.0299   -0.8946 C   0  0  0  0  0  0  0  0  0  0  0  0
    2.2874   -2.1231   -1.5093 C   0  0  0  0  0  0  0  0  0  0  0  0
    2.9800   -1.0152   -1.8530 C   0  0  0  0  0  0  0  0  0  0  0  0
    2.4275    0.2378   -1.5895 C   0  0  0  0  0  0  0  0  0  0  0  0
    3.1055    1.4796   -1.9567 C   0  0  0  0  0  0  0  0  0  0  0  0
    4.1461    2.0008   -1.0612 C   0  0  0  0  0  0  0  0  0  0  0  0
    3.8048    2.3376    0.3095 C   0  0  0  0  0  0  0  0  0  0  0  0
    2.6526    2.1962    0.7506 O   0  0  0  0  0  0  0  0  0  0  0  0
    4.8203    2.8515    1.1961 N   0  0  0  0  0  0  0  0  0  0  0  0
    4.4396    3.1445    2.4570 O   0  0  0  0  0  0  0  0  0  0  0  0
    1.1948    0.3059   -0.9890 C   0  0  0  0  0  0  0  0  0  0  0  0
    0.4510   -0.8262   -0.6194 C   0  0  0  0  0  0  0  0  0  0  0  0
   -0.8426   -0.6191    0.0157 C   0  0  0  0  0  0  0  0  0  0  0  0
   -1.2933    0.6469    0.2180 N   0  0  0  0  0  0  0  0  0  0  0  0
   -2.4589    0.8983    0.7887 C   0  0  0  0  0  0  0  0  0  0  0  0
   -3.1654    2.0516    1.1189 C   0  0  0  0  0  0  0  0  0  0  0  0
   -2.6833    3.4156    0.8601 C   0  0  0  0  0  0  0  0  0  0  0  0
   -2.8663    3.6784   -0.6297 C   0  0  0  0  0  0  0  0  0  0  0  0
   -4.3009    1.6667    1.6847 N   0  0  0  0  0  0  0  0  0  0  0  0
   -4.3925    0.3546    1.7506 N   0  0  0  0  0  0  0  0  0  0  0  0
   -5.5232   -0.3663    2.3200 C   0  0  0  0  0  0  0  0  0  0  0  0
   -3.2747   -0.1341    1.2072 C   0  0  0  0  0  0  0  0  0  0  0  0
   -2.8342   -1.4198    1.0102 C   0  0  0  0  0  0  0  0  0  0  0  0
   -3.5534   -2.3647    1.3797 O   0  0  0  0  0  0  0  0  0  0  0  0
   -1.6205   -1.6101    0.4149 N   0  0  0  0  0  0  0  0  0  0  0  0
    0.7750   -6.5097   -0.3129 H   0  0  0  0  0  0  0  0  0  0  0  0
   -0.6173   -5.8377   -1.2331 H   0  0  0  0  0  0  0  0  0  0  0  0
   -0.3700   -5.4038    0.5268 H   0  0  0  0  0  0  0  0  0  0  0  0
    1.1639   -4.4963   -1.9545 H   0  0  0  0  0  0  0  0  0  0  0  0
    1.9723   -4.5209   -0.3687 H   0  0  0  0  0  0  0  0  0  0  0  0
    2.7105   -3.1142   -1.7108 H   0  0  0  0  0  0  0  0  0  0  0  0
    3.9470   -1.0152   -2.3252 H   0  0  0  0  0  0  0  0  0  0  0  0
    2.3132    2.2736   -2.0807 H   0  0  0  0  0  0  0  0  0  0  0  0
    3.5164    1.3846   -3.0092 H   0  0  0  0  0  0  0  0  0  0  0  0
    4.5227    2.9691   -1.5295 H   0  0  0  0  0  0  0  0  0  0  0  0
    5.0762    1.3793   -1.0303 H   0  0  0  0  0  0  0  0  0  0  0  0
    5.8087    2.9871    0.8634 H   0  0  0  0  0  0  0  0  0  0  0  0
    4.9241    2.5541    3.0651 H   0  0  0  0  0  0  0  0  0  0  0  0
    0.7162    1.2777   -0.7851 H   0  0  0  0  0  0  0  0  0  0  0  0
   -1.6240    3.5592    1.1074 H   0  0  0  0  0  0  0  0  0  0  0  0
   -3.3182    4.1770    1.3882 H   0  0  0  0  0  0  0  0  0  0  0  0
   -2.7828    4.7452   -0.8777 H   0  0  0  0  0  0  0  0  0  0  0  0
   -2.0343    3.1452   -1.1411 H   0  0  0  0  0  0  0  0  0  0  0  0
   -3.8496    3.2296   -0.8945 H   0  0  0  0  0  0  0  0  0  0  0  0
   -6.0360   -0.9726    1.5747 H   0  0  0  0  0  0  0  0  0  0  0  0
   -6.2466    0.3440    2.7629 H   0  0  0  0  0  0  0  0  0  0  0  0
   -5.2091   -1.0397    3.1436 H   0  0  0  0  0  0  0  0  0  0  0  0
   -1.3752   -2.6130    0.3106 H   0  0  0  0  0  0  0  0  0  0  0  0
  1  2  1  0
  2  3  1  0
  3  4  1  0
  4  5  2  0
  5  6  1  0
  6  7  2  0
  7  8  1  0
  8  9  1  0
  9 10  1  0
 10 11  2  0
 10 12  1  0
 12 13  1  0
  7 14  1  0
 14 15  2  0
 15 16  1  0
 16 17  2  0
 17 18  1  0
 18 19  1  0
 19 20  1  0
 20 21  1  0
 19 22  2  0
 22 23  1  0
 23 24  1  0
 23 25  1  0
 25 26  1  0
 26 27  2  0
 26 28  1  0
 15  4  1  0
 28 16  1  0
 25 18  2  0
  1 29  1  0
  1 30  1  0
  1 31  1  0
  2 32  1  0
  2 33  1  0
  5 34  1  0
  6 35  1  0
  8 36  1  0
  8 37  1  0
  9 38  1  0
  9 39  1  0
 12 40  1  0
 13 41  1  0
 14 42  1  0
 20 43  1  0
 20 44  1  0
 21 45  1  0
 21 46  1  0
 21 47  1  0
 24 48  1  0
 24 49  1  0
 24 50  1  0
 28 51  1  0
M  END
$$$$
