
     RDKit          3D

 45 48  0  0  0  0  0  0  0  0999 V2000
   -1.2379   -3.4638    1.4346 C   0  0  0  0  0  0  0  0  0  0  0  0
   -1.8076   -2.2279    0.9420 N   0  0  0  0  0  0  0  0  0  0  0  0
   -1.1094   -1.2928    0.3241 C   0  0  0  0  0  0  0  0  0  0  0  0
    0.2597   -1.4315    0.0107 N   0  0  0  0  0  0  0  0  0  0  0  0
    1.1252   -2.5608    0.0541 C   0  0  0  0  0  0  0  0  0  0  0  0
    2.2014   -2.4485   -1.0544 C   0  0  0  0  0  0  0  0  0  0  0  0
    3.0099   -1.3530   -0.8874 O   0  0  0  0  0  0  0  0  0  0  0  0
    2.4211   -0.4135   -0.0212 C   0  0  1  0  0  0  0  0  0  0  0  0
    3.2613    0.7907   -0.0417 C   0  0  0  0  0  0  0  0  0  0  0  0
    2.7778    2.0684   -0.1321 C   0  0  0  0  0  0  0  0  0  0  0  0
    3.6918    3.1144   -0.1428 C   0  0  0  0  0  0  0  0  0  0  0  0
    5.0470    2.8875   -0.0655 C   0  0  0  0  0  0  0  0  0  0  0  0
    5.9490    3.9178   -0.0761 F   0  0  0  0  0  0  0  0  0  0  0  0
    5.5450    1.6038    0.0261 C   0  0  0  0  0  0  0  0  0  0  0  0
    4.6373    0.5790    0.0359 C   0  0  0  0  0  0  0  0  0  0  0  0
    0.9925   -0.1924   -0.4454 C   0  0  0  0  0  0  0  0  0  0  0  0
   -1.7339   -0.1222   -0.0880 N   0  0  0  0  0  0  0  0  0  0  0  0
   -3.0300    0.1007    0.1157 C   0  0  0  0  0  0  0  0  0  0  0  0
   -3.6665    1.3506   -0.3350 C   0  0  0  0  0  0  0  0  0  0  0  0
   -4.9882    1.6540   -0.1648 C   0  0  0  0  0  0  0  0  0  0  0  0
   -5.5402    2.8554   -0.6126 C   0  0  0  0  0  0  0  0  0  0  0  0
   -4.7503    3.7213   -1.2203 N   0  0  0  0  0  0  0  0  0  0  0  0
   -3.4395    3.4494   -1.4030 C   0  0  0  0  0  0  0  0  0  0  0  0
   -2.9080    2.2934   -0.9721 N   0  0  0  0  0  0  0  0  0  0  0  0
   -3.7401   -0.8820    0.7579 C   0  0  0  0  0  0  0  0  0  0  0  0
   -3.1555   -2.0565    1.1823 C   0  0  0  0  0  0  0  0  0  0  0  0
   -3.7958   -2.9600    1.7698 O   0  0  0  0  0  0  0  0  0  0  0  0
   -1.9275   -3.8577    2.2850 H   0  0  0  0  0  0  0  0  0  0  0  0
   -1.3350   -4.2452    0.6809 H   0  0  0  0  0  0  0  0  0  0  0  0
   -0.2923   -3.3550    1.9471 H   0  0  0  0  0  0  0  0  0  0  0  0
    0.5991   -3.4898   -0.2062 H   0  0  0  0  0  0  0  0  0  0  0  0
    1.6636   -2.7200    1.0086 H   0  0  0  0  0  0  0  0  0  0  0  0
    2.7548   -3.4151   -0.9963 H   0  0  0  0  0  0  0  0  0  0  0  0
    1.6725   -2.4076   -2.0110 H   0  0  0  0  0  0  0  0  0  0  0  0
    2.4795   -0.8598    1.0063 H   0  0  0  0  0  0  0  0  0  0  0  0
    1.7221    2.2806   -0.1950 H   0  0  0  0  0  0  0  0  0  0  0  0
    3.3488    4.1288   -0.2115 H   0  0  0  0  0  0  0  0  0  0  0  0
    6.6254    1.4434    0.0855 H   0  0  0  0  0  0  0  0  0  0  0  0
    5.0430   -0.4302    0.1086 H   0  0  0  0  0  0  0  0  0  0  0  0
    0.5886    0.6656    0.1031 H   0  0  0  0  0  0  0  0  0  0  0  0
    0.9456   -0.1337   -1.5363 H   0  0  0  0  0  0  0  0  0  0  0  0
   -5.6267    0.9401    0.3332 H   0  0  0  0  0  0  0  0  0  0  0  0
   -6.5975    2.9974   -0.4284 H   0  0  0  0  0  0  0  0  0  0  0  0
   -2.8692    4.2191   -1.9120 H   0  0  0  0  0  0  0  0  0  0  0  0
   -4.8109   -0.7424    0.9475 H   0  0  0  0  0  0  0  0  0  0  0  0
  1  2  1  0
  2  3  1  0
  3  4  1  0
  4  5  1  0
  5  6  1  0
  6  7  1  0
  7  8  1  0
  8  9  1  0
  9 10  2  0
 10 11  1  0
 11 12  2  0
 12 13  1  0
 12 14  1  0
 14 15  2  0
  8 16  1  0
  3 17  2  0
 17 18  1  0
 18 19  1  0
 19 20  2  0
 20 21  1  0
 21 22  2  0
 22 23  1  0
 23 24  2  0
 18 25  2  0
 25 26  1  0
 26 27  2  0
 26  2  1  0
 16  4  1  0
 24 19  1  0
 15  9  1  0
  1 28  1  0
  1 29  1  0
  1 30  1  0
  5 31  1  0
  5 32  1  0
  6 33  1  0
  6 34  1  0
  8 35  1  1
 10 36  1  0
 11 37  1  0
 14 38  1  0
 15 39  1  0
 16 40  1  0
 16 41  1  0
 20 42  1  0
 21 43  1  0
 23 44  1  0
 25 45  1  0
M  END
$$$$
