@<TRIPOS>MOLECULE
*****
 45 48 0 0 0
SMALL
GASTEIGER

@<TRIPOS>ATOM
      1 C          -1.2379   -3.4638    1.4346 C.3     1  UNL1        0.0178
      2 N          -1.8076   -2.2279    0.9420 N.ar    1  UNL1       -0.2839
      3 C          -1.1094   -1.2928    0.3241 C.ar    1  UNL1        0.2014
      4 N           0.2597   -1.4315    0.0107 N.pl3   1  UNL1       -0.2959
      5 C           1.1252   -2.5608    0.0541 C.3     1  UNL1        0.0384
      6 C           2.2014   -2.4485   -1.0544 C.3     1  UNL1        0.0643
      7 O           3.0099   -1.3530   -0.8874 O.3     1  UNL1       -0.3689
      8 C           2.4211   -0.4135   -0.0212 C.3     1  UNL1        0.0993
      9 C           3.2613    0.7907   -0.0417 C.ar    1  UNL1       -0.0172
     10 C           2.7778    2.0684   -0.1321 C.ar    1  UNL1       -0.0534
     11 C           3.6918    3.1144   -0.1428 C.ar    1  UNL1       -0.0261
     12 C           5.0470    2.8875   -0.0655 C.ar    1  UNL1        0.1234
     13 F           5.9490    3.9178   -0.0761 F       1  UNL1       -0.2055
     14 C           5.5450    1.6038    0.0261 C.ar    1  UNL1       -0.0261
     15 C           4.6373    0.5790    0.0359 C.ar    1  UNL1       -0.0534
     16 C           0.9925   -0.1924   -0.4454 C.3     1  UNL1        0.0453
     17 N          -1.7339   -0.1222   -0.0880 N.ar    1  UNL1       -0.2140
     18 C          -3.0300    0.1007    0.1157 C.ar    1  UNL1        0.0979
     19 C          -3.6665    1.3506   -0.3350 C.ar    1  UNL1        0.0926
     20 C          -4.9882    1.6540   -0.1648 C.ar    1  UNL1       -0.0160
     21 C          -5.5402    2.8554   -0.6126 C.ar    1  UNL1        0.0314
     22 N          -4.7503    3.7213   -1.2203 N.ar    1  UNL1       -0.2437
     23 C          -3.4395    3.4494   -1.4030 C.ar    1  UNL1        0.1166
     24 N          -2.9080    2.2934   -0.9721 N.ar    1  UNL1       -0.2339
     25 C          -3.7401   -0.8820    0.7579 C.ar    1  UNL1        0.0306
     26 C          -3.1555   -2.0565    1.1823 C.ar    1  UNL1        0.2556
     27 O          -3.7958   -2.9600    1.7698 O.2     1  UNL1       -0.2675
     28 H          -1.9275   -3.8577    2.2850 H       1  UNL1        0.0458
     29 H          -1.3350   -4.2452    0.6809 H       1  UNL1        0.0458
     30 H          -0.2923   -3.3550    1.9471 H       1  UNL1        0.0458
     31 H           0.5991   -3.4898   -0.2062 H       1  UNL1        0.0487
     32 H           1.6636   -2.7200    1.0086 H       1  UNL1        0.0487
     33 H           2.7548   -3.4151   -0.9963 H       1  UNL1        0.0576
     34 H           1.6725   -2.4076   -2.0110 H       1  UNL1        0.0576
     35 H           2.4795   -0.8598    1.0063 H       1  UNL1        0.0662
     36 H           1.7221    2.2806   -0.1950 H       1  UNL1        0.0622
     37 H           3.3488    4.1288   -0.2115 H       1  UNL1        0.0646
     38 H           6.6254    1.4434    0.0855 H       1  UNL1        0.0646
     39 H           5.0430   -0.4302    0.1086 H       1  UNL1        0.0622
     40 H           0.5886    0.6656    0.1031 H       1  UNL1        0.0493
     41 H           0.9456   -0.1337   -1.5363 H       1  UNL1        0.0493
     42 H          -5.6267    0.9401    0.3332 H       1  UNL1        0.0655
     43 H          -6.5975    2.9974   -0.4284 H       1  UNL1        0.0831
     44 H          -2.8692    4.2191   -1.9120 H       1  UNL1        0.1047
     45 H          -4.8109   -0.7424    0.9475 H       1  UNL1        0.0694
@<TRIPOS>BOND
     1     1     2    1
     2     2     3   ar
     3     3     4    1
     4     4     5    1
     5     5     6    1
     6     6     7    1
     7     7     8    1
     8     8     9    1
     9     9    10   ar
    10    10    11   ar
    11    11    12   ar
    12    12    13    1
    13    12    14   ar
    14    14    15   ar
    15     8    16    1
    16     3    17   ar
    17    17    18   ar
    18    18    19    1
    19    19    20   ar
    20    20    21   ar
    21    21    22   ar
    22    22    23   ar
    23    23    24   ar
    24    18    25   ar
    25    25    26   ar
    26    26    27    2
    27    26     2   ar
    28    16     4    1
    29    24    19   ar
    30    15     9   ar
    31     1    28    1
    32     1    29    1
    33     1    30    1
    34     5    31    1
    35     5    32    1
    36     6    33    1
    37     6    34    1
    38     8    35    1
    39    10    36    1
    40    11    37    1
    41    14    38    1
    42    15    39    1
    43    16    40    1
    44    16    41    1
    45    20    42    1
    46    21    43    1
    47    23    44    1
    48    25    45    1
