@<TRIPOS>MOLECULE
*****
 50 53 0 0 0
SMALL
GASTEIGER

@<TRIPOS>ATOM
      1 O          -0.0871    0.9515   -1.7900 O.3     1  UNL1       -0.3850
      2 C          -0.0536    1.7138   -0.5955 C.3     1  UNL1        0.1229
      3 C           0.5114    0.8707    0.4780 C.3     1  UNL1        0.1186
      4 O           1.8178    0.4413    0.3173 O.3     1  UNL1       -0.4885
      5 C           2.9917    1.0946    0.2104 C.ar    1  UNL1        0.1350
      6 C           3.3664    2.4161    0.2249 C.ar    1  UNL1       -0.0190
      7 C           4.6522    2.8837    0.0977 C.ar    1  UNL1       -0.0548
      8 C           5.6677    1.9647   -0.0584 C.ar    1  UNL1       -0.0184
      9 C           5.3690    0.6190   -0.0824 C.ar    1  UNL1        0.1431
     10 C           4.0449    0.1826    0.0504 C.ar    1  UNL1        0.1055
     11 C           3.9188   -1.2046    0.0049 C.ar    1  UNL1        0.1968
     12 O           2.7551   -1.6588    0.1185 O.2     1  UNL1       -0.2869
     13 C           5.0311   -1.9992   -0.1568 C.ar    1  UNL1        0.0354
     14 C           6.2978   -1.4759   -0.2792 C.ar    1  UNL1        0.2154
     15 O           6.3901   -0.1766   -0.2337 O.2     1  UNL1       -0.4479
     16 C           7.4541   -2.3479   -0.4493 C.2     1  UNL1        0.3726
     17 O           8.7219   -1.8120   -0.5713 O.3     1  UNL1       -0.4750
     18 O           7.2655   -3.5912   -0.4814 O.2     1  UNL1       -0.2417
     19 C          -1.4279    2.2190   -0.2538 C.3     1  UNL1        0.1186
     20 O          -2.4293    1.3418   -0.0232 O.3     1  UNL1       -0.4885
     21 C          -2.8832    0.3879    0.7479 C.ar    1  UNL1        0.1350
     22 C          -2.4921   -0.2716    1.8918 C.ar    1  UNL1       -0.0190
     23 C          -3.1315   -1.2777    2.5715 C.ar    1  UNL1       -0.0548
     24 C          -4.3268   -1.6544    2.0030 C.ar    1  UNL1       -0.0184
     25 C          -4.8505   -1.0915    0.8641 C.ar    1  UNL1        0.1431
     26 C          -4.1148   -0.0716    0.2501 C.ar    1  UNL1        0.1055
     27 C          -4.7670    0.4043   -0.8932 C.ar    1  UNL1        0.1968
     28 O          -4.1760    1.3329   -1.5201 O.2     1  UNL1       -0.2869
     29 C          -5.9757   -0.0902   -1.3285 C.ar    1  UNL1        0.0354
     30 C          -6.5935   -1.1007   -0.6244 C.ar    1  UNL1        0.2154
     31 O          -5.9983   -1.5597    0.4490 O.2     1  UNL1       -0.4479
     32 C          -7.8710   -1.6039   -1.1083 C.2     1  UNL1        0.3726
     33 O          -8.5718   -2.6118   -0.4790 O.3     1  UNL1       -0.4750
     34 O          -8.3510   -1.0942   -2.1446 O.2     1  UNL1       -0.2417
     35 H           0.8054    0.5215   -1.8165 H       1  UNL1        0.2101
     36 H           0.6204    2.5697   -0.8783 H       1  UNL1        0.0661
     37 H           0.3509    1.3058    1.4632 H       1  UNL1        0.0724
     38 H          -0.0942   -0.1037    0.4340 H       1  UNL1        0.0724
     39 H           2.5349    3.0876    0.3580 H       1  UNL1        0.0654
     40 H           4.7596    3.9749    0.1326 H       1  UNL1        0.0620
     41 H           6.6571    2.3900   -0.1535 H       1  UNL1        0.0654
     42 H           4.8409   -3.0649   -0.1811 H       1  UNL1        0.0695
     43 H           9.5231   -2.3790   -0.8764 H       1  UNL1        0.2955
     44 H          -1.7437    3.0045   -1.0284 H       1  UNL1        0.0724
     45 H          -1.3492    2.9035    0.6724 H       1  UNL1        0.0724
     46 H          -1.5538    0.0940    2.2781 H       1  UNL1        0.0654
     47 H          -2.6685   -1.6789    3.4605 H       1  UNL1        0.0620
     48 H          -4.8637   -2.4461    2.5087 H       1  UNL1        0.0654
     49 H          -6.3844    0.3554   -2.2250 H       1  UNL1        0.0695
     50 H          -9.5894   -2.6652   -0.4960 H       1  UNL1        0.2955
@<TRIPOS>BOND
     1     1     2    1
     2     2     3    1
     3     3     4    1
     4     4     5    1
     5     5     6   ar
     6     6     7   ar
     7     7     8   ar
     8     8     9   ar
     9     9    10   ar
    10    10    11   ar
    11    11    12    2
    12    11    13   ar
    13    13    14   ar
    14    14    15   ar
    15    14    16    1
    16    16    17    1
    17    16    18    2
    18     2    19    1
    19    19    20    1
    20    20    21    1
    21    21    22   ar
    22    22    23   ar
    23    23    24   ar
    24    24    25   ar
    25    25    26   ar
    26    26    27   ar
    27    27    28    2
    28    27    29   ar
    29    29    30   ar
    30    30    31   ar
    31    30    32    1
    32    32    33    1
    33    32    34    2
    34    10     5   ar
    35    26    21   ar
    36    15     9   ar
    37    31    25   ar
    38     1    35    1
    39     2    36    1
    40     3    37    1
    41     3    38    1
    42     6    39    1
    43     7    40    1
    44     8    41    1
    45    13    42    1
    46    17    43    1
    47    19    44    1
    48    19    45    1
    49    22    46    1
    50    23    47    1
    51    24    48    1
    52    29    49    1
    53    33    50    1
