@<TRIPOS>MOLECULE
*****
 48 51 0 0 0
SMALL
GASTEIGER

@<TRIPOS>ATOM
      1 C          -2.4417   -0.3659   -5.4772 C.3     1  UNL1       -0.0046
      2 C          -1.7214   -1.2963   -4.5962 C.2     1  UNL1        0.1469
      3 O          -0.7412   -1.8812   -4.9230 O.2     1  UNL1       -0.2962
      4 C          -2.2780   -1.4864   -3.2261 C.3     1  UNL1        0.0871
      5 C          -2.6263   -0.1431   -2.5231 C.3     1  UNL1       -0.0237
      6 C          -1.5013   -0.9978   -2.0721 C.3     1  UNL1        0.0118
      7 C          -1.4616   -1.7380   -0.8251 C.3     1  UNL1        0.0935
      8 C          -0.0869   -2.5028   -0.8270 C.3     1  UNL1       -0.0351
      9 C          -1.3514   -0.7408    0.2957 C.ar    1  UNL1        0.0158
     10 C          -0.1687   -0.2296    0.7751 C.ar    1  UNL1       -0.0463
     11 C          -0.0664    0.8342    1.6324 C.ar    1  UNL1       -0.0217
     12 C           1.1996    1.4409    2.0341 C.2     1  UNL1       -0.0172
     13 C           2.3029    0.8429    2.3328 C.2     1  UNL1        0.1492
     14 F           2.4641   -0.4627    2.3290 F       1  UNL1       -0.2032
     15 C           3.4695    1.7280    2.6275 C.ar    1  UNL1        0.0990
     16 C           4.6996    1.1881    3.0277 C.ar    1  UNL1       -0.0322
     17 C           5.7495    2.1108    3.2235 C.ar    1  UNL1       -0.0408
     18 C           5.5979    3.4345    3.0397 C.ar    1  UNL1        0.0699
     19 C           6.6521    4.4222    3.2071 C.1     1  UNL1        0.1007
     20 N           7.4770    5.1948    3.3583 N.1     1  UNL1       -0.1908
     21 C           4.3411    3.9033    2.6373 C.ar    1  UNL1        0.0457
     22 N           3.3613    3.0254    2.4580 N.ar    1  UNL1       -0.2514
     23 C          -1.2448    1.4571    2.0681 C.ar    1  UNL1       -0.0518
     24 C          -2.4423    0.9772    1.6204 C.ar    1  UNL1       -0.0255
     25 C          -2.4974   -0.0910    0.7604 C.ar    1  UNL1        0.1289
     26 F          -3.7386   -0.5357    0.4112 F       1  UNL1       -0.2051
     27 N          -2.4417   -2.7017   -0.4619 N.2     1  UNL1       -0.2521
     28 C          -3.3119   -3.2529   -1.1981 C.2     1  UNL1        0.1484
     29 N          -4.2386   -4.2038   -0.7151 N.pl3   1  UNL1       -0.3380
     30 S          -3.3828   -2.8588   -2.9213 S.3     1  UNL1       -0.0763
     31 H          -3.1278    0.3088   -4.9101 H       1  UNL1        0.0306
     32 H          -3.0399   -0.9513   -6.2175 H       1  UNL1        0.0306
     33 H          -1.7152    0.2407   -6.1120 H       1  UNL1        0.0306
     34 H          -3.6165   -0.1514   -2.0712 H       1  UNL1        0.0287
     35 H          -2.3172    0.7891   -3.0683 H       1  UNL1        0.0287
     36 H          -0.4479   -0.6195   -2.3657 H       1  UNL1        0.0346
     37 H          -0.0904   -3.2523   -1.6548 H       1  UNL1        0.0256
     38 H           0.7057   -1.7936   -0.9943 H       1  UNL1        0.0256
     39 H           0.0281   -3.0412    0.1079 H       1  UNL1        0.0256
     40 H           0.7681   -0.6856    0.4748 H       1  UNL1        0.0628
     41 H           1.1773    2.5573    2.0804 H       1  UNL1        0.0653
     42 H           4.8176    0.1685    3.1718 H       1  UNL1        0.0640
     43 H           6.7161    1.7210    3.5300 H       1  UNL1        0.0631
     44 H           4.2261    4.9508    2.4812 H       1  UNL1        0.0843
     45 H          -1.1380    2.3036    2.7422 H       1  UNL1        0.0624
     46 H          -3.3447    1.4784    1.9706 H       1  UNL1        0.0646
     47 H          -5.2258   -3.9230   -0.5640 H       1  UNL1        0.1442
     48 H          -3.9475   -5.1710   -0.5162 H       1  UNL1        0.1442
@<TRIPOS>BOND
     1     1     2    1
     2     2     3    2
     3     4     2    1
     4     4     5    1
     5     5     6    1
     6     6     7    1
     7     7     8    1
     8     7     9    1
     9     9    10   ar
    10    10    11   ar
    11    11    12    1
    12    12    13    2
    13    13    14    1
    14    13    15    1
    15    15    16   ar
    16    16    17   ar
    17    17    18   ar
    18    18    19    1
    19    19    20    3
    20    18    21   ar
    21    21    22   ar
    22    11    23   ar
    23    23    24   ar
    24    24    25   ar
    25    25    26    1
    26     7    27    1
    27    27    28    2
    28    28    29    1
    29    28    30    1
    30     6     4    1
    31    25     9   ar
    32    30     4    1
    33    22    15   ar
    34     1    31    1
    35     1    32    1
    36     1    33    1
    37     5    34    1
    38     5    35    1
    39     6    36    1
    40     8    37    1
    41     8    38    1
    42     8    39    1
    43    10    40    1
    44    12    41    1
    45    16    42    1
    46    17    43    1
    47    21    44    1
    48    23    45    1
    49    24    46    1
    50    29    47    1
    51    29    48    1
