
     RDKit          3D

 20 19  0  0  0  0  0  0  0  0999 V2000
   -1.4624   -2.1757   -0.2751 N   0  0  0  0  0  0  0  0  0  0  0  0
   -0.6966   -1.0009    0.1708 C   0  0  1  0  0  0  0  0  0  0  0  0
   -0.0053   -0.4833   -1.0764 C   0  0  0  0  0  0  0  0  0  0  0  0
    0.8306    0.7403   -0.7671 C   0  0  0  0  0  0  0  0  0  0  0  0
    1.8683    0.4048    0.2380 C   0  0  0  0  0  0  0  0  0  0  0  0
    2.7198    1.4565    0.6186 N   0  0  0  0  0  0  0  0  0  0  0  0
    2.2990   -0.5675    0.9340 O   0  0  0  0  0  0  0  0  0  0  0  0
   -1.6842   -0.0443    0.6951 C   0  0  0  0  0  0  0  0  0  0  0  0
   -2.4813    0.9642    1.2232 O   0  0  0  0  0  0  0  0  0  0  0  0
   -2.8150   -0.6205    0.5523 O   0  0  0  0  0  0  0  0  0  0  0  0
   -2.1341   -2.4190    0.4594 H   0  0  0  0  0  0  0  0  0  0  0  0
   -1.9857   -1.8642   -1.1243 H   0  0  0  0  0  0  0  0  0  0  0  0
    0.0270   -1.2718    0.9449 H   0  0  0  0  0  0  0  0  0  0  0  0
    0.6491   -1.2614   -1.5170 H   0  0  0  0  0  0  0  0  0  0  0  0
   -0.7686   -0.2280   -1.8349 H   0  0  0  0  0  0  0  0  0  0  0  0
    0.2330    1.5604   -0.3642 H   0  0  0  0  0  0  0  0  0  0  0  0
    1.3450    1.1083   -1.6626 H   0  0  0  0  0  0  0  0  0  0  0  0
    2.9073    2.3494    1.1558 H   0  0  0  0  0  0  0  0  0  0  0  0
    3.7001    1.4889    0.2490 H   0  0  0  0  0  0  0  0  0  0  0  0
   -2.5459    1.8636    0.7297 H   0  0  0  0  0  0  0  0  0  0  0  0
  1  2  1  0
  2  3  1  0
  3  4  1  0
  4  5  1  0
  5  6  1  0
  5  7  2  0
  2  8  1  0
  8  9  1  0
  8 10  2  0
  1 11  1  0
  1 12  1  0
  2 13  1  1
  3 14  1  0
  3 15  1  0
  4 16  1  0
  4 17  1  0
  6 18  1  0
  6 19  1  0
  9 20  1  0
M  END
$$$$
