@<TRIPOS>MOLECULE
*****
 65 67 0 0 0
SMALL
GASTEIGER

@<TRIPOS>ATOM
      1 C          -0.1754   -1.0121   -0.6347 C.3     1  UNL1        0.0243
      2 C          -1.5885   -1.5578   -0.5852 C.3     1  UNL1        0.1106
      3 C          -1.8642   -1.8987   -2.0727 C.3     1  UNL1       -0.0090
      4 C          -1.3082   -0.8321   -2.9890 C.3     1  UNL1       -0.0218
      5 C          -2.2648   -0.5032   -4.1088 C.3     1  UNL1       -0.0588
      6 C          -0.9455    0.4245   -2.2818 C.2     1  UNL1       -0.0775
      7 C          -0.3687    0.4152   -1.0862 C.2     1  UNL1       -0.0444
      8 C           0.0249    1.5798   -0.3073 C.2     1  UNL1       -0.0621
      9 C           0.2279    1.3259    0.9697 C.2     1  UNL1       -0.0806
     10 C           0.0886    0.0037    1.6266 C.3     1  UNL1       -0.0219
     11 C           1.0285   -0.0754    2.8474 C.3     1  UNL1       -0.0587
     12 C           0.5846   -1.0370    0.6215 C.3     1  UNL1       -0.0247
     13 C           2.0305   -0.6856    0.3727 C.3     1  UNL1       -0.0457
     14 C           2.7739   -1.5974   -0.5489 C.3     1  UNL1       -0.0153
     15 C           4.2167   -1.0793   -0.6493 C.3     1  UNL1        0.1054
     16 C           4.9401   -1.0524    0.6393 C.3     1  UNL1        0.0109
     17 C           5.2541    0.3115    1.1713 C.3     1  UNL1        0.0686
     18 O           6.3107    0.1666    2.0994 O.3     1  UNL1       -0.3911
     19 C           5.7901    1.2179    0.0679 C.3     1  UNL1        0.0710
     20 C           4.6335    1.3549   -0.8867 C.2     1  UNL1        0.3098
     21 O           4.0325    2.4044   -1.2902 O.2     1  UNL1       -0.2507
     22 O           4.2091    0.1244   -1.3579 O.3     1  UNL1       -0.4612
     23 O          -2.4509   -0.5415   -0.1999 O.3     1  UNL1       -0.4605
     24 C          -3.4163   -0.5413    0.7602 C.2     1  UNL1        0.3102
     25 O          -3.5321   -1.6089    1.3715 O.2     1  UNL1       -0.2505
     26 C          -4.1262    0.7616    0.8606 C.3     1  UNL1        0.0534
     27 C          -4.7559    1.0071   -0.4852 C.3     1  UNL1       -0.0523
     28 C          -5.1327    0.7765    1.9782 C.3     1  UNL1       -0.0432
     29 C          -5.7957    2.1372    1.9959 C.3     1  UNL1       -0.0645
     30 H           0.3946   -1.5344   -1.4415 H       1  UNL1        0.0388
     31 H          -1.6772   -2.5006   -0.0205 H       1  UNL1        0.0740
     32 H          -1.2841   -2.8288   -2.2517 H       1  UNL1        0.0307
     33 H          -2.9448   -2.0667   -2.2172 H       1  UNL1        0.0307
     34 H          -0.3425   -1.1734   -3.4649 H       1  UNL1        0.0342
     35 H          -2.7534   -1.4549   -4.4150 H       1  UNL1        0.0235
     36 H          -1.6698   -0.1531   -4.9761 H       1  UNL1        0.0235
     37 H          -2.9826    0.2534   -3.7498 H       1  UNL1        0.0235
     38 H          -1.1370    1.4221   -2.7144 H       1  UNL1        0.0578
     39 H           0.1068    2.5090   -0.8469 H       1  UNL1        0.0617
     40 H           0.5267    2.2022    1.5693 H       1  UNL1        0.0575
     41 H          -0.8934   -0.2126    2.0382 H       1  UNL1        0.0343
     42 H           1.3488   -1.1287    2.9102 H       1  UNL1        0.0235
     43 H           0.4798    0.1486    3.7773 H       1  UNL1        0.0235
     44 H           1.8519    0.6521    2.6997 H       1  UNL1        0.0235
     45 H           0.5958   -2.0369    1.1199 H       1  UNL1        0.0313
     46 H           2.1384    0.3422   -0.0528 H       1  UNL1        0.0269
     47 H           2.6096   -0.6431    1.3231 H       1  UNL1        0.0269
     48 H           2.3096   -1.6027   -1.5382 H       1  UNL1        0.0301
     49 H           2.7659   -2.6056   -0.0661 H       1  UNL1        0.0301
     50 H           4.7394   -1.8235   -1.3159 H       1  UNL1        0.0734
     51 H           5.9194   -1.6073    0.5940 H       1  UNL1        0.0326
     52 H           4.3608   -1.6017    1.4082 H       1  UNL1        0.0326
     53 H           4.4406    0.8362    1.6700 H       1  UNL1        0.0600
     54 H           6.3577    0.9524    2.7114 H       1  UNL1        0.2098
     55 H           6.6496    0.7735   -0.4390 H       1  UNL1        0.0403
     56 H           6.0848    2.1731    0.5023 H       1  UNL1        0.0403
     57 H          -3.3552    1.5409    1.0261 H       1  UNL1        0.0410
     58 H          -5.1228    0.0313   -0.8638 H       1  UNL1        0.0238
     59 H          -3.9155    1.3236   -1.1576 H       1  UNL1        0.0238
     60 H          -5.5508    1.7781   -0.4497 H       1  UNL1        0.0238
     61 H          -4.6794    0.4882    2.9374 H       1  UNL1        0.0270
     62 H          -5.9412    0.0591    1.6706 H       1  UNL1        0.0270
     63 H          -5.0973    2.9511    1.7151 H       1  UNL1        0.0230
     64 H          -6.0802    2.3500    3.0585 H       1  UNL1        0.0230
     65 H          -6.6738    2.1984    1.3514 H       1  UNL1        0.0230
@<TRIPOS>BOND
     1     1     2    1
     2     2     3    1
     3     3     4    1
     4     4     5    1
     5     4     6    1
     6     6     7    2
     7     7     8    1
     8     8     9    2
     9     9    10    1
    10    10    11    1
    11    10    12    1
    12    12    13    1
    13    13    14    1
    14    14    15    1
    15    15    16    1
    16    16    17    1
    17    17    18    1
    18    17    19    1
    19    19    20    1
    20    20    21    2
    21    20    22    1
    22     2    23    1
    23    23    24    1
    24    24    25    2
    25    24    26    1
    26    26    27    1
    27    26    28    1
    28    28    29    1
    29     7     1    1
    30    22    15    1
    31    12     1    1
    32     1    30    1
    33     2    31    1
    34     3    32    1
    35     3    33    1
    36     4    34    1
    37     5    35    1
    38     5    36    1
    39     5    37    1
    40     6    38    1
    41     8    39    1
    42     9    40    1
    43    10    41    1
    44    11    42    1
    45    11    43    1
    46    11    44    1
    47    12    45    1
    48    13    46    1
    49    13    47    1
    50    14    48    1
    51    14    49    1
    52    15    50    1
    53    16    51    1
    54    16    52    1
    55    17    53    1
    56    18    54    1
    57    19    55    1
    58    19    56    1
    59    26    57    1
    60    27    58    1
    61    27    59    1
    62    27    60    1
    63    28    61    1
    64    28    62    1
    65    29    63    1
    66    29    64    1
    67    29    65    1
