@<TRIPOS>MOLECULE
*****
 14 14 0 0 0
SMALL
GASTEIGER

@<TRIPOS>ATOM
      1 C           0.0678    1.3534    0.1256 C.3     1  UNL1        0.0711
      2 C           1.3048    0.4929    0.1699 C.3     1  UNL1        0.0711
      3 O           0.9973   -0.7953    0.5663 O.3     1  UNL1       -0.3752
      4 C          -0.0723   -1.3583   -0.0839 C.3     1  UNL1        0.0711
      5 C          -1.2426   -0.4308   -0.2745 C.3     1  UNL1        0.0711
      6 O          -0.8623    0.8100   -0.7472 O.3     1  UNL1       -0.3752
      7 H          -0.3486    1.3481    1.1644 H       1  UNL1        0.0583
      8 H           0.3125    2.3639   -0.2311 H       1  UNL1        0.0583
      9 H           1.9204    0.5493   -0.7410 H       1  UNL1        0.0583
     10 H           1.9446    0.9206    0.9841 H       1  UNL1        0.0583
     11 H          -0.4433   -2.1893    0.5685 H       1  UNL1        0.0583
     12 H           0.1869   -1.7912   -1.0845 H       1  UNL1        0.0583
     13 H          -1.8805   -0.8856   -1.0763 H       1  UNL1        0.0583
     14 H          -1.8846   -0.3878    0.6297 H       1  UNL1        0.0583
@<TRIPOS>BOND
     1     1     2    1
     2     2     3    1
     3     3     4    1
     4     4     5    1
     5     5     6    1
     6     6     1    1
     7     1     7    1
     8     1     8    1
     9     2     9    1
    10     2    10    1
    11     4    11    1
    12     4    12    1
    13     5    13    1
    14     5    14    1
