@<TRIPOS>MOLECULE
*****
 61 63 0 0 0
SMALL
GASTEIGER

@<TRIPOS>ATOM
      1 C          -0.6703    2.7892   -0.8490 C.3     1  UNL1       -0.0461
      2 C          -0.7975    1.5647    0.0723 C.3     1  UNL1        0.0275
      3 N           0.4850    0.9454    0.1027 N.am    1  UNL1       -0.3089
      4 C           1.3145    0.8601    1.2510 C.2     1  UNL1        0.2566
      5 O           0.8816    1.3677    2.3153 O.2     1  UNL1       -0.2714
      6 C           2.6541    0.2207    1.2973 C.3     1  UNL1        0.1816
      7 C           3.6151    1.3142    1.7601 C.3     1  UNL1       -0.0164
      8 C           2.7055   -0.8536    2.3761 C.3     1  UNL1       -0.0164
      9 O           3.0147   -0.3032    0.0399 O.3     1  UNL1       -0.4609
     10 C           4.2745   -0.9392   -0.0345 C.ar    1  UNL1        0.2156
     11 C           4.3946   -2.2883    0.2088 C.ar    1  UNL1        0.0005
     12 C           5.6304   -2.8792    0.1323 C.ar    1  UNL1       -0.0436
     13 C           6.7455   -2.1454   -0.1840 C.ar    1  UNL1        0.0731
     14 C           8.1014   -2.7037   -0.2770 C.3     1  UNL1        0.4188
     15 F           8.8072   -2.4548    0.9062 F       1  UNL1       -0.1658
     16 F           8.7807   -1.9920   -1.2669 F       1  UNL1       -0.1658
     17 F           8.1481   -4.0500   -0.5133 F       1  UNL1       -0.1658
     18 C           6.5929   -0.7751   -0.4269 C.ar    1  UNL1        0.0430
     19 N           5.3752   -0.2452   -0.3410 N.ar    1  UNL1       -0.2207
     20 C          -1.9150    0.7461   -0.5055 C.3     1  UNL1        0.0063
     21 C          -2.1878   -0.5153    0.2696 C.3     1  UNL1       -0.0192
     22 C          -3.2831   -1.3016   -0.3247 C.ar    1  UNL1       -0.0466
     23 C          -4.5892   -1.1445    0.0618 C.ar    1  UNL1       -0.0572
     24 C          -5.6126   -1.8997   -0.5245 C.ar    1  UNL1       -0.0431
     25 C          -5.3080   -2.8220   -1.5121 C.ar    1  UNL1        0.0410
     26 CL         -6.5612   -3.7848   -2.2671 Cl      1  UNL1       -0.0835
     27 C          -4.0055   -2.9653   -1.8840 C.ar    1  UNL1       -0.0431
     28 C          -2.9921   -2.2166   -1.3020 C.ar    1  UNL1       -0.0572
     29 C          -3.1222    1.5985   -0.4832 C.ar    1  UNL1       -0.0410
     30 C          -3.5739    2.0760    0.7226 C.ar    1  UNL1       -0.0582
     31 C          -4.7186    2.8886    0.7415 C.ar    1  UNL1       -0.0603
     32 C          -5.3904    3.2130   -0.4157 C.ar    1  UNL1       -0.0443
     33 C          -4.9358    2.7310   -1.6434 C.ar    1  UNL1        0.0520
     34 C          -5.6221    3.0853   -2.7819 C.1     1  UNL1        0.0992
     35 N          -6.2631    3.4029   -3.8039 N.1     1  UNL1       -0.1909
     36 C          -3.8002    1.9291   -1.6240 C.ar    1  UNL1       -0.0408
     37 H          -0.7172    2.4432   -1.9094 H       1  UNL1        0.0248
     38 H           0.3534    3.2020   -0.6967 H       1  UNL1        0.0248
     39 H          -1.3890    3.5724   -0.6016 H       1  UNL1        0.0248
     40 H          -1.1173    1.9815    1.0502 H       1  UNL1        0.0501
     41 H           0.8585    0.5160   -0.7740 H       1  UNL1        0.1491
     42 H           3.1279    2.3098    1.8150 H       1  UNL1        0.0273
     43 H           4.0062    1.1270    2.7894 H       1  UNL1        0.0273
     44 H           4.4930    1.4021    1.0950 H       1  UNL1        0.0273
     45 H           3.6486   -1.4127    2.3616 H       1  UNL1        0.0273
     46 H           2.6536   -0.3636    3.3760 H       1  UNL1        0.0273
     47 H           1.8958   -1.6138    2.2542 H       1  UNL1        0.0273
     48 H           3.5080   -2.8728    0.4584 H       1  UNL1        0.0671
     49 H           5.7468   -3.9334    0.3197 H       1  UNL1        0.0625
     50 H           7.4808   -0.1939   -0.6770 H       1  UNL1        0.0836
     51 H          -1.7235    0.4643   -1.5658 H       1  UNL1        0.0370
     52 H          -1.2647   -1.1084    0.4166 H       1  UNL1        0.0320
     53 H          -2.5256   -0.2579    1.3158 H       1  UNL1        0.0320
     54 H          -4.9048   -0.4575    0.8204 H       1  UNL1        0.0621
     55 H          -6.6466   -1.7956   -0.2385 H       1  UNL1        0.0632
     56 H          -3.7289   -3.6764   -2.6544 H       1  UNL1        0.0632
     57 H          -1.9776   -2.3460   -1.6086 H       1  UNL1        0.0621
     58 H          -3.1248    1.8826    1.6844 H       1  UNL1        0.0620
     59 H          -5.0820    3.2714    1.6955 H       1  UNL1        0.0618
     60 H          -6.2781    3.8424   -0.3780 H       1  UNL1        0.0630
     61 H          -3.4652    1.5643   -2.6004 H       1  UNL1        0.0633
@<TRIPOS>BOND
     1     1     2    1
     2     2     3    1
     3     3     4   am
     4     4     5    2
     5     4     6    1
     6     6     7    1
     7     6     8    1
     8     6     9    1
     9     9    10    1
    10    10    11   ar
    11    11    12   ar
    12    12    13   ar
    13    13    14    1
    14    14    15    1
    15    14    16    1
    16    14    17    1
    17    13    18   ar
    18    18    19   ar
    19     2    20    1
    20    20    21    1
    21    21    22    1
    22    22    23   ar
    23    23    24   ar
    24    24    25   ar
    25    25    26    1
    26    25    27   ar
    27    27    28   ar
    28    20    29    1
    29    29    30   ar
    30    30    31   ar
    31    31    32   ar
    32    32    33   ar
    33    33    34    1
    34    34    35    3
    35    33    36   ar
    36    19    10   ar
    37    28    22   ar
    38    36    29   ar
    39     1    37    1
    40     1    38    1
    41     1    39    1
    42     2    40    1
    43     3    41    1
    44     7    42    1
    45     7    43    1
    46     7    44    1
    47     8    45    1
    48     8    46    1
    49     8    47    1
    50    11    48    1
    51    12    49    1
    52    18    50    1
    53    20    51    1
    54    21    52    1
    55    21    53    1
    56    23    54    1
    57    24    55    1
    58    27    56    1
    59    28    57    1
    60    30    58    1
    61    31    59    1
    62    32    60    1
    63    36    61    1
