@<TRIPOS>MOLECULE
*****
 26 26 0 0 0
SMALL
GASTEIGER

@<TRIPOS>ATOM
      1 C          -3.4107   -0.4369   -1.4434 C.3     1  UNL1        0.0060
      2 N          -3.0187    0.3985   -0.2979 N.am    1  UNL1       -0.2732
      3 C          -3.6952    1.3645    0.5435 C.3     1  UNL1        0.0060
      4 C          -1.6783    0.2350    0.0839 C.2     1  UNL1        0.4079
      5 O          -0.9664    0.7459    0.9864 O.2     1  UNL1       -0.2258
      6 O          -0.7328   -0.6175   -0.5098 O.3     1  UNL1       -0.4054
      7 C           0.5774   -0.6792   -0.0217 C.ar    1  UNL1        0.1964
      8 C           1.5660    0.1636   -0.5189 C.ar    1  UNL1        0.2137
      9 N           2.8217    0.0851   -0.0321 N.ar    1  UNL1       -0.2034
     10 C           3.8524    0.9676   -0.5542 C.3     1  UNL1        0.1405
     11 C           3.1299   -0.8074    0.9374 C.ar    1  UNL1        0.1712
     12 C           2.1878   -1.6688    1.4679 C.ar    1  UNL1        0.0056
     13 C           0.9109   -1.5965    0.9802 C.ar    1  UNL1       -0.0077
     14 H          -2.8062   -0.1432   -2.3141 H       1  UNL1        0.0429
     15 H          -3.1316   -1.4807   -1.1150 H       1  UNL1        0.0429
     16 H          -4.5010   -0.3340   -1.5841 H       1  UNL1        0.0429
     17 H          -4.7802    1.3160    0.3649 H       1  UNL1        0.0429
     18 H          -3.3792    2.4095    0.3236 H       1  UNL1        0.0429
     19 H          -3.5647    1.0817    1.6166 H       1  UNL1        0.0429
     20 H           1.3604    0.8756   -1.2791 H       1  UNL1        0.1416
     21 H           4.4844    1.2656    0.3287 H       1  UNL1        0.0993
     22 H           4.5593    0.4048   -1.2212 H       1  UNL1        0.0993
     23 H           3.4556    1.8751   -1.0106 H       1  UNL1        0.0993
     24 H           4.1600   -0.8103    1.2768 H       1  UNL1        0.1376
     25 H           2.4625   -2.3732    2.2433 H       1  UNL1        0.0678
     26 H           0.1366   -2.2408    1.3543 H       1  UNL1        0.0658
@<TRIPOS>UNITY_ATOM_ATTR
9 1
charge 1
@<TRIPOS>BOND
     1     1     2    1
     2     2     3    1
     3     2     4   am
     4     4     5    2
     5     4     6    1
     6     6     7    1
     7     7     8   ar
     8     8     9   ar
     9     9    10    1
    10     9    11   ar
    11    11    12   ar
    12    12    13   ar
    13    13     7   ar
    14     1    14    1
    15     1    15    1
    16     1    16    1
    17     3    17    1
    18     3    18    1
    19     3    19    1
    20     8    20    1
    21    10    21    1
    22    10    22    1
    23    10    23    1
    24    11    24    1
    25    12    25    1
    26    13    26    1
