@<TRIPOS>MOLECULE
*****
 62 67 0 0 0
SMALL
GASTEIGER

@<TRIPOS>ATOM
      1 C           6.8985    2.4188    0.6620 C.3     1  UNL1        0.0788
      2 O           5.8700    3.3342    0.3558 O.3     1  UNL1       -0.4951
      3 C           4.5804    2.9619    0.0908 C.ar    1  UNL1        0.1208
      4 C           3.6215    3.8807   -0.2001 C.ar    1  UNL1       -0.0180
      5 C           2.3282    3.4640   -0.4627 C.ar    1  UNL1       -0.0341
      6 C           1.9881    2.1056   -0.4340 C.ar    1  UNL1        0.0501
      7 C           2.9606    1.1796   -0.1391 C.ar    1  UNL1        0.0118
      8 C           4.2498    1.6192    0.1207 C.ar    1  UNL1       -0.0102
      9 C           2.3443   -0.0605   -0.1772 C.ar    1  UNL1        0.0222
     10 C           2.8362   -1.3411    0.0193 C.ar    1  UNL1        0.0518
     11 C           1.9608   -2.3689   -0.1117 C.ar    1  UNL1       -0.0078
     12 C           0.6364   -2.1569   -0.4241 C.ar    1  UNL1        0.0150
     13 C          -0.3974   -3.0475   -0.5857 C.ar    1  UNL1        0.0080
     14 C          -0.4163   -4.4294   -0.5000 C.ar    1  UNL1       -0.0520
     15 C          -1.5934   -5.1060   -0.7111 C.ar    1  UNL1       -0.0611
     16 C          -2.7134   -4.3760   -1.0011 C.ar    1  UNL1       -0.0598
     17 C          -2.6874   -2.9863   -1.0856 C.ar    1  UNL1       -0.0376
     18 C          -1.4966   -2.3096   -0.8715 C.ar    1  UNL1        0.0502
     19 N          -1.1787   -0.9568   -0.8930 N.ar    1  UNL1       -0.3356
     20 C          -2.2204   -0.0198   -1.1325 C.3     1  UNL1        0.0511
     21 C          -2.9216    0.3816    0.1565 C.3     1  UNL1        0.0857
     22 O          -3.4849   -0.7552    0.7868 O.3     1  UNL1       -0.3888
     23 C          -3.9545    1.4585   -0.0653 C.3     1  UNL1        0.0260
     24 N          -4.4803    1.8926    1.1898 N.3     1  UNL1       -0.3059
     25 C          -5.4079    3.0165    1.0234 C.3     1  UNL1       -0.0130
     26 C          -5.1299    0.8311    1.9393 C.3     1  UNL1       -0.0130
     27 C           0.1102   -0.8785   -0.6248 C.ar    1  UNL1        0.0750
     28 C           0.9958    0.1867   -0.5000 C.ar    1  UNL1        0.0750
     29 N           0.7886    1.4811   -0.6555 N.ar    1  UNL1       -0.3413
     30 C          -0.3446    2.2712   -1.0393 C.3     1  UNL1        0.0125
     31 C           2.6567   -3.6375    0.1196 C.3     1  UNL1        0.0385
     32 N           4.0081   -3.2977    0.4278 N.am    1  UNL1       -0.3072
     33 C           4.1398   -1.8551    0.3571 C.2     1  UNL1        0.2453
     34 O           5.2397   -1.2743    0.5710 O.2     1  UNL1       -0.2702
     35 H           7.0581    1.7597   -0.2010 H       1  UNL1        0.0660
     36 H           6.5488    1.8363    1.5530 H       1  UNL1        0.0660
     37 H           7.8262    2.9273    0.9862 H       1  UNL1        0.0660
     38 H           3.8453    4.9342   -0.2316 H       1  UNL1        0.0655
     39 H           1.6094    4.2385   -0.6850 H       1  UNL1        0.0639
     40 H           5.0075    0.9213    0.3484 H       1  UNL1        0.0661
     41 H           0.4418   -5.0299   -0.2748 H       1  UNL1        0.0624
     42 H          -1.6511   -6.1841   -0.6540 H       1  UNL1        0.0618
     43 H          -3.6603   -4.8568   -1.1753 H       1  UNL1        0.0618
     44 H          -3.5886   -2.4468   -1.3202 H       1  UNL1        0.0638
     45 H          -2.1253    0.7984   -1.7968 H       1  UNL1        0.0518
     46 H          -3.0885   -0.5865   -1.6949 H       1  UNL1        0.0518
     47 H          -2.2035    0.7642    0.9140 H       1  UNL1        0.0624
     48 H          -2.7268   -1.2259    1.2124 H       1  UNL1        0.2099
     49 H          -4.7658    1.0913   -0.7559 H       1  UNL1        0.0452
     50 H          -3.4581    2.3236   -0.5442 H       1  UNL1        0.0452
     51 H          -6.1369    2.8614    0.2290 H       1  UNL1        0.0391
     52 H          -4.7875    3.9329    0.9031 H       1  UNL1        0.0391
     53 H          -5.9443    3.1172    1.9742 H       1  UNL1        0.0391
     54 H          -5.5509    0.0902    1.2469 H       1  UNL1        0.0391
     55 H          -5.9474    1.2740    2.5614 H       1  UNL1        0.0391
     56 H          -4.3726    0.3594    2.5793 H       1  UNL1        0.0391
     57 H          -0.0343    3.3745   -1.1819 H       1  UNL1        0.0456
     58 H          -1.1478    2.3768   -0.3382 H       1  UNL1        0.0456
     59 H          -0.5872    2.0499   -2.1229 H       1  UNL1        0.0456
     60 H           2.2546   -4.2038    0.9913 H       1  UNL1        0.0512
     61 H           2.5794   -4.2248   -0.8376 H       1  UNL1        0.0512
     62 H           4.8194   -3.8986    0.6704 H       1  UNL1        0.1493
@<TRIPOS>BOND
     1     1     2    1
     2     2     3    1
     3     3     4   ar
     4     4     5   ar
     5     5     6   ar
     6     6     7   ar
     7     7     8   ar
     8     7     9   ar
     9     9    10   ar
    10    10    11   ar
    11    11    12   ar
    12    12    13   ar
    13    13    14   ar
    14    14    15   ar
    15    15    16   ar
    16    16    17   ar
    17    17    18   ar
    18    18    19   ar
    19    19    20    1
    20    20    21    1
    21    21    22    1
    22    21    23    1
    23    23    24    1
    24    24    25    1
    25    24    26    1
    26    19    27   ar
    27    27    28   ar
    28    28    29   ar
    29    29    30    1
    30    11    31    1
    31    31    32    1
    32    32    33   am
    33    33    34    2
    34     8     3   ar
    35    28     9   ar
    36    29     6   ar
    37    33    10    1
    38    27    12   ar
    39    18    13   ar
    40     1    35    1
    41     1    36    1
    42     1    37    1
    43     4    38    1
    44     5    39    1
    45     8    40    1
    46    14    41    1
    47    15    42    1
    48    16    43    1
    49    17    44    1
    50    20    45    1
    51    20    46    1
    52    21    47    1
    53    22    48    1
    54    23    49    1
    55    23    50    1
    56    25    51    1
    57    25    52    1
    58    25    53    1
    59    26    54    1
    60    26    55    1
    61    26    56    1
    62    30    57    1
    63    30    58    1
    64    30    59    1
    65    31    60    1
    66    31    61    1
    67    32    62    1
