
     RDKit          3D

 62 67  0  0  0  0  0  0  0  0999 V2000
    6.8985    2.4188    0.6620 C   0  0  0  0  0  0  0  0  0  0  0  0
    5.8700    3.3342    0.3558 O   0  0  0  0  0  0  0  0  0  0  0  0
    4.5804    2.9619    0.0908 C   0  0  0  0  0  0  0  0  0  0  0  0
    3.6215    3.8807   -0.2001 C   0  0  0  0  0  0  0  0  0  0  0  0
    2.3282    3.4640   -0.4627 C   0  0  0  0  0  0  0  0  0  0  0  0
    1.9881    2.1056   -0.4340 C   0  0  0  0  0  0  0  0  0  0  0  0
    2.9606    1.1796   -0.1391 C   0  0  0  0  0  0  0  0  0  0  0  0
    4.2498    1.6192    0.1207 C   0  0  0  0  0  0  0  0  0  0  0  0
    2.3443   -0.0605   -0.1772 C   0  0  0  0  0  0  0  0  0  0  0  0
    2.8362   -1.3411    0.0193 C   0  0  0  0  0  0  0  0  0  0  0  0
    1.9608   -2.3689   -0.1117 C   0  0  0  0  0  0  0  0  0  0  0  0
    0.6364   -2.1569   -0.4241 C   0  0  0  0  0  0  0  0  0  0  0  0
   -0.3974   -3.0475   -0.5857 C   0  0  0  0  0  0  0  0  0  0  0  0
   -0.4163   -4.4294   -0.5000 C   0  0  0  0  0  0  0  0  0  0  0  0
   -1.5934   -5.1060   -0.7111 C   0  0  0  0  0  0  0  0  0  0  0  0
   -2.7134   -4.3760   -1.0011 C   0  0  0  0  0  0  0  0  0  0  0  0
   -2.6874   -2.9863   -1.0856 C   0  0  0  0  0  0  0  0  0  0  0  0
   -1.4966   -2.3096   -0.8715 C   0  0  0  0  0  0  0  0  0  0  0  0
   -1.1787   -0.9568   -0.8930 N   0  0  0  0  0  0  0  0  0  0  0  0
   -2.2204   -0.0198   -1.1325 C   0  0  0  0  0  0  0  0  0  0  0  0
   -2.9216    0.3816    0.1565 C   0  0  0  0  0  0  0  0  0  0  0  0
   -3.4849   -0.7552    0.7868 O   0  0  0  0  0  0  0  0  0  0  0  0
   -3.9545    1.4585   -0.0653 C   0  0  0  0  0  0  0  0  0  0  0  0
   -4.4803    1.8926    1.1898 N   0  0  0  0  0  0  0  0  0  0  0  0
   -5.4079    3.0165    1.0234 C   0  0  0  0  0  0  0  0  0  0  0  0
   -5.1299    0.8311    1.9393 C   0  0  0  0  0  0  0  0  0  0  0  0
    0.1102   -0.8785   -0.6248 C   0  0  0  0  0  0  0  0  0  0  0  0
    0.9958    0.1867   -0.5000 C   0  0  0  0  0  0  0  0  0  0  0  0
    0.7886    1.4811   -0.6555 N   0  0  0  0  0  0  0  0  0  0  0  0
   -0.3446    2.2712   -1.0393 C   0  0  0  0  0  0  0  0  0  0  0  0
    2.6567   -3.6375    0.1196 C   0  0  0  0  0  0  0  0  0  0  0  0
    4.0081   -3.2977    0.4278 N   0  0  0  0  0  0  0  0  0  0  0  0
    4.1398   -1.8551    0.3571 C   0  0  0  0  0  0  0  0  0  0  0  0
    5.2397   -1.2743    0.5710 O   0  0  0  0  0  0  0  0  0  0  0  0
    7.0581    1.7597   -0.2010 H   0  0  0  0  0  0  0  0  0  0  0  0
    6.5488    1.8363    1.5530 H   0  0  0  0  0  0  0  0  0  0  0  0
    7.8262    2.9273    0.9862 H   0  0  0  0  0  0  0  0  0  0  0  0
    3.8453    4.9342   -0.2316 H   0  0  0  0  0  0  0  0  0  0  0  0
    1.6094    4.2385   -0.6850 H   0  0  0  0  0  0  0  0  0  0  0  0
    5.0075    0.9213    0.3484 H   0  0  0  0  0  0  0  0  0  0  0  0
    0.4418   -5.0299   -0.2748 H   0  0  0  0  0  0  0  0  0  0  0  0
   -1.6511   -6.1841   -0.6540 H   0  0  0  0  0  0  0  0  0  0  0  0
   -3.6603   -4.8568   -1.1753 H   0  0  0  0  0  0  0  0  0  0  0  0
   -3.5886   -2.4468   -1.3202 H   0  0  0  0  0  0  0  0  0  0  0  0
   -2.1253    0.7984   -1.7968 H   0  0  0  0  0  0  0  0  0  0  0  0
   -3.0885   -0.5865   -1.6949 H   0  0  0  0  0  0  0  0  0  0  0  0
   -2.2035    0.7642    0.9140 H   0  0  0  0  0  0  0  0  0  0  0  0
   -2.7268   -1.2259    1.2124 H   0  0  0  0  0  0  0  0  0  0  0  0
   -4.7658    1.0913   -0.7559 H   0  0  0  0  0  0  0  0  0  0  0  0
   -3.4581    2.3236   -0.5442 H   0  0  0  0  0  0  0  0  0  0  0  0
   -6.1369    2.8614    0.2290 H   0  0  0  0  0  0  0  0  0  0  0  0
   -4.7875    3.9329    0.9031 H   0  0  0  0  0  0  0  0  0  0  0  0
   -5.9443    3.1172    1.9742 H   0  0  0  0  0  0  0  0  0  0  0  0
   -5.5509    0.0902    1.2469 H   0  0  0  0  0  0  0  0  0  0  0  0
   -5.9474    1.2740    2.5614 H   0  0  0  0  0  0  0  0  0  0  0  0
   -4.3726    0.3594    2.5793 H   0  0  0  0  0  0  0  0  0  0  0  0
   -0.0343    3.3745   -1.1819 H   0  0  0  0  0  0  0  0  0  0  0  0
   -1.1478    2.3768   -0.3382 H   0  0  0  0  0  0  0  0  0  0  0  0
   -0.5872    2.0499   -2.1229 H   0  0  0  0  0  0  0  0  0  0  0  0
    2.2546   -4.2038    0.9913 H   0  0  0  0  0  0  0  0  0  0  0  0
    2.5794   -4.2248   -0.8376 H   0  0  0  0  0  0  0  0  0  0  0  0
    4.8194   -3.8986    0.6704 H   0  0  0  0  0  0  0  0  0  0  0  0
  1  2  1  0
  2  3  1  0
  3  4  2  0
  4  5  1  0
  5  6  2  0
  6  7  1  0
  7  8  2  0
  7  9  1  0
  9 10  2  0
 10 11  1  0
 11 12  2  0
 12 13  1  0
 13 14  2  0
 14 15  1  0
 15 16  2  0
 16 17  1  0
 17 18  2  0
 18 19  1  0
 19 20  1  0
 20 21  1  0
 21 22  1  0
 21 23  1  0
 23 24  1  0
 24 25  1  0
 24 26  1  0
 19 27  1  0
 27 28  2  0
 28 29  1  0
 29 30  1  0
 11 31  1  0
 31 32  1  0
 32 33  1  0
 33 34  2  0
  8  3  1  0
 28  9  1  0
 29  6  1  0
 33 10  1  0
 27 12  1  0
 18 13  1  0
  1 35  1  0
  1 36  1  0
  1 37  1  0
  4 38  1  0
  5 39  1  0
  8 40  1  0
 14 41  1  0
 15 42  1  0
 16 43  1  0
 17 44  1  0
 20 45  1  0
 20 46  1  0
 21 47  1  0
 22 48  1  0
 23 49  1  0
 23 50  1  0
 25 51  1  0
 25 52  1  0
 25 53  1  0
 26 54  1  0
 26 55  1  0
 26 56  1  0
 30 57  1  0
 30 58  1  0
 30 59  1  0
 31 60  1  0
 31 61  1  0
 32 62  1  0
M  END
$$$$
