@<TRIPOS>MOLECULE
*****
 64 68 0 0 0
SMALL
GASTEIGER

@<TRIPOS>ATOM
      1 C          12.0083    2.5835    1.4675 C.3     1  UNL1       -0.0191
      2 C          11.1077    1.4700    1.0616 C.ar    1  UNL1        0.0809
      3 C           9.8124    1.2390    1.4976 C.ar    1  UNL1        0.0066
      4 C           9.3658    0.1128    0.8685 C.ar    1  UNL1        0.1747
      5 C           8.0265   -0.5057    1.0365 C.3     1  UNL1        0.1512
      6 O           7.1637    0.0689    0.0910 O.3     1  UNL1       -0.4674
      7 C           5.8204   -0.2631   -0.0431 C.ar    1  UNL1        0.2339
      8 C           5.0859    0.3838   -1.0192 C.ar    1  UNL1        0.0898
      9 N           3.7796    0.1167   -1.2084 N.ar    1  UNL1       -0.2459
     10 C           3.1205   -0.8049   -0.4455 C.ar    1  UNL1        0.1172
     11 C           1.7055   -1.0481   -0.6858 C.2     1  UNL1        0.1507
     12 F           1.0746   -0.3367   -1.6575 F       1  UNL1       -0.2032
     13 C           0.9668   -1.9133   -0.0341 C.2     1  UNL1       -0.0171
     14 C          -0.4488   -2.1681   -0.2607 C.ar    1  UNL1       -0.0217
     15 C          -0.8822   -3.4884   -0.1813 C.ar    1  UNL1       -0.0518
     16 C          -2.2107   -3.7652   -0.3735 C.ar    1  UNL1       -0.0255
     17 C          -3.1347   -2.7907   -0.6420 C.ar    1  UNL1        0.1289
     18 F          -4.4367   -3.1176   -0.8797 F       1  UNL1       -0.2051
     19 C          -2.7446   -1.4785   -0.7258 C.ar    1  UNL1        0.0158
     20 C          -3.7119   -0.3694   -0.9224 C.3     1  UNL1        0.0935
     21 C          -2.7831    0.8146   -1.4242 C.3     1  UNL1       -0.0351
     22 N          -4.5215   -0.5526   -2.0987 N.2     1  UNL1       -0.2521
     23 C          -5.7603   -0.7480   -2.1743 C.2     1  UNL1        0.1485
     24 N          -6.4312   -0.9132   -3.4048 N.pl3   1  UNL1       -0.3380
     25 S          -6.7162   -0.8174   -0.6742 S.3     1  UNL1       -0.0746
     26 C          -5.7222   -0.0399    0.6028 C.3     1  UNL1        0.1054
     27 C          -6.4491    1.0442    1.3398 C.2     1  UNL1        0.2319
     28 O          -6.1652    1.1829    2.5705 O.2     1  UNL1       -0.2741
     29 N          -7.4022    1.8949    0.7656 N.am    1  UNL1       -0.3064
     30 C          -8.0388    2.9118    1.6086 C.3     1  UNL1        0.0029
     31 C          -7.7718    1.8054   -0.6173 C.3     1  UNL1        0.0029
     32 C          -4.7364   -0.8080    1.4043 C.3     1  UNL1       -0.0220
     33 C          -4.3037    0.1586    0.2939 C.3     1  UNL1        0.0134
     34 C          -1.3831   -1.2014   -0.5297 C.ar    1  UNL1       -0.0463
     35 C           3.8588   -1.4426    0.5218 C.ar    1  UNL1        0.0596
     36 N           5.1846   -1.1670    0.7091 N.ar    1  UNL1       -0.2178
     37 O          10.3307   -0.3235    0.0906 O.2     1  UNL1       -0.3559
     38 N          11.3675    0.4738    0.1978 N.ar    1  UNL1       -0.0832
     39 H          11.4339    3.4824    1.7533 H       1  UNL1        0.0294
     40 H          12.6435    2.2515    2.3370 H       1  UNL1        0.0294
     41 H          12.7162    2.7989    0.6301 H       1  UNL1        0.0294
     42 H           9.2840    1.8610    2.2076 H       1  UNL1        0.0672
     43 H           7.6554   -0.3908    2.0803 H       1  UNL1        0.0781
     44 H           8.1217   -1.6077    0.8644 H       1  UNL1        0.0781
     45 H           5.6074    1.1202   -1.6316 H       1  UNL1        0.0884
     46 H           1.4277   -2.4999    0.7457 H       1  UNL1        0.0653
     47 H          -0.1641   -4.2801    0.0312 H       1  UNL1        0.0624
     48 H          -2.6040   -4.7929   -0.3215 H       1  UNL1        0.0646
     49 H          -2.0709    0.4099   -2.1526 H       1  UNL1        0.0256
     50 H          -3.4426    1.5371   -1.9869 H       1  UNL1        0.0256
     51 H          -2.3103    1.2891   -0.5615 H       1  UNL1        0.0256
     52 H          -5.8845   -1.1231   -4.2577 H       1  UNL1        0.1442
     53 H          -7.4590   -0.8300   -3.4753 H       1  UNL1        0.1442
     54 H          -7.2982    3.7232    1.8242 H       1  UNL1        0.0428
     55 H          -8.9342    3.3060    1.0920 H       1  UNL1        0.0428
     56 H          -8.3394    2.4882    2.5871 H       1  UNL1        0.0428
     57 H          -8.3570    2.7314   -0.9145 H       1  UNL1        0.0428
     58 H          -6.8572    1.7257   -1.2278 H       1  UNL1        0.0428
     59 H          -8.4848    0.9757   -0.8418 H       1  UNL1        0.0428
     60 H          -4.6013   -1.8736    1.3158 H       1  UNL1        0.0287
     61 H          -4.6045   -0.4582    2.4615 H       1  UNL1        0.0287
     62 H          -3.8808    1.1254    0.7526 H       1  UNL1        0.0346
     63 H          -0.9826   -0.1877   -0.5787 H       1  UNL1        0.0628
     64 H           3.3604   -2.1781    1.1415 H       1  UNL1        0.0853
@<TRIPOS>BOND
     1     1     2    1
     2     2     3   ar
     3     3     4   ar
     4     4     5    1
     5     5     6    1
     6     6     7    1
     7     7     8   ar
     8     8     9   ar
     9     9    10   ar
    10    10    11    1
    11    11    12    1
    12    11    13    2
    13    13    14    1
    14    14    15   ar
    15    15    16   ar
    16    16    17   ar
    17    17    18    1
    18    17    19   ar
    19    19    20    1
    20    20    21    1
    21    20    22    1
    22    22    23    2
    23    23    24    1
    24    23    25    1
    25    25    26    1
    26    26    27    1
    27    27    28    2
    28    27    29   am
    29    29    30    1
    30    29    31    1
    31    26    32    1
    32    32    33    1
    33    19    34   ar
    34    10    35   ar
    35    35    36   ar
    36     4    37   ar
    37    37    38   ar
    38    38     2   ar
    39    36     7   ar
    40    34    14   ar
    41    33    20    1
    42    33    26    1
    43     1    39    1
    44     1    40    1
    45     1    41    1
    46     3    42    1
    47     5    43    1
    48     5    44    1
    49     8    45    1
    50    13    46    1
    51    15    47    1
    52    16    48    1
    53    21    49    1
    54    21    50    1
    55    21    51    1
    56    24    52    1
    57    24    53    1
    58    30    54    1
    59    30    55    1
    60    30    56    1
    61    31    57    1
    62    31    58    1
    63    31    59    1
    64    32    60    1
    65    32    61    1
    66    33    62    1
    67    34    63    1
    68    35    64    1
