
     RDKit          3D

 64 68  0  0  0  0  0  0  0  0999 V2000
   12.0083    2.5835    1.4675 C   0  0  0  0  0  0  0  0  0  0  0  0
   11.1077    1.4700    1.0616 C   0  0  0  0  0  0  0  0  0  0  0  0
    9.8124    1.2390    1.4976 C   0  0  0  0  0  0  0  0  0  0  0  0
    9.3658    0.1128    0.8685 C   0  0  0  0  0  0  0  0  0  0  0  0
    8.0265   -0.5057    1.0365 C   0  0  0  0  0  0  0  0  0  0  0  0
    7.1637    0.0689    0.0910 O   0  0  0  0  0  0  0  0  0  0  0  0
    5.8204   -0.2631   -0.0431 C   0  0  0  0  0  0  0  0  0  0  0  0
    5.0859    0.3838   -1.0192 C   0  0  0  0  0  0  0  0  0  0  0  0
    3.7796    0.1167   -1.2084 N   0  0  0  0  0  0  0  0  0  0  0  0
    3.1205   -0.8049   -0.4455 C   0  0  0  0  0  0  0  0  0  0  0  0
    1.7055   -1.0481   -0.6858 C   0  0  0  0  0  0  0  0  0  0  0  0
    1.0746   -0.3367   -1.6575 F   0  0  0  0  0  0  0  0  0  0  0  0
    0.9668   -1.9133   -0.0341 C   0  0  0  0  0  0  0  0  0  0  0  0
   -0.4488   -2.1681   -0.2607 C   0  0  0  0  0  0  0  0  0  0  0  0
   -0.8822   -3.4884   -0.1813 C   0  0  0  0  0  0  0  0  0  0  0  0
   -2.2107   -3.7652   -0.3735 C   0  0  0  0  0  0  0  0  0  0  0  0
   -3.1347   -2.7907   -0.6420 C   0  0  0  0  0  0  0  0  0  0  0  0
   -4.4367   -3.1176   -0.8797 F   0  0  0  0  0  0  0  0  0  0  0  0
   -2.7446   -1.4785   -0.7258 C   0  0  0  0  0  0  0  0  0  0  0  0
   -3.7119   -0.3694   -0.9224 C   0  0  1  0  0  0  0  0  0  0  0  0
   -2.7831    0.8146   -1.4242 C   0  0  0  0  0  0  0  0  0  0  0  0
   -4.5215   -0.5526   -2.0987 N   0  0  0  0  0  0  0  0  0  0  0  0
   -5.7603   -0.7480   -2.1743 C   0  0  0  0  0  0  0  0  0  0  0  0
   -6.4312   -0.9132   -3.4048 N   0  0  0  0  0  0  0  0  0  0  0  0
   -6.7162   -0.8174   -0.6742 S   0  0  0  0  0  0  0  0  0  0  0  0
   -5.7222   -0.0399    0.6028 C   0  0  1  0  0  0  0  0  0  0  0  0
   -6.4491    1.0442    1.3398 C   0  0  0  0  0  0  0  0  0  0  0  0
   -6.1652    1.1829    2.5705 O   0  0  0  0  0  0  0  0  0  0  0  0
   -7.4022    1.8949    0.7656 N   0  0  0  0  0  0  0  0  0  0  0  0
   -8.0388    2.9118    1.6086 C   0  0  0  0  0  0  0  0  0  0  0  0
   -7.7718    1.8054   -0.6173 C   0  0  0  0  0  0  0  0  0  0  0  0
   -4.7364   -0.8080    1.4043 C   0  0  0  0  0  0  0  0  0  0  0  0
   -4.3037    0.1586    0.2939 C   0  0  1  0  0  0  0  0  0  0  0  0
   -1.3831   -1.2014   -0.5297 C   0  0  0  0  0  0  0  0  0  0  0  0
    3.8588   -1.4426    0.5218 C   0  0  0  0  0  0  0  0  0  0  0  0
    5.1846   -1.1670    0.7091 N   0  0  0  0  0  0  0  0  0  0  0  0
   10.3307   -0.3235    0.0906 O   0  0  0  0  0  0  0  0  0  0  0  0
   11.3675    0.4738    0.1978 N   0  0  0  0  0  0  0  0  0  0  0  0
   11.4339    3.4824    1.7533 H   0  0  0  0  0  0  0  0  0  0  0  0
   12.6435    2.2515    2.3370 H   0  0  0  0  0  0  0  0  0  0  0  0
   12.7162    2.7989    0.6301 H   0  0  0  0  0  0  0  0  0  0  0  0
    9.2840    1.8610    2.2076 H   0  0  0  0  0  0  0  0  0  0  0  0
    7.6554   -0.3908    2.0803 H   0  0  0  0  0  0  0  0  0  0  0  0
    8.1217   -1.6077    0.8644 H   0  0  0  0  0  0  0  0  0  0  0  0
    5.6074    1.1202   -1.6316 H   0  0  0  0  0  0  0  0  0  0  0  0
    1.4277   -2.4999    0.7457 H   0  0  0  0  0  0  0  0  0  0  0  0
   -0.1641   -4.2801    0.0312 H   0  0  0  0  0  0  0  0  0  0  0  0
   -2.6040   -4.7929   -0.3215 H   0  0  0  0  0  0  0  0  0  0  0  0
   -2.0709    0.4099   -2.1526 H   0  0  0  0  0  0  0  0  0  0  0  0
   -3.4426    1.5371   -1.9869 H   0  0  0  0  0  0  0  0  0  0  0  0
   -2.3103    1.2891   -0.5615 H   0  0  0  0  0  0  0  0  0  0  0  0
   -5.8845   -1.1231   -4.2577 H   0  0  0  0  0  0  0  0  0  0  0  0
   -7.4590   -0.8300   -3.4753 H   0  0  0  0  0  0  0  0  0  0  0  0
   -7.2982    3.7232    1.8242 H   0  0  0  0  0  0  0  0  0  0  0  0
   -8.9342    3.3060    1.0920 H   0  0  0  0  0  0  0  0  0  0  0  0
   -8.3394    2.4882    2.5871 H   0  0  0  0  0  0  0  0  0  0  0  0
   -8.3570    2.7314   -0.9145 H   0  0  0  0  0  0  0  0  0  0  0  0
   -6.8572    1.7257   -1.2278 H   0  0  0  0  0  0  0  0  0  0  0  0
   -8.4848    0.9757   -0.8418 H   0  0  0  0  0  0  0  0  0  0  0  0
   -4.6013   -1.8736    1.3158 H   0  0  0  0  0  0  0  0  0  0  0  0
   -4.6045   -0.4582    2.4615 H   0  0  0  0  0  0  0  0  0  0  0  0
   -3.8808    1.1254    0.7526 H   0  0  0  0  0  0  0  0  0  0  0  0
   -0.9826   -0.1877   -0.5787 H   0  0  0  0  0  0  0  0  0  0  0  0
    3.3604   -2.1781    1.1415 H   0  0  0  0  0  0  0  0  0  0  0  0
  1  2  1  0
  2  3  1  0
  3  4  2  0
  4  5  1  0
  5  6  1  0
  6  7  1  0
  7  8  2  0
  8  9  1  0
  9 10  2  0
 10 11  1  0
 11 12  1  0
 11 13  2  0
 13 14  1  0
 14 15  2  0
 15 16  1  0
 16 17  2  0
 17 18  1  0
 17 19  1  0
 19 20  1  0
 20 21  1  6
 20 22  1  0
 22 23  2  0
 23 24  1  0
 23 25  1  0
 25 26  1  0
 26 27  1  1
 27 28  2  0
 27 29  1  0
 29 30  1  0
 29 31  1  0
 26 32  1  0
 32 33  1  0
 19 34  2  0
 10 35  1  0
 35 36  2  0
  4 37  1  0
 37 38  1  0
 38  2  2  0
 36  7  1  0
 34 14  1  0
 33 20  1  0
 33 26  1  0
  1 39  1  0
  1 40  1  0
  1 41  1  0
  3 42  1  0
  5 43  1  0
  5 44  1  0
  8 45  1  0
 13 46  1  0
 15 47  1  0
 16 48  1  0
 21 49  1  0
 21 50  1  0
 21 51  1  0
 24 52  1  0
 24 53  1  0
 30 54  1  0
 30 55  1  0
 30 56  1  0
 31 57  1  0
 31 58  1  0
 31 59  1  0
 32 60  1  0
 32 61  1  0
 33 62  1  1
 34 63  1  0
 35 64  1  0
M  END
$$$$
