@<TRIPOS>MOLECULE
*****
 54 54 0 0 0
SMALL
GASTEIGER

@<TRIPOS>ATOM
      1 C          -7.5461    2.0314   -0.0866 C.3     1  UNL1       -0.0499
      2 C          -7.3428    0.6793    0.5659 C.3     1  UNL1        0.0021
      3 C          -8.0276   -0.3244   -0.3689 C.3     1  UNL1       -0.0499
      4 N          -5.9054    0.3986    0.4721 N.3     1  UNL1       -0.3112
      5 C          -5.5589   -0.8521    1.0460 C.3     1  UNL1        0.0254
      6 C          -4.0659   -1.0684    0.9345 C.3     1  UNL1        0.1015
      7 O          -3.4554   -0.0409    1.5965 O.3     1  UNL1       -0.3872
      8 C          -3.6852   -1.2648   -0.5045 C.3     1  UNL1        0.1166
      9 O          -2.3894   -1.5460   -0.7951 O.3     1  UNL1       -0.4894
     10 C          -1.1854   -0.9942   -0.6792 C.ar    1  UNL1        0.1206
     11 C          -0.6475    0.1767   -0.2006 C.ar    1  UNL1       -0.0196
     12 C           0.6822    0.5257   -0.1901 C.ar    1  UNL1       -0.0529
     13 C           1.5414   -0.4124   -0.7200 C.ar    1  UNL1       -0.0217
     14 C           3.0067   -0.0589   -0.7206 C.3     1  UNL1        0.0728
     15 O           3.6194   -0.4847    0.4381 O.3     1  UNL1       -0.3729
     16 C           4.9567   -0.2091    0.5394 C.3     1  UNL1        0.0714
     17 C           5.8335   -0.8006   -0.5123 C.3     1  UNL1        0.0713
     18 O           7.1365   -0.4403   -0.2765 O.3     1  UNL1       -0.3748
     19 C           7.4268    0.8922   -0.2946 C.3     1  UNL1        0.0532
     20 C           7.9630    1.2226    1.1057 C.3     1  UNL1       -0.0390
     21 C           8.5889    1.1586   -1.2410 C.3     1  UNL1       -0.0390
     22 C           1.1271   -1.6246   -1.2323 C.ar    1  UNL1       -0.0529
     23 C          -0.2497   -1.9036   -1.2049 C.ar    1  UNL1       -0.0196
     24 H          -8.6272    2.3078   -0.1379 H       1  UNL1        0.0245
     25 H          -6.9124    2.8177    0.3325 H       1  UNL1        0.0245
     26 H          -7.1992    1.9085   -1.1516 H       1  UNL1        0.0245
     27 H          -7.7196    0.6249    1.5943 H       1  UNL1        0.0455
     28 H          -7.9923   -1.3520    0.0046 H       1  UNL1        0.0245
     29 H          -9.0372    0.0176   -0.6465 H       1  UNL1        0.0245
     30 H          -7.4209   -0.2722   -1.3200 H       1  UNL1        0.0245
     31 H          -5.6605    0.5720   -0.5033 H       1  UNL1        0.1223
     32 H          -6.0819   -1.7260    0.6149 H       1  UNL1        0.0450
     33 H          -5.8131   -0.7995    2.1311 H       1  UNL1        0.0450
     34 H          -3.8004   -2.0434    1.4735 H       1  UNL1        0.0640
     35 H          -4.0377    0.7610    1.6103 H       1  UNL1        0.2100
     36 H          -4.2923   -2.1722   -0.8296 H       1  UNL1        0.0723
     37 H          -4.0281   -0.3912   -1.1134 H       1  UNL1        0.0723
     38 H          -1.3833    0.8391    0.1766 H       1  UNL1        0.0654
     39 H           0.9384    1.4832    0.2224 H       1  UNL1        0.0622
     40 H           3.1432    1.0589   -0.7420 H       1  UNL1        0.0610
     41 H           3.4866   -0.4106   -1.6556 H       1  UNL1        0.0610
     42 H           5.0454    0.9044    0.6174 H       1  UNL1        0.0583
     43 H           5.2714   -0.6201    1.5463 H       1  UNL1        0.0583
     44 H           5.4942   -0.6181   -1.5400 H       1  UNL1        0.0583
     45 H           5.7787   -1.9179   -0.3901 H       1  UNL1        0.0583
     46 H           6.5789    1.5367   -0.5097 H       1  UNL1        0.0590
     47 H           8.5796    0.3631    1.4461 H       1  UNL1        0.0254
     48 H           7.1546    1.4499    1.8100 H       1  UNL1        0.0254
     49 H           8.6348    2.1053    1.0165 H       1  UNL1        0.0254
     50 H           8.9321    2.1940   -1.0563 H       1  UNL1        0.0254
     51 H           8.2358    1.0125   -2.2770 H       1  UNL1        0.0254
     52 H           9.4075    0.4735   -0.9573 H       1  UNL1        0.0254
     53 H           1.9049   -2.2639   -1.6156 H       1  UNL1        0.0622
     54 H          -0.4030   -2.9028   -1.6486 H       1  UNL1        0.0654
@<TRIPOS>BOND
     1     1     2    1
     2     2     3    1
     3     2     4    1
     4     4     5    1
     5     5     6    1
     6     6     7    1
     7     6     8    1
     8     8     9    1
     9     9    10    1
    10    10    11   ar
    11    11    12   ar
    12    12    13   ar
    13    13    14    1
    14    14    15    1
    15    15    16    1
    16    16    17    1
    17    17    18    1
    18    18    19    1
    19    19    20    1
    20    19    21    1
    21    13    22   ar
    22    22    23   ar
    23    23    10   ar
    24     1    24    1
    25     1    25    1
    26     1    26    1
    27     2    27    1
    28     3    28    1
    29     3    29    1
    30     3    30    1
    31     4    31    1
    32     5    32    1
    33     5    33    1
    34     6    34    1
    35     7    35    1
    36     8    36    1
    37     8    37    1
    38    11    38    1
    39    12    39    1
    40    14    40    1
    41    14    41    1
    42    16    42    1
    43    16    43    1
    44    17    44    1
    45    17    45    1
    46    19    46    1
    47    20    47    1
    48    20    48    1
    49    20    49    1
    50    21    50    1
    51    21    51    1
    52    21    52    1
    53    22    53    1
    54    23    54    1
