@<TRIPOS>MOLECULE
*****
 34 37 0 0 0
SMALL
GASTEIGER

@<TRIPOS>ATOM
      1 C          -3.3238    2.3010   -1.7966 C.3     1  UNL1       -0.0041
      2 C          -3.5627    1.1441   -0.9279 C.ar    1  UNL1        0.1349
      3 N          -4.8389    0.6933   -0.6464 N.ar    1  UNL1       -0.1343
      4 N          -4.7714   -0.3542    0.1159 N.ar    1  UNL1       -0.1340
      5 C          -3.4812   -0.6195    0.3560 C.ar    1  UNL1        0.1383
      6 N          -2.7459    0.3049   -0.2887 N.ar    1  UNL1       -0.2801
      7 C          -1.3083    0.2148   -0.2455 C.ar    1  UNL1        0.0877
      8 C          -0.5437    1.1735   -0.8332 C.ar    1  UNL1        0.1480
      9 F          -0.9914    2.2256   -1.4843 F       1  UNL1       -0.2033
     10 C           0.8538    1.0635   -0.7126 C.ar    1  UNL1       -0.0166
     11 C           1.4629    0.0549   -0.0419 C.ar    1  UNL1       -0.0133
     12 C           2.9294   -0.0170    0.0588 C.ar    1  UNL1        0.0030
     13 C           3.7244    0.4503   -0.9527 C.ar    1  UNL1        0.0354
     14 N           5.0585    0.3930   -0.8707 N.ar    1  UNL1       -0.2598
     15 C           5.6547   -0.1248    0.2065 C.ar    1  UNL1        0.0628
     16 C           4.8916   -0.6027    1.2395 C.ar    1  UNL1        0.1420
     17 F           5.5389   -1.1208    2.3159 F       1  UNL1       -0.2039
     18 C           3.5148   -0.5524    1.1736 C.ar    1  UNL1       -0.0158
     19 C           0.6701   -0.8934    0.5392 C.ar    1  UNL1       -0.0486
     20 C          -0.7189   -0.8432    0.4556 C.ar    1  UNL1       -0.0197
     21 C          -1.4821   -1.9402    1.0861 C.3     1  UNL1       -0.0187
     22 C          -2.9219   -1.6770    1.1881 C.3     1  UNL1        0.0118
     23 H          -2.8306    2.1023   -2.7567 H       1  UNL1        0.0308
     24 H          -4.3629    2.6402   -2.2158 H       1  UNL1        0.0308
     25 H          -3.0710    3.1867   -1.2158 H       1  UNL1        0.0308
     26 H           1.4491    1.8298   -1.1842 H       1  UNL1        0.0653
     27 H           3.3204    0.8885   -1.8672 H       1  UNL1        0.0836
     28 H           6.7493   -0.1674    0.2643 H       1  UNL1        0.0859
     29 H           2.9600   -0.9422    2.0140 H       1  UNL1        0.0653
     30 H           1.1321   -1.7139    1.0844 H       1  UNL1        0.0627
     31 H          -1.2354   -2.9305    0.6162 H       1  UNL1        0.0318
     32 H          -1.0536   -2.0469    2.1324 H       1  UNL1        0.0318
     33 H          -3.1666   -1.5019    2.2775 H       1  UNL1        0.0347
     34 H          -3.4999   -2.6182    0.9164 H       1  UNL1        0.0347
@<TRIPOS>BOND
     1     1     2    1
     2     2     3   ar
     3     3     4   ar
     4     4     5   ar
     5     5     6   ar
     6     6     7    1
     7     7     8   ar
     8     8     9    1
     9     8    10   ar
    10    10    11   ar
    11    11    12    1
    12    12    13   ar
    13    13    14   ar
    14    14    15   ar
    15    15    16   ar
    16    16    17    1
    17    16    18   ar
    18    11    19   ar
    19    19    20   ar
    20    20    21    1
    21    21    22    1
    22     6     2   ar
    23    20     7   ar
    24    22     5    1
    25    18    12   ar
    26     1    23    1
    27     1    24    1
    28     1    25    1
    29    10    26    1
    30    13    27    1
    31    15    28    1
    32    18    29    1
    33    19    30    1
    34    21    31    1
    35    21    32    1
    36    22    33    1
    37    22    34    1
