@<TRIPOS>MOLECULE
*****
 72 77 0 0 0
SMALL
GASTEIGER

@<TRIPOS>ATOM
      1 C          -9.3742   -2.2445    0.2828 C.3     1  UNL1        0.0032
      2 N          -7.9623   -1.9511    0.4380 N.am    1  UNL1       -0.3024
      3 C          -7.3184   -2.0934    1.7225 C.3     1  UNL1        0.0032
      4 C          -7.2084   -1.5277   -0.6795 C.2     1  UNL1        0.2627
      5 O          -7.7659   -1.4132   -1.7974 O.2     1  UNL1       -0.2684
      6 C          -5.7913   -1.2175   -0.5731 C.ar    1  UNL1        0.1070
      7 C          -4.8164   -2.1621   -0.9260 C.ar    1  UNL1       -0.0209
      8 C          -3.6089   -1.5649   -0.7269 C.ar    1  UNL1        0.0378
      9 C          -2.3014   -1.9885   -0.8990 C.ar    1  UNL1        0.0419
     10 N          -1.3167   -1.1208   -0.6031 N.ar    1  UNL1       -0.2219
     11 C          -1.6109    0.1254   -0.1516 C.ar    1  UNL1        0.2224
     12 N          -0.5787    1.0451    0.1504 N.pl3   1  UNL1       -0.2684
     13 C           0.7685    0.6211   -0.0071 C.ar    1  UNL1        0.1251
     14 C           1.8206    1.5066    0.2582 C.ar    1  UNL1       -0.0197
     15 C           3.1360    1.1219    0.1166 C.ar    1  UNL1       -0.0354
     16 C           3.4706   -0.1576   -0.2942 C.ar    1  UNL1        0.0578
     17 N           4.8251   -0.5642   -0.4579 N.am    1  UNL1       -0.2320
     18 C           5.7711   -1.1181    0.4875 C.3     1  UNL1        0.0630
     19 C           7.0657   -0.5206   -0.0184 C.3     1  UNL1        0.1324
     20 C           8.2571   -1.4126    0.2417 C.3     1  UNL1       -0.0100
     21 C           9.5138   -0.7815   -0.3059 C.3     1  UNL1       -0.0368
     22 C           9.9481    0.4154    0.4937 C.3     1  UNL1       -0.0040
     23 N           9.2902    0.5292    1.7532 N.3     1  UNL1       -0.3158
     24 C           7.9676    1.0564    1.7313 C.3     1  UNL1       -0.0004
     25 C           7.2794    0.8897    0.4189 C.3     1  UNL1        0.0013
     26 O           6.8989   -0.4775   -1.4470 O.3     1  UNL1       -0.4418
     27 C           5.5479   -0.4778   -1.6999 C.2     1  UNL1        0.4079
     28 O           4.9569   -0.4148   -2.8280 O.2     1  UNL1       -0.2259
     29 C           2.4096   -1.0070   -0.5473 C.ar    1  UNL1        0.0512
     30 N           1.1139   -0.6123   -0.4030 N.ar    1  UNL1       -0.2383
     31 N          -2.8815    0.5275    0.0134 N.ar    1  UNL1       -0.1962
     32 C          -3.8739   -0.2986   -0.2675 C.ar    1  UNL1        0.1466
     33 N          -5.2127   -0.0970   -0.1769 N.ar    1  UNL1       -0.3180
     34 C          -5.8358    1.1016    0.2702 C.3     1  UNL1        0.0366
     35 C          -4.8364    2.2253    0.4764 C.3     1  UNL1       -0.0320
     36 C          -5.7598    3.4404    0.5783 C.3     1  UNL1       -0.0511
     37 C          -6.9988    3.0989   -0.1761 C.3     1  UNL1       -0.0511
     38 C          -6.7309    1.7128   -0.7764 C.3     1  UNL1       -0.0320
     39 H          -9.6883   -3.1191    0.8650 H       1  UNL1        0.0428
     40 H         -10.0029   -1.3835    0.5860 H       1  UNL1        0.0428
     41 H          -9.5449   -2.4842   -0.7895 H       1  UNL1        0.0428
     42 H          -8.1305   -2.2185    2.4939 H       1  UNL1        0.0428
     43 H          -6.6170   -1.2934    1.9755 H       1  UNL1        0.0428
     44 H          -6.7244   -3.0537    1.6516 H       1  UNL1        0.0428
     45 H          -4.9750   -3.1582   -1.2833 H       1  UNL1        0.0647
     46 H          -2.0808   -2.9930   -1.2628 H       1  UNL1        0.0838
     47 H          -0.8365    1.9979    0.4763 H       1  UNL1        0.1564
     48 H           1.5321    2.5009    0.5790 H       1  UNL1        0.0652
     49 H           3.9239    1.8293    0.3276 H       1  UNL1        0.0638
     50 H           5.7887   -2.2096    0.3244 H       1  UNL1        0.0509
     51 H           5.5581   -0.8295    1.5291 H       1  UNL1        0.0509
     52 H           8.1042   -2.3657   -0.3050 H       1  UNL1        0.0305
     53 H           8.3599   -1.6842    1.3097 H       1  UNL1        0.0305
     54 H          10.2824   -1.5650   -0.3907 H       1  UNL1        0.0279
     55 H           9.2619   -0.4180   -1.3369 H       1  UNL1        0.0279
     56 H           9.8289    1.3656   -0.0624 H       1  UNL1        0.0424
     57 H          11.0491    0.3298    0.6975 H       1  UNL1        0.0424
     58 H           9.4914   -0.2024    2.4397 H       1  UNL1        0.1219
     59 H           7.3778    0.6282    2.5569 H       1  UNL1        0.0425
     60 H           8.0206    2.1676    1.9143 H       1  UNL1        0.0425
     61 H           6.2601    1.3545    0.5303 H       1  UNL1        0.0317
     62 H           7.8214    1.4301   -0.3835 H       1  UNL1        0.0317
     63 H           2.6427   -2.0224   -0.8716 H       1  UNL1        0.0849
     64 H          -6.3549    0.9604    1.2383 H       1  UNL1        0.0528
     65 H          -4.2293    2.4085   -0.4464 H       1  UNL1        0.0285
     66 H          -4.1924    2.1097    1.3424 H       1  UNL1        0.0285
     67 H          -5.9587    3.5862    1.6764 H       1  UNL1        0.0266
     68 H          -5.2789    4.3394    0.1349 H       1  UNL1        0.0266
     69 H          -7.8194    2.9582    0.5593 H       1  UNL1        0.0266
     70 H          -7.2818    3.8173   -0.9733 H       1  UNL1        0.0266
     71 H          -6.1599    1.8564   -1.6989 H       1  UNL1        0.0285
     72 H          -7.6857    1.1664   -0.9185 H       1  UNL1        0.0285
@<TRIPOS>BOND
     1     1     2    1
     2     2     3    1
     3     2     4   am
     4     4     5    2
     5     4     6    1
     6     6     7   ar
     7     7     8   ar
     8     8     9   ar
     9     9    10   ar
    10    10    11   ar
    11    11    12    1
    12    12    13    1
    13    13    14   ar
    14    14    15   ar
    15    15    16   ar
    16    16    17    1
    17    17    18    1
    18    18    19    1
    19    19    20    1
    20    20    21    1
    21    21    22    1
    22    22    23    1
    23    23    24    1
    24    24    25    1
    25    19    26    1
    26    26    27    1
    27    27    28    2
    28    16    29   ar
    29    29    30   ar
    30    11    31   ar
    31    31    32   ar
    32    32    33   ar
    33    33    34    1
    34    34    35    1
    35    35    36    1
    36    36    37    1
    37    37    38    1
    38    33     6   ar
    39    38    34    1
    40    32     8   ar
    41    30    13   ar
    42    27    17   am
    43    25    19    1
    44     1    39    1
    45     1    40    1
    46     1    41    1
    47     3    42    1
    48     3    43    1
    49     3    44    1
    50     7    45    1
    51     9    46    1
    52    12    47    1
    53    14    48    1
    54    15    49    1
    55    18    50    1
    56    18    51    1
    57    20    52    1
    58    20    53    1
    59    21    54    1
    60    21    55    1
    61    22    56    1
    62    22    57    1
    63    23    58    1
    64    24    59    1
    65    24    60    1
    66    25    61    1
    67    25    62    1
    68    29    63    1
    69    34    64    1
    70    35    65    1
    71    35    66    1
    72    36    67    1
    73    36    68    1
    74    37    69    1
    75    37    70    1
    76    38    71    1
    77    38    72    1
