
     RDKit          3D

 72 77  0  0  0  0  0  0  0  0999 V2000
   -9.3742   -2.2445    0.2828 C   0  0  0  0  0  0  0  0  0  0  0  0
   -7.9623   -1.9511    0.4380 N   0  0  0  0  0  0  0  0  0  0  0  0
   -7.3184   -2.0934    1.7225 C   0  0  0  0  0  0  0  0  0  0  0  0
   -7.2084   -1.5277   -0.6795 C   0  0  0  0  0  0  0  0  0  0  0  0
   -7.7659   -1.4132   -1.7974 O   0  0  0  0  0  0  0  0  0  0  0  0
   -5.7913   -1.2175   -0.5731 C   0  0  0  0  0  0  0  0  0  0  0  0
   -4.8164   -2.1621   -0.9260 C   0  0  0  0  0  0  0  0  0  0  0  0
   -3.6089   -1.5649   -0.7269 C   0  0  0  0  0  0  0  0  0  0  0  0
   -2.3014   -1.9885   -0.8990 C   0  0  0  0  0  0  0  0  0  0  0  0
   -1.3167   -1.1208   -0.6031 N   0  0  0  0  0  0  0  0  0  0  0  0
   -1.6109    0.1254   -0.1516 C   0  0  0  0  0  0  0  0  0  0  0  0
   -0.5787    1.0451    0.1504 N   0  0  0  0  0  0  0  0  0  0  0  0
    0.7685    0.6211   -0.0071 C   0  0  0  0  0  0  0  0  0  0  0  0
    1.8206    1.5066    0.2582 C   0  0  0  0  0  0  0  0  0  0  0  0
    3.1360    1.1219    0.1166 C   0  0  0  0  0  0  0  0  0  0  0  0
    3.4706   -0.1576   -0.2942 C   0  0  0  0  0  0  0  0  0  0  0  0
    4.8251   -0.5642   -0.4579 N   0  0  0  0  0  0  0  0  0  0  0  0
    5.7711   -1.1181    0.4875 C   0  0  0  0  0  0  0  0  0  0  0  0
    7.0657   -0.5206   -0.0184 C   0  0  2  0  0  0  0  0  0  0  0  0
    8.2571   -1.4126    0.2417 C   0  0  0  0  0  0  0  0  0  0  0  0
    9.5138   -0.7815   -0.3059 C   0  0  0  0  0  0  0  0  0  0  0  0
    9.9481    0.4154    0.4937 C   0  0  0  0  0  0  0  0  0  0  0  0
    9.2902    0.5292    1.7532 N   0  0  0  0  0  0  0  0  0  0  0  0
    7.9676    1.0564    1.7313 C   0  0  0  0  0  0  0  0  0  0  0  0
    7.2794    0.8897    0.4189 C   0  0  0  0  0  0  0  0  0  0  0  0
    6.8989   -0.4775   -1.4470 O   0  0  0  0  0  0  0  0  0  0  0  0
    5.5479   -0.4778   -1.6999 C   0  0  0  0  0  0  0  0  0  0  0  0
    4.9569   -0.4148   -2.8280 O   0  0  0  0  0  0  0  0  0  0  0  0
    2.4096   -1.0070   -0.5473 C   0  0  0  0  0  0  0  0  0  0  0  0
    1.1139   -0.6123   -0.4030 N   0  0  0  0  0  0  0  0  0  0  0  0
   -2.8815    0.5275    0.0134 N   0  0  0  0  0  0  0  0  0  0  0  0
   -3.8739   -0.2986   -0.2675 C   0  0  0  0  0  0  0  0  0  0  0  0
   -5.2127   -0.0970   -0.1769 N   0  0  0  0  0  0  0  0  0  0  0  0
   -5.8358    1.1016    0.2702 C   0  0  0  0  0  0  0  0  0  0  0  0
   -4.8364    2.2253    0.4764 C   0  0  0  0  0  0  0  0  0  0  0  0
   -5.7598    3.4404    0.5783 C   0  0  0  0  0  0  0  0  0  0  0  0
   -6.9988    3.0989   -0.1761 C   0  0  0  0  0  0  0  0  0  0  0  0
   -6.7309    1.7128   -0.7764 C   0  0  0  0  0  0  0  0  0  0  0  0
   -9.6883   -3.1191    0.8650 H   0  0  0  0  0  0  0  0  0  0  0  0
  -10.0029   -1.3835    0.5860 H   0  0  0  0  0  0  0  0  0  0  0  0
   -9.5449   -2.4842   -0.7895 H   0  0  0  0  0  0  0  0  0  0  0  0
   -8.1305   -2.2185    2.4939 H   0  0  0  0  0  0  0  0  0  0  0  0
   -6.6170   -1.2934    1.9755 H   0  0  0  0  0  0  0  0  0  0  0  0
   -6.7244   -3.0537    1.6516 H   0  0  0  0  0  0  0  0  0  0  0  0
   -4.9750   -3.1582   -1.2833 H   0  0  0  0  0  0  0  0  0  0  0  0
   -2.0808   -2.9930   -1.2628 H   0  0  0  0  0  0  0  0  0  0  0  0
   -0.8365    1.9979    0.4763 H   0  0  0  0  0  0  0  0  0  0  0  0
    1.5321    2.5009    0.5790 H   0  0  0  0  0  0  0  0  0  0  0  0
    3.9239    1.8293    0.3276 H   0  0  0  0  0  0  0  0  0  0  0  0
    5.7887   -2.2096    0.3244 H   0  0  0  0  0  0  0  0  0  0  0  0
    5.5581   -0.8295    1.5291 H   0  0  0  0  0  0  0  0  0  0  0  0
    8.1042   -2.3657   -0.3050 H   0  0  0  0  0  0  0  0  0  0  0  0
    8.3599   -1.6842    1.3097 H   0  0  0  0  0  0  0  0  0  0  0  0
   10.2824   -1.5650   -0.3907 H   0  0  0  0  0  0  0  0  0  0  0  0
    9.2619   -0.4180   -1.3369 H   0  0  0  0  0  0  0  0  0  0  0  0
    9.8289    1.3656   -0.0624 H   0  0  0  0  0  0  0  0  0  0  0  0
   11.0491    0.3298    0.6975 H   0  0  0  0  0  0  0  0  0  0  0  0
    9.4914   -0.2024    2.4397 H   0  0  0  0  0  0  0  0  0  0  0  0
    7.3778    0.6282    2.5569 H   0  0  0  0  0  0  0  0  0  0  0  0
    8.0206    2.1676    1.9143 H   0  0  0  0  0  0  0  0  0  0  0  0
    6.2601    1.3545    0.5303 H   0  0  0  0  0  0  0  0  0  0  0  0
    7.8214    1.4301   -0.3835 H   0  0  0  0  0  0  0  0  0  0  0  0
    2.6427   -2.0224   -0.8716 H   0  0  0  0  0  0  0  0  0  0  0  0
   -6.3549    0.9604    1.2383 H   0  0  0  0  0  0  0  0  0  0  0  0
   -4.2293    2.4085   -0.4464 H   0  0  0  0  0  0  0  0  0  0  0  0
   -4.1924    2.1097    1.3424 H   0  0  0  0  0  0  0  0  0  0  0  0
   -5.9587    3.5862    1.6764 H   0  0  0  0  0  0  0  0  0  0  0  0
   -5.2789    4.3394    0.1349 H   0  0  0  0  0  0  0  0  0  0  0  0
   -7.8194    2.9582    0.5593 H   0  0  0  0  0  0  0  0  0  0  0  0
   -7.2818    3.8173   -0.9733 H   0  0  0  0  0  0  0  0  0  0  0  0
   -6.1599    1.8564   -1.6989 H   0  0  0  0  0  0  0  0  0  0  0  0
   -7.6857    1.1664   -0.9185 H   0  0  0  0  0  0  0  0  0  0  0  0
  1  2  1  0
  2  3  1  0
  2  4  1  0
  4  5  2  0
  4  6  1  0
  6  7  2  0
  7  8  1  0
  8  9  2  0
  9 10  1  0
 10 11  2  0
 11 12  1  0
 12 13  1  0
 13 14  2  0
 14 15  1  0
 15 16  2  0
 16 17  1  0
 17 18  1  0
 18 19  1  0
 19 20  1  0
 20 21  1  0
 21 22  1  0
 22 23  1  0
 23 24  1  0
 24 25  1  0
 19 26  1  6
 26 27  1  0
 27 28  2  0
 16 29  1  0
 29 30  2  0
 11 31  1  0
 31 32  2  0
 32 33  1  0
 33 34  1  0
 34 35  1  0
 35 36  1  0
 36 37  1  0
 37 38  1  0
 33  6  1  0
 38 34  1  0
 32  8  1  0
 30 13  1  0
 27 17  1  0
 25 19  1  0
  1 39  1  0
  1 40  1  0
  1 41  1  0
  3 42  1  0
  3 43  1  0
  3 44  1  0
  7 45  1  0
  9 46  1  0
 12 47  1  0
 14 48  1  0
 15 49  1  0
 18 50  1  0
 18 51  1  0
 20 52  1  0
 20 53  1  0
 21 54  1  0
 21 55  1  0
 22 56  1  0
 22 57  1  0
 23 58  1  0
 24 59  1  0
 24 60  1  0
 25 61  1  0
 25 62  1  0
 29 63  1  0
 34 64  1  0
 35 65  1  0
 35 66  1  0
 36 67  1  0
 36 68  1  0
 37 69  1  0
 37 70  1  0
 38 71  1  0
 38 72  1  0
M  END
$$$$
