@<TRIPOS>MOLECULE
*****
 43 45 0 0 0
SMALL
GASTEIGER

@<TRIPOS>ATOM
      1 C           0.4023   -3.3629   -0.0826 C.3     1  UNL1       -0.0606
      2 C          -0.0222   -2.0419    0.4451 C.3     1  UNL1       -0.0224
      3 C          -1.4862   -1.7622    0.2856 C.3     1  UNL1       -0.0328
      4 C          -1.8510   -0.7976    1.4069 C.3     1  UNL1        0.0151
      5 N          -0.6825   -0.0184    1.7656 N.am    1  UNL1       -0.2989
      6 C          -0.4264    0.3876    3.1040 C.2     1  UNL1        0.2295
      7 O           0.5812    1.0658    3.4178 O.2     1  UNL1       -0.2745
      8 C          -1.3638    0.0190    4.2144 C.3     1  UNL1        0.1112
      9 C          -0.9662    0.5762    5.4713 C.1     1  UNL1        0.0719
     10 N          -0.6180    1.0305    6.5381 N.1     1  UNL1       -0.1961
     11 C           0.2333    0.3429    0.7011 C.3     1  UNL1        0.0335
     12 C           0.7601   -0.8538   -0.0581 C.3     1  UNL1        0.0429
     13 N           0.6647   -0.6428   -1.4644 N.pl3   1  UNL1       -0.3128
     14 C           1.0728   -1.6573   -2.4435 C.3     1  UNL1        0.0024
     15 C           0.1874    0.5605   -2.0365 C.ar    1  UNL1        0.1338
     16 N          -0.9767    0.5722   -2.7125 N.ar    1  UNL1       -0.2200
     17 C          -1.4225    1.7015   -3.2423 C.ar    1  UNL1        0.1204
     18 N          -0.7900    2.8849   -3.1618 N.ar    1  UNL1       -0.2178
     19 C           0.4014    2.9408   -2.4863 C.ar    1  UNL1        0.1432
     20 N           1.2580    3.9360   -2.2298 N.ar    1  UNL1       -0.3457
     21 C           2.2732    3.4414   -1.5224 C.ar    1  UNL1        0.0042
     22 C           2.0558    2.1018   -1.3257 C.ar    1  UNL1       -0.0318
     23 C           0.8720    1.7606   -1.9296 C.ar    1  UNL1        0.0585
     24 H           1.4796   -3.4856    0.0484 H       1  UNL1        0.0233
     25 H          -0.0002   -3.6202   -1.0728 H       1  UNL1        0.0233
     26 H          -0.0551   -4.1360    0.6100 H       1  UNL1        0.0233
     27 H           0.1795   -2.0720    1.5581 H       1  UNL1        0.0317
     28 H          -2.0322   -2.7319    0.4019 H       1  UNL1        0.0284
     29 H          -1.7299   -1.3106   -0.7099 H       1  UNL1        0.0284
     30 H          -2.6971   -0.1692    1.0713 H       1  UNL1        0.0465
     31 H          -2.1855   -1.4130    2.2800 H       1  UNL1        0.0465
     32 H          -1.4665   -1.0805    4.2971 H       1  UNL1        0.0513
     33 H          -2.3798    0.4215    3.9583 H       1  UNL1        0.0513
     34 H           1.0645    0.9614    1.1151 H       1  UNL1        0.0483
     35 H          -0.3627    1.0129    0.0314 H       1  UNL1        0.0483
     36 H           1.8327   -0.9847    0.2781 H       1  UNL1        0.0518
     37 H           0.1743   -2.1012   -2.9162 H       1  UNL1        0.0428
     38 H           1.7928   -2.3691   -2.0359 H       1  UNL1        0.0428
     39 H           1.6287   -1.1571   -3.2960 H       1  UNL1        0.0428
     40 H          -2.3597    1.6824   -3.7784 H       1  UNL1        0.1048
     41 H           1.1252    4.9467   -2.5492 H       1  UNL1        0.1668
     42 H           3.1417    4.0202   -1.1580 H       1  UNL1        0.0807
     43 H           2.6929    1.4013   -0.7878 H       1  UNL1        0.0640
@<TRIPOS>BOND
     1     1     2    1
     2     2     3    1
     3     3     4    1
     4     4     5    1
     5     5     6   am
     6     6     7    2
     7     6     8    1
     8     8     9    1
     9     9    10    3
    10     5    11    1
    11    11    12    1
    12    12    13    1
    13    13    14    1
    14    13    15    1
    15    15    16   ar
    16    16    17   ar
    17    17    18   ar
    18    18    19   ar
    19    19    20   ar
    20    20    21   ar
    21    21    22   ar
    22    22    23   ar
    23    12     2    1
    24    23    15   ar
    25    23    19   ar
    26     1    24    1
    27     1    25    1
    28     1    26    1
    29     2    27    1
    30     3    28    1
    31     3    29    1
    32     4    30    1
    33     4    31    1
    34     8    32    1
    35     8    33    1
    36    11    34    1
    37    11    35    1
    38    12    36    1
    39    14    37    1
    40    14    38    1
    41    14    39    1
    42    17    40    1
    43    20    41    1
    44    21    42    1
    45    22    43    1
