
     RDKit          3D

 43 45  0  0  0  0  0  0  0  0999 V2000
    0.4023   -3.3629   -0.0826 C   0  0  0  0  0  0  0  0  0  0  0  0
   -0.0222   -2.0419    0.4451 C   0  0  2  0  0  0  0  0  0  0  0  0
   -1.4862   -1.7622    0.2856 C   0  0  0  0  0  0  0  0  0  0  0  0
   -1.8510   -0.7976    1.4069 C   0  0  0  0  0  0  0  0  0  0  0  0
   -0.6825   -0.0184    1.7656 N   0  0  0  0  0  0  0  0  0  0  0  0
   -0.4264    0.3876    3.1040 C   0  0  0  0  0  0  0  0  0  0  0  0
    0.5812    1.0658    3.4178 O   0  0  0  0  0  0  0  0  0  0  0  0
   -1.3638    0.0190    4.2144 C   0  0  0  0  0  0  0  0  0  0  0  0
   -0.9662    0.5762    5.4713 C   0  0  0  0  0  0  0  0  0  0  0  0
   -0.6180    1.0305    6.5381 N   0  0  0  0  0  0  0  0  0  0  0  0
    0.2333    0.3429    0.7011 C   0  0  0  0  0  0  0  0  0  0  0  0
    0.7601   -0.8538   -0.0581 C   0  0  2  0  0  0  0  0  0  0  0  0
    0.6647   -0.6428   -1.4644 N   0  0  0  0  0  0  0  0  0  0  0  0
    1.0728   -1.6573   -2.4435 C   0  0  0  0  0  0  0  0  0  0  0  0
    0.1874    0.5605   -2.0365 C   0  0  0  0  0  0  0  0  0  0  0  0
   -0.9767    0.5722   -2.7125 N   0  0  0  0  0  0  0  0  0  0  0  0
   -1.4225    1.7015   -3.2423 C   0  0  0  0  0  0  0  0  0  0  0  0
   -0.7900    2.8849   -3.1618 N   0  0  0  0  0  0  0  0  0  0  0  0
    0.4014    2.9408   -2.4863 C   0  0  0  0  0  0  0  0  0  0  0  0
    1.2580    3.9360   -2.2298 N   0  0  0  0  0  0  0  0  0  0  0  0
    2.2732    3.4414   -1.5224 C   0  0  0  0  0  0  0  0  0  0  0  0
    2.0558    2.1018   -1.3257 C   0  0  0  0  0  0  0  0  0  0  0  0
    0.8720    1.7606   -1.9296 C   0  0  0  0  0  0  0  0  0  0  0  0
    1.4796   -3.4856    0.0484 H   0  0  0  0  0  0  0  0  0  0  0  0
   -0.0002   -3.6202   -1.0728 H   0  0  0  0  0  0  0  0  0  0  0  0
   -0.0551   -4.1360    0.6100 H   0  0  0  0  0  0  0  0  0  0  0  0
    0.1795   -2.0720    1.5581 H   0  0  0  0  0  0  0  0  0  0  0  0
   -2.0322   -2.7319    0.4019 H   0  0  0  0  0  0  0  0  0  0  0  0
   -1.7299   -1.3106   -0.7099 H   0  0  0  0  0  0  0  0  0  0  0  0
   -2.6971   -0.1692    1.0713 H   0  0  0  0  0  0  0  0  0  0  0  0
   -2.1855   -1.4130    2.2800 H   0  0  0  0  0  0  0  0  0  0  0  0
   -1.4665   -1.0805    4.2971 H   0  0  0  0  0  0  0  0  0  0  0  0
   -2.3798    0.4215    3.9583 H   0  0  0  0  0  0  0  0  0  0  0  0
    1.0645    0.9614    1.1151 H   0  0  0  0  0  0  0  0  0  0  0  0
   -0.3627    1.0129    0.0314 H   0  0  0  0  0  0  0  0  0  0  0  0
    1.8327   -0.9847    0.2781 H   0  0  0  0  0  0  0  0  0  0  0  0
    0.1743   -2.1012   -2.9162 H   0  0  0  0  0  0  0  0  0  0  0  0
    1.7928   -2.3691   -2.0359 H   0  0  0  0  0  0  0  0  0  0  0  0
    1.6287   -1.1571   -3.2960 H   0  0  0  0  0  0  0  0  0  0  0  0
   -2.3597    1.6824   -3.7784 H   0  0  0  0  0  0  0  0  0  0  0  0
    1.1252    4.9467   -2.5492 H   0  0  0  0  0  0  0  0  0  0  0  0
    3.1417    4.0202   -1.1580 H   0  0  0  0  0  0  0  0  0  0  0  0
    2.6929    1.4013   -0.7878 H   0  0  0  0  0  0  0  0  0  0  0  0
  1  2  1  0
  2  3  1  0
  3  4  1  0
  4  5  1  0
  5  6  1  0
  6  7  2  0
  6  8  1  0
  8  9  1  0
  9 10  3  0
  5 11  1  0
 11 12  1  0
 12 13  1  0
 13 14  1  0
 13 15  1  0
 15 16  2  0
 16 17  1  0
 17 18  2  0
 18 19  1  0
 19 20  1  0
 20 21  1  0
 21 22  2  0
 22 23  1  0
 12  2  1  0
 23 15  1  0
 23 19  2  0
  1 24  1  0
  1 25  1  0
  1 26  1  0
  2 27  1  1
  3 28  1  0
  3 29  1  0
  4 30  1  0
  4 31  1  0
  8 32  1  0
  8 33  1  0
 11 34  1  0
 11 35  1  0
 12 36  1  6
 14 37  1  0
 14 38  1  0
 14 39  1  0
 17 40  1  0
 20 41  1  0
 21 42  1  0
 22 43  1  0
M  END
$$$$
