@<TRIPOS>MOLECULE
*****
 75 78 0 0 0
SMALL
GASTEIGER

@<TRIPOS>ATOM
      1 C          -5.5352   -0.7056    0.9892 C.3     1  UNL1        0.1130
      2 C          -6.1391   -1.8845    1.7513 C.3     1  UNL1        0.0730
      3 O          -7.5242   -1.7476    1.8276 O.3     1  UNL1       -0.3924
      4 O          -4.1775   -0.9333    0.9693 O.3     1  UNL1       -0.3409
      5 C          -3.4452   -0.0115    0.2207 C.3     1  UNL1        0.1848
      6 O          -2.4120   -0.7738   -0.3457 O.3     1  UNL1       -0.3405
      7 C          -1.1857   -0.4261    0.1073 C.3     1  UNL1        0.1180
      8 C          -0.2445   -0.0673   -0.9936 C.3     1  UNL1        0.1143
      9 C          -0.8292    0.5137   -2.2204 C.3     1  UNL1        0.0731
     10 O          -1.7537   -0.4333   -2.7207 O.3     1  UNL1       -0.3924
     11 O           0.7478    0.7115   -0.3743 O.3     1  UNL1       -0.3316
     12 C           1.5857   -0.1587    0.3429 C.3     1  UNL1        0.2272
     13 O           2.5466    0.6666    0.9693 O.3     1  UNL1       -0.4612
     14 C           3.8814    0.7307    0.6663 C.ar    1  UNL1        0.1275
     15 C           4.6570    0.0753   -0.2597 C.ar    1  UNL1        0.0232
     16 C           6.0060    0.3314   -0.3590 C.ar    1  UNL1        0.1428
     17 C           6.6444    1.2541    0.4618 C.ar    1  UNL1        0.0207
     18 C           5.8781    1.9272    1.4043 C.ar    1  UNL1       -0.0474
     19 C           4.5210    1.6583    1.4919 C.ar    1  UNL1       -0.0190
     20 C           7.9980    1.4017    0.2437 C.ar    1  UNL1       -0.0330
     21 C           8.6979    2.3833    1.1110 C.3     1  UNL1       -0.0388
     22 C           8.6327    0.6620   -0.7342 C.ar    1  UNL1        0.0265
     23 C           7.8929   -0.2252   -1.4882 C.ar    1  UNL1        0.3375
     24 O           8.4759   -0.9040   -2.3858 O.2     1  UNL1       -0.2452
     25 O           6.6074   -0.3762   -1.2929 O.2     1  UNL1       -0.4220
     26 C           0.8972   -0.9977    1.3577 C.3     1  UNL1        0.1444
     27 N           1.6653   -2.0902    1.8513 N.2     1  UNL1       -0.2427
     28 C           2.1711   -3.0645    1.2183 C.2     1  UNL1        0.1798
     29 C           2.2614   -3.5843   -0.1936 C.3     1  UNL1        0.0112
     30 O           2.8605   -3.9392    2.0590 O.2     1  UNL1       -0.4958
     31 C          -0.4796   -1.4950    0.9437 C.3     1  UNL1        0.1120
     32 O          -1.2101   -1.6941    2.1109 O.3     1  UNL1       -0.3868
     33 C          -4.2435    0.6718   -0.8184 C.3     1  UNL1        0.1331
     34 N          -5.0351    1.7772   -0.2913 N.2     1  UNL1       -0.2439
     35 C          -4.6525    2.9844   -0.2082 C.2     1  UNL1        0.1797
     36 C          -3.3549    3.6284   -0.5960 C.3     1  UNL1        0.0112
     37 O          -5.5907    3.8629    0.3328 O.2     1  UNL1       -0.4958
     38 C          -5.2390   -0.2825   -1.4602 C.3     1  UNL1        0.1106
     39 O          -4.5721   -1.3947   -1.9360 O.3     1  UNL1       -0.3868
     40 C          -6.1980   -0.6722   -0.3531 C.3     1  UNL1        0.1115
     41 O          -7.2955    0.1821   -0.2806 O.3     1  UNL1       -0.3865
     42 H          -5.7531    0.2090    1.5607 H       1  UNL1        0.0647
     43 H          -5.9423   -2.8382    1.2166 H       1  UNL1        0.0584
     44 H          -5.6907   -1.9896    2.7490 H       1  UNL1        0.0584
     45 H          -7.7623   -0.8129    2.0050 H       1  UNL1        0.2095
     46 H          -3.0370    0.7474    0.9312 H       1  UNL1        0.0933
     47 H          -1.3063    0.4572    0.7819 H       1  UNL1        0.0650
     48 H           0.2900   -1.0074   -1.3197 H       1  UNL1        0.0647
     49 H          -0.0408    0.5604   -2.9963 H       1  UNL1        0.0584
     50 H          -1.2915    1.5069   -2.1064 H       1  UNL1        0.0584
     51 H          -1.3259   -1.3222   -2.5867 H       1  UNL1        0.2095
     52 H           2.1147   -0.7418   -0.4380 H       1  UNL1        0.1079
     53 H           4.0911   -0.6169   -0.8512 H       1  UNL1        0.0691
     54 H           6.4253    2.6163    1.9977 H       1  UNL1        0.0626
     55 H           4.0686    2.2656    2.2756 H       1  UNL1        0.0654
     56 H           8.5604    3.4305    0.7769 H       1  UNL1        0.0278
     57 H           9.7830    2.1677    1.0308 H       1  UNL1        0.0278
     58 H           8.4449    2.2674    2.1907 H       1  UNL1        0.0278
     59 H           9.6977    0.8007   -0.8812 H       1  UNL1        0.0692
     60 H           0.7121   -0.3296    2.2514 H       1  UNL1        0.0635
     61 H           1.9060   -4.6435   -0.2350 H       1  UNL1        0.0324
     62 H           1.5922   -3.0374   -0.8811 H       1  UNL1        0.0324
     63 H           3.3183   -3.6284   -0.5139 H       1  UNL1        0.0324
     64 H           2.9950   -3.8050    3.0496 H       1  UNL1        0.2934
     65 H          -0.3593   -2.3994    0.3522 H       1  UNL1        0.0644
     66 H          -1.2793   -0.8300    2.5884 H       1  UNL1        0.2100
     67 H          -3.6483    1.1120   -1.6340 H       1  UNL1        0.0623
     68 H          -2.5646    2.8384   -0.5686 H       1  UNL1        0.0324
     69 H          -3.0647    4.3998    0.1398 H       1  UNL1        0.0324
     70 H          -3.3900    4.0851   -1.5962 H       1  UNL1        0.0324
     71 H          -6.3457    3.5170    0.9155 H       1  UNL1        0.2934
     72 H          -5.7656    0.2148   -2.2785 H       1  UNL1        0.0643
     73 H          -4.6771   -1.4574   -2.9241 H       1  UNL1        0.2100
     74 H          -6.5933   -1.6772   -0.6559 H       1  UNL1        0.0647
     75 H          -7.6725    0.3796   -1.1756 H       1  UNL1        0.2100
@<TRIPOS>BOND
     1     1     2    1
     2     2     3    1
     3     1     4    1
     4     4     5    1
     5     5     6    1
     6     6     7    1
     7     7     8    1
     8     8     9    1
     9     9    10    1
    10     8    11    1
    11    11    12    1
    12    12    13    1
    13    13    14    1
    14    14    15   ar
    15    15    16   ar
    16    16    17   ar
    17    17    18   ar
    18    18    19   ar
    19    17    20   ar
    20    20    21    1
    21    20    22   ar
    22    22    23   ar
    23    23    24    2
    24    23    25   ar
    25    12    26    1
    26    26    27    1
    27    27    28    2
    28    28    29    1
    29    28    30    1
    30    26    31    1
    31    31    32    1
    32     5    33    1
    33    33    34    1
    34    34    35    2
    35    35    36    1
    36    35    37    1
    37    33    38    1
    38    38    39    1
    39    38    40    1
    40    40    41    1
    41    40     1    1
    42    31     7    1
    43    19    14   ar
    44    25    16   ar
    45     1    42    1
    46     2    43    1
    47     2    44    1
    48     3    45    1
    49     5    46    1
    50     7    47    1
    51     8    48    1
    52     9    49    1
    53     9    50    1
    54    10    51    1
    55    12    52    1
    56    15    53    1
    57    18    54    1
    58    19    55    1
    59    21    56    1
    60    21    57    1
    61    21    58    1
    62    22    59    1
    63    26    60    1
    64    29    61    1
    65    29    62    1
    66    29    63    1
    67    30    64    1
    68    31    65    1
    69    32    66    1
    70    33    67    1
    71    36    68    1
    72    36    69    1
    73    36    70    1
    74    37    71    1
    75    38    72    1
    76    39    73    1
    77    40    74    1
    78    41    75    1
