
     RDKit          3D

 75 78  0  0  0  0  0  0  0  0999 V2000
   -5.5352   -0.7056    0.9892 C   0  0  1  0  0  0  0  0  0  0  0  0
   -6.1391   -1.8845    1.7513 C   0  0  0  0  0  0  0  0  0  0  0  0
   -7.5242   -1.7476    1.8276 O   0  0  0  0  0  0  0  0  0  0  0  0
   -4.1775   -0.9333    0.9693 O   0  0  0  0  0  0  0  0  0  0  0  0
   -3.4452   -0.0115    0.2207 C   0  0  1  0  0  0  0  0  0  0  0  0
   -2.4120   -0.7738   -0.3457 O   0  0  0  0  0  0  0  0  0  0  0  0
   -1.1857   -0.4261    0.1073 C   0  0  2  0  0  0  0  0  0  0  0  0
   -0.2445   -0.0673   -0.9936 C   0  0  1  0  0  0  0  0  0  0  0  0
   -0.8292    0.5137   -2.2204 C   0  0  0  0  0  0  0  0  0  0  0  0
   -1.7537   -0.4333   -2.7207 O   0  0  0  0  0  0  0  0  0  0  0  0
    0.7478    0.7115   -0.3743 O   0  0  0  0  0  0  0  0  0  0  0  0
    1.5857   -0.1587    0.3429 C   0  0  1  0  0  0  0  0  0  0  0  0
    2.5466    0.6666    0.9693 O   0  0  0  0  0  0  0  0  0  0  0  0
    3.8814    0.7307    0.6663 C   0  0  0  0  0  0  0  0  0  0  0  0
    4.6570    0.0753   -0.2597 C   0  0  0  0  0  0  0  0  0  0  0  0
    6.0060    0.3314   -0.3590 C   0  0  0  0  0  0  0  0  0  0  0  0
    6.6444    1.2541    0.4618 C   0  0  0  0  0  0  0  0  0  0  0  0
    5.8781    1.9272    1.4043 C   0  0  0  0  0  0  0  0  0  0  0  0
    4.5210    1.6583    1.4919 C   0  0  0  0  0  0  0  0  0  0  0  0
    7.9980    1.4017    0.2437 C   0  0  0  0  0  0  0  0  0  0  0  0
    8.6979    2.3833    1.1110 C   0  0  0  0  0  0  0  0  0  0  0  0
    8.6327    0.6620   -0.7342 C   0  0  0  0  0  0  0  0  0  0  0  0
    7.8929   -0.2252   -1.4882 C   0  0  0  0  0  0  0  0  0  0  0  0
    8.4759   -0.9040   -2.3858 O   0  0  0  0  0  0  0  0  0  0  0  0
    6.6074   -0.3762   -1.2929 O   0  0  0  0  0  0  0  0  0  0  0  0
    0.8972   -0.9977    1.3577 C   0  0  2  0  0  0  0  0  0  0  0  0
    1.6653   -2.0902    1.8513 N   0  0  0  0  0  0  0  0  0  0  0  0
    2.1711   -3.0645    1.2183 C   0  0  0  0  0  0  0  0  0  0  0  0
    2.2614   -3.5843   -0.1936 C   0  0  0  0  0  0  0  0  0  0  0  0
    2.8605   -3.9392    2.0590 O   0  0  0  0  0  0  0  0  0  0  0  0
   -0.4796   -1.4950    0.9437 C   0  0  1  0  0  0  0  0  0  0  0  0
   -1.2101   -1.6941    2.1109 O   0  0  0  0  0  0  0  0  0  0  0  0
   -4.2435    0.6718   -0.8184 C   0  0  2  0  0  0  0  0  0  0  0  0
   -5.0351    1.7772   -0.2913 N   0  0  0  0  0  0  0  0  0  0  0  0
   -4.6525    2.9844   -0.2082 C   0  0  0  0  0  0  0  0  0  0  0  0
   -3.3549    3.6284   -0.5960 C   0  0  0  0  0  0  0  0  0  0  0  0
   -5.5907    3.8629    0.3328 O   0  0  0  0  0  0  0  0  0  0  0  0
   -5.2390   -0.2825   -1.4602 C   0  0  1  0  0  0  0  0  0  0  0  0
   -4.5721   -1.3947   -1.9360 O   0  0  0  0  0  0  0  0  0  0  0  0
   -6.1980   -0.6722   -0.3531 C   0  0  2  0  0  0  0  0  0  0  0  0
   -7.2955    0.1821   -0.2806 O   0  0  0  0  0  0  0  0  0  0  0  0
   -5.7531    0.2090    1.5607 H   0  0  0  0  0  0  0  0  0  0  0  0
   -5.9423   -2.8382    1.2166 H   0  0  0  0  0  0  0  0  0  0  0  0
   -5.6907   -1.9896    2.7490 H   0  0  0  0  0  0  0  0  0  0  0  0
   -7.7623   -0.8129    2.0050 H   0  0  0  0  0  0  0  0  0  0  0  0
   -3.0370    0.7474    0.9312 H   0  0  0  0  0  0  0  0  0  0  0  0
   -1.3063    0.4572    0.7819 H   0  0  0  0  0  0  0  0  0  0  0  0
    0.2900   -1.0074   -1.3197 H   0  0  0  0  0  0  0  0  0  0  0  0
   -0.0408    0.5604   -2.9963 H   0  0  0  0  0  0  0  0  0  0  0  0
   -1.2915    1.5069   -2.1064 H   0  0  0  0  0  0  0  0  0  0  0  0
   -1.3259   -1.3222   -2.5867 H   0  0  0  0  0  0  0  0  0  0  0  0
    2.1147   -0.7418   -0.4380 H   0  0  0  0  0  0  0  0  0  0  0  0
    4.0911   -0.6169   -0.8512 H   0  0  0  0  0  0  0  0  0  0  0  0
    6.4253    2.6163    1.9977 H   0  0  0  0  0  0  0  0  0  0  0  0
    4.0686    2.2656    2.2756 H   0  0  0  0  0  0  0  0  0  0  0  0
    8.5604    3.4305    0.7769 H   0  0  0  0  0  0  0  0  0  0  0  0
    9.7830    2.1677    1.0308 H   0  0  0  0  0  0  0  0  0  0  0  0
    8.4449    2.2674    2.1907 H   0  0  0  0  0  0  0  0  0  0  0  0
    9.6977    0.8007   -0.8812 H   0  0  0  0  0  0  0  0  0  0  0  0
    0.7121   -0.3296    2.2514 H   0  0  0  0  0  0  0  0  0  0  0  0
    1.9060   -4.6435   -0.2350 H   0  0  0  0  0  0  0  0  0  0  0  0
    1.5922   -3.0374   -0.8811 H   0  0  0  0  0  0  0  0  0  0  0  0
    3.3183   -3.6284   -0.5139 H   0  0  0  0  0  0  0  0  0  0  0  0
    2.9950   -3.8050    3.0496 H   0  0  0  0  0  0  0  0  0  0  0  0
   -0.3593   -2.3994    0.3522 H   0  0  0  0  0  0  0  0  0  0  0  0
   -1.2793   -0.8300    2.5884 H   0  0  0  0  0  0  0  0  0  0  0  0
   -3.6483    1.1120   -1.6340 H   0  0  0  0  0  0  0  0  0  0  0  0
   -2.5646    2.8384   -0.5686 H   0  0  0  0  0  0  0  0  0  0  0  0
   -3.0647    4.3998    0.1398 H   0  0  0  0  0  0  0  0  0  0  0  0
   -3.3900    4.0851   -1.5962 H   0  0  0  0  0  0  0  0  0  0  0  0
   -6.3457    3.5170    0.9155 H   0  0  0  0  0  0  0  0  0  0  0  0
   -5.7656    0.2148   -2.2785 H   0  0  0  0  0  0  0  0  0  0  0  0
   -4.6771   -1.4574   -2.9241 H   0  0  0  0  0  0  0  0  0  0  0  0
   -6.5933   -1.6772   -0.6559 H   0  0  0  0  0  0  0  0  0  0  0  0
   -7.6725    0.3796   -1.1756 H   0  0  0  0  0  0  0  0  0  0  0  0
  1  2  1  0
  2  3  1  0
  1  4  1  0
  4  5  1  0
  5  6  1  0
  6  7  1  0
  7  8  1  0
  8  9  1  0
  9 10  1  0
  8 11  1  0
 11 12  1  0
 12 13  1  0
 13 14  1  0
 14 15  2  0
 15 16  1  0
 16 17  2  0
 17 18  1  0
 18 19  2  0
 17 20  1  0
 20 21  1  0
 20 22  2  0
 22 23  1  0
 23 24  2  0
 23 25  1  0
 12 26  1  0
 26 27  1  0
 27 28  2  3
 28 29  1  0
 28 30  1  0
 26 31  1  0
 31 32  1  0
  5 33  1  0
 33 34  1  0
 34 35  2  3
 35 36  1  0
 35 37  1  0
 33 38  1  0
 38 39  1  0
 38 40  1  0
 40 41  1  0
 40  1  1  0
 31  7  1  0
 19 14  1  0
 25 16  1  0
  1 42  1  1
  2 43  1  0
  2 44  1  0
  3 45  1  0
  5 46  1  1
  7 47  1  1
  8 48  1  6
  9 49  1  0
  9 50  1  0
 10 51  1  0
 12 52  1  6
 15 53  1  0
 18 54  1  0
 19 55  1  0
 21 56  1  0
 21 57  1  0
 21 58  1  0
 22 59  1  0
 26 60  1  1
 29 61  1  0
 29 62  1  0
 29 63  1  0
 30 64  1  0
 31 65  1  6
 32 66  1  0
 33 67  1  6
 36 68  1  0
 36 69  1  0
 36 70  1  0
 37 71  1  0
 38 72  1  6
 39 73  1  0
 40 74  1  6
 41 75  1  0
M  END
$$$$
