
     RDKit          3D

 10  9  0  0  0  0  0  0  0  0999 V2000
   -1.2753    0.7785    0.0396 N   0  0  0  0  0  0  0  0  0  0  0  0
   -0.7025   -0.5454   -0.0723 C   0  0  0  0  0  0  0  0  0  0  0  0
    0.7820   -0.5071   -0.1536 C   0  0  0  0  0  0  0  0  0  0  0  0
    1.4686    0.7031   -0.1195 O   0  0  0  0  0  0  0  0  0  0  0  0
    1.4601   -1.5757   -0.2560 O   0  0  0  0  0  0  0  0  0  0  0  0
   -0.7615    1.4739   -0.5721 H   0  0  0  0  0  0  0  0  0  0  0  0
   -1.2361    1.0510    1.0638 H   0  0  0  0  0  0  0  0  0  0  0  0
   -1.0307   -1.1083    0.8290 H   0  0  0  0  0  0  0  0  0  0  0  0
   -1.1319   -1.0416   -0.9829 H   0  0  0  0  0  0  0  0  0  0  0  0
    2.4273    0.7715    0.2241 H   0  0  0  0  0  0  0  0  0  0  0  0
  1  2  1  0
  2  3  1  0
  3  4  1  0
  3  5  2  0
  1  6  1  0
  1  7  1  0
  2  8  1  0
  2  9  1  0
  4 10  1  0
M  END
$$$$
