@<TRIPOS>MOLECULE
*****
 10 9 0 0 0
SMALL
GASTEIGER

@<TRIPOS>ATOM
      1 N          -1.2753    0.7785    0.0396 N.3     1  GLY1       -0.3209
      2 CA         -0.7025   -0.5454   -0.0723 C.3     1  GLY1        0.0918
      3 C           0.7820   -0.5071   -0.1536 C.2     1  GLY1        0.3185
      4 O           1.4686    0.7031   -0.1195 O.3     1  GLY1       -0.4797
      5 OXT         1.4601   -1.5757   -0.2560 O.2     1  GLY1       -0.2496
      6 H1         -0.7615    1.4739   -0.5721 H       1  GLY1        0.1187
      7 H2         -1.2361    1.0510    1.0638 H       1  GLY1        0.1187
      8 HA1        -1.0307   -1.1083    0.8290 H       1  GLY1        0.0537
      9 HA2        -1.1319   -1.0416   -0.9829 H       1  GLY1        0.0537
     10 H           2.4273    0.7715    0.2241 H       1  GLY1        0.2951
@<TRIPOS>BOND
     1     1     2    1
     2     2     3    1
     3     3     4    1
     4     3     5    2
     5     1     6    1
     6     1     7    1
     7     2     8    1
     8     2     9    1
     9     4    10    1
