@<TRIPOS>MOLECULE
*****
 47 47 0 0 0
SMALL
GASTEIGER

@<TRIPOS>ATOM
      1 C           5.6791    0.1438    0.8454 C.3     1  UNL1        0.0794
      2 C           5.4955    1.3836    1.6625 C.3     1  UNL1       -0.0414
      3 N           6.5531    0.3712   -0.3004 N.3     1  UNL1       -0.3202
      4 C           4.4456   -0.4487    0.3374 C.2     1  UNL1        0.2302
      5 O           4.4122   -0.6240   -0.9202 O.2     1  UNL1       -0.2741
      6 N           3.3024   -0.8422    1.0807 N.am    1  UNL1       -0.3030
      7 C           2.1737   -1.4102    0.4135 C.3     1  UNL1        0.0966
      8 C           1.8630   -2.8161    0.8795 C.3     1  UNL1       -0.0381
      9 C           0.9371   -0.5904    0.5930 C.2     1  UNL1        0.2334
     10 O           1.2089    0.3970    1.2902 O.2     1  UNL1       -0.2738
     11 N          -0.2614   -1.0431   -0.0200 N.am    1  UNL1       -0.3082
     12 C          -1.4967   -0.2502    0.1429 C.3     1  UNL1        0.0528
     13 C          -1.8964    0.1218   -1.2353 C.3     1  UNL1       -0.0068
     14 C          -3.1058    0.9239   -1.3884 C.ar    1  UNL1       -0.0455
     15 C          -4.4143    0.4840   -1.5613 C.ar    1  UNL1       -0.0585
     16 C          -5.4815    1.3342   -1.6955 C.ar    1  UNL1       -0.0615
     17 C          -5.3042    2.6961   -1.6648 C.ar    1  UNL1       -0.0617
     18 C          -4.0265    3.2056   -1.4955 C.ar    1  UNL1       -0.0615
     19 C          -2.9927    2.3107   -1.3659 C.ar    1  UNL1       -0.0585
     20 C          -2.4335   -1.1690    0.8749 C.3     1  UNL1        0.0710
     21 C          -3.7068   -0.5737    1.3369 C.3     1  UNL1       -0.0372
     22 O          -2.6753   -2.3352    0.1347 O.3     1  UNL1       -0.3902
     23 H           6.1991   -0.6067    1.4768 H       1  UNL1        0.0551
     24 H           4.4479    1.6994    1.8086 H       1  UNL1        0.0249
     25 H           5.9965    2.2350    1.1411 H       1  UNL1        0.0249
     26 H           5.9489    1.3339    2.6700 H       1  UNL1        0.0249
     27 H           7.0422    1.2867   -0.1597 H       1  UNL1        0.1189
     28 H           5.9851    0.4688   -1.1918 H       1  UNL1        0.1189
     29 H           3.3510   -0.6903    2.1033 H       1  UNL1        0.1495
     30 H           2.3811   -1.4608   -0.6751 H       1  UNL1        0.0592
     31 H           2.8210   -3.3828    0.9607 H       1  UNL1        0.0252
     32 H           1.4126   -2.8552    1.8798 H       1  UNL1        0.0252
     33 H           1.2439   -3.3583    0.1525 H       1  UNL1        0.0252
     34 H          -0.2430   -1.9282   -0.5733 H       1  UNL1        0.1491
     35 H          -1.1989    0.5991    0.7597 H       1  UNL1        0.0527
     36 H          -1.9555   -0.7781   -1.8837 H       1  UNL1        0.0332
     37 H          -1.0374    0.7058   -1.6681 H       1  UNL1        0.0332
     38 H          -4.5214   -0.6119   -1.5814 H       1  UNL1        0.0620
     39 H          -6.4694    0.9026   -1.8266 H       1  UNL1        0.0618
     40 H          -6.1578    3.3375   -1.7723 H       1  UNL1        0.0618
     41 H          -3.8608    4.2673   -1.4680 H       1  UNL1        0.0618
     42 H          -2.0162    2.7462   -1.2363 H       1  UNL1        0.0620
     43 H          -1.8548   -1.5289    1.7780 H       1  UNL1        0.0609
     44 H          -3.8336   -0.7408    2.4460 H       1  UNL1        0.0255
     45 H          -4.6195   -1.0231    0.8999 H       1  UNL1        0.0255
     46 H          -3.7105    0.5411    1.2461 H       1  UNL1        0.0255
     47 H          -3.6262   -2.4274   -0.1136 H       1  UNL1        0.2098
@<TRIPOS>BOND
     1     1     2    1
     2     1     3    1
     3     1     4    1
     4     4     5    2
     5     4     6   am
     6     6     7    1
     7     7     8    1
     8     7     9    1
     9     9    10    2
    10     9    11   am
    11    11    12    1
    12    12    13    1
    13    13    14    1
    14    14    15   ar
    15    15    16   ar
    16    16    17   ar
    17    17    18   ar
    18    18    19   ar
    19    12    20    1
    20    20    21    1
    21    20    22    1
    22    19    14   ar
    23     1    23    1
    24     2    24    1
    25     2    25    1
    26     2    26    1
    27     3    27    1
    28     3    28    1
    29     6    29    1
    30     7    30    1
    31     8    31    1
    32     8    32    1
    33     8    33    1
    34    11    34    1
    35    12    35    1
    36    13    36    1
    37    13    37    1
    38    15    38    1
    39    16    39    1
    40    17    40    1
    41    18    41    1
    42    19    42    1
    43    20    43    1
    44    21    44    1
    45    21    45    1
    46    21    46    1
    47    22    47    1
