@<TRIPOS>MOLECULE
*****
 27 27 0 0 0
SMALL
GASTEIGER

@<TRIPOS>ATOM
      1 C          -1.3166    1.6276    0.6278 C.3     1  UNL1       -0.0122
      2 N          -0.7735    0.8312   -0.4191 N.3     1  UNL1       -0.2953
      3 C           0.4061    1.3108   -1.0183 C.3     1  UNL1        0.0276
      4 C           1.6910    0.7941   -0.4917 C.3     1  UNL1        0.0962
      5 O           2.6576    0.9375   -1.5147 O.3     1  UNL1       -0.3879
      6 C           1.6428   -0.6699   -0.1575 C.3     1  UNL1        0.1095
      7 O           2.7967   -1.1331    0.3962 O.3     1  UNL1       -0.3866
      8 C           0.4196   -0.8736    0.7394 C.3     1  UNL1        0.1011
      9 O           0.3893   -2.1131    1.3198 O.3     1  UNL1       -0.3875
     10 C          -0.7594   -0.5779   -0.1506 C.3     1  UNL1        0.0619
     11 C          -2.0468   -1.1069    0.3680 C.3     1  UNL1        0.0622
     12 O          -3.0335   -0.8590   -0.5938 O.3     1  UNL1       -0.3934
     13 H          -2.4394    1.6653    0.5233 H       1  UNL1        0.0391
     14 H          -1.1039    1.2835    1.6431 H       1  UNL1        0.0391
     15 H          -0.9883    2.6856    0.5058 H       1  UNL1        0.0391
     16 H           0.4285    2.4354   -0.9250 H       1  UNL1        0.0453
     17 H           0.3647    1.1349   -2.1268 H       1  UNL1        0.0453
     18 H           2.0679    1.3409    0.4032 H       1  UNL1        0.0633
     19 H           2.2140    0.9196   -2.3951 H       1  UNL1        0.2099
     20 H           1.4115   -1.2120   -1.1007 H       1  UNL1        0.0646
     21 H           2.9152   -0.9939    1.3479 H       1  UNL1        0.2100
     22 H           0.4565   -0.0432    1.5004 H       1  UNL1        0.0636
     23 H           0.1681   -1.9770    2.2925 H       1  UNL1        0.2100
     24 H          -0.5549   -1.0995   -1.1311 H       1  UNL1        0.0511
     25 H          -1.9580   -2.2255    0.4153 H       1  UNL1        0.0573
     26 H          -2.3249   -0.7234    1.3557 H       1  UNL1        0.0573
     27 H          -2.7301   -1.3585   -1.4140 H       1  UNL1        0.2095
@<TRIPOS>BOND
     1     1     2    1
     2     2     3    1
     3     3     4    1
     4     4     5    1
     5     4     6    1
     6     6     7    1
     7     6     8    1
     8     8     9    1
     9     8    10    1
    10    10    11    1
    11    11    12    1
    12    10     2    1
    13     1    13    1
    14     1    14    1
    15     1    15    1
    16     3    16    1
    17     3    17    1
    18     4    18    1
    19     5    19    1
    20     6    20    1
    21     7    21    1
    22     8    22    1
    23     9    23    1
    24    10    24    1
    25    11    25    1
    26    11    26    1
    27    12    27    1
