
     RDKit          3D

 27 27  0  0  0  0  0  0  0  0999 V2000
   -1.3166    1.6276    0.6278 C   0  0  0  0  0  0  0  0  0  0  0  0
   -0.7735    0.8312   -0.4191 N   0  0  0  0  0  0  0  0  0  0  0  0
    0.4061    1.3108   -1.0183 C   0  0  0  0  0  0  0  0  0  0  0  0
    1.6910    0.7941   -0.4917 C   0  0  2  0  0  0  0  0  0  0  0  0
    2.6576    0.9375   -1.5147 O   0  0  0  0  0  0  0  0  0  0  0  0
    1.6428   -0.6699   -0.1575 C   0  0  1  0  0  0  0  0  0  0  0  0
    2.7967   -1.1331    0.3962 O   0  0  0  0  0  0  0  0  0  0  0  0
    0.4196   -0.8736    0.7394 C   0  0  2  0  0  0  0  0  0  0  0  0
    0.3893   -2.1131    1.3198 O   0  0  0  0  0  0  0  0  0  0  0  0
   -0.7594   -0.5779   -0.1506 C   0  0  1  0  0  0  0  0  0  0  0  0
   -2.0468   -1.1069    0.3680 C   0  0  0  0  0  0  0  0  0  0  0  0
   -3.0335   -0.8590   -0.5938 O   0  0  0  0  0  0  0  0  0  0  0  0
   -2.4394    1.6653    0.5233 H   0  0  0  0  0  0  0  0  0  0  0  0
   -1.1039    1.2835    1.6431 H   0  0  0  0  0  0  0  0  0  0  0  0
   -0.9883    2.6856    0.5058 H   0  0  0  0  0  0  0  0  0  0  0  0
    0.4285    2.4354   -0.9250 H   0  0  0  0  0  0  0  0  0  0  0  0
    0.3647    1.1349   -2.1268 H   0  0  0  0  0  0  0  0  0  0  0  0
    2.0679    1.3409    0.4032 H   0  0  0  0  0  0  0  0  0  0  0  0
    2.2140    0.9196   -2.3951 H   0  0  0  0  0  0  0  0  0  0  0  0
    1.4115   -1.2120   -1.1007 H   0  0  0  0  0  0  0  0  0  0  0  0
    2.9152   -0.9939    1.3479 H   0  0  0  0  0  0  0  0  0  0  0  0
    0.4565   -0.0432    1.5004 H   0  0  0  0  0  0  0  0  0  0  0  0
    0.1681   -1.9770    2.2925 H   0  0  0  0  0  0  0  0  0  0  0  0
   -0.5549   -1.0995   -1.1311 H   0  0  0  0  0  0  0  0  0  0  0  0
   -1.9580   -2.2255    0.4153 H   0  0  0  0  0  0  0  0  0  0  0  0
   -2.3249   -0.7234    1.3557 H   0  0  0  0  0  0  0  0  0  0  0  0
   -2.7301   -1.3585   -1.4140 H   0  0  0  0  0  0  0  0  0  0  0  0
  1  2  1  0
  2  3  1  0
  3  4  1  0
  4  5  1  0
  4  6  1  0
  6  7  1  0
  6  8  1  0
  8  9  1  0
  8 10  1  0
 10 11  1  0
 11 12  1  0
 10  2  1  0
  1 13  1  0
  1 14  1  0
  1 15  1  0
  3 16  1  0
  3 17  1  0
  4 18  1  1
  5 19  1  0
  6 20  1  6
  7 21  1  0
  8 22  1  1
  9 23  1  0
 10 24  1  6
 11 25  1  0
 11 26  1  0
 12 27  1  0
M  END
$$$$
