@<TRIPOS>MOLECULE
*****
 56 58 0 0 0
SMALL
GASTEIGER

@<TRIPOS>ATOM
      1 C           6.7082    1.1893   -1.0230 C.3     1  UNL1       -0.0524
      2 C           5.7716    0.0604   -1.3055 C.3     1  UNL1       -0.0039
      3 N           4.9620   -0.1681   -0.0912 N.3     1  UNL1       -0.3014
      4 C           4.0628   -1.2627   -0.3421 C.3     1  UNL1       -0.0039
      5 C           4.9594   -2.5141   -0.4761 C.3     1  UNL1       -0.0524
      6 C           4.3777    1.0465    0.3464 C.3     1  UNL1        0.0145
      7 C           3.5954    1.0679    1.5911 C.3     1  UNL1        0.0247
      8 N           2.3989    0.2913    1.6743 N.am    1  UNL1       -0.3101
      9 C           1.2718    0.5100    0.8285 C.2     1  UNL1        0.2461
     10 O           1.4465    1.4710   -0.0018 O.2     1  UNL1       -0.2701
     11 C           0.0352   -0.2354    0.8567 C.ar    1  UNL1        0.0604
     12 C          -0.3479   -1.3674    1.5227 C.ar    1  UNL1        0.0257
     13 C           0.5153   -2.1968    2.4309 C.3     1  UNL1       -0.0237
     14 N          -1.6485   -1.6299    1.2122 N.ar    1  UNL1       -0.3578
     15 C          -2.1362   -0.7078    0.3625 C.ar    1  UNL1        0.0438
     16 C          -3.4963   -0.7335   -0.2094 C.2     1  UNL1       -0.0253
     17 C          -4.3691    0.2013    0.0126 C.2     1  UNL1        0.0479
     18 C          -4.2159    1.3992    0.8261 C.2     1  UNL1        0.2490
     19 O          -3.2105    1.7477    1.4931 O.2     1  UNL1       -0.2698
     20 N          -5.4604    2.0949    0.7060 N.am    1  UNL1       -0.2809
     21 C          -6.3358    1.3535   -0.1427 C.ar    1  UNL1        0.0417
     22 C          -7.6452    1.5828   -0.5787 C.ar    1  UNL1       -0.0372
     23 C          -8.2768    0.6886   -1.4131 C.ar    1  UNL1       -0.0247
     24 C          -7.6510   -0.4639   -1.8519 C.ar    1  UNL1        0.1241
     25 F          -8.2971   -1.3408   -2.6832 F       1  UNL1       -0.2055
     26 C          -6.3644   -0.6901   -1.4237 C.ar    1  UNL1       -0.0168
     27 C          -5.7285    0.2018   -0.5891 C.ar    1  UNL1        0.0111
     28 C          -1.0992    0.1598    0.1352 C.ar    1  UNL1       -0.0134
     29 C          -1.1563    1.3354   -0.7859 C.3     1  UNL1       -0.0370
     30 H           7.6214    1.1523   -1.6658 H       1  UNL1        0.0242
     31 H           7.0673    1.0752    0.0226 H       1  UNL1        0.0242
     32 H           6.2414    2.1894   -1.2193 H       1  UNL1        0.0242
     33 H           5.1600    0.2697   -2.1840 H       1  UNL1        0.0424
     34 H           6.3549   -0.8677   -1.4826 H       1  UNL1        0.0424
     35 H           3.5151   -1.1033   -1.3137 H       1  UNL1        0.0424
     36 H           3.3443   -1.4101    0.4716 H       1  UNL1        0.0424
     37 H           5.2685   -2.6519   -1.5387 H       1  UNL1        0.0242
     38 H           4.3298   -3.3804   -0.1235 H       1  UNL1        0.0242
     39 H           5.8484   -2.4443    0.1557 H       1  UNL1        0.0242
     40 H           3.8065    1.4949   -0.5156 H       1  UNL1        0.0442
     41 H           5.2223    1.7883    0.4859 H       1  UNL1        0.0442
     42 H           4.2642    0.7882    2.4477 H       1  UNL1        0.0475
     43 H           3.3648    2.1684    1.8008 H       1  UNL1        0.0475
     44 H           2.3259   -0.4643    2.3843 H       1  UNL1        0.1491
     45 H           0.6713   -1.7280    3.3982 H       1  UNL1        0.0292
     46 H           1.4100   -2.5277    1.8782 H       1  UNL1        0.0292
     47 H          -0.0574   -3.1693    2.5911 H       1  UNL1        0.0292
     48 H          -2.1764   -2.4435    1.5958 H       1  UNL1        0.1656
     49 H          -3.7631   -1.5926   -0.8500 H       1  UNL1        0.0646
     50 H          -5.6665    3.0007    1.1774 H       1  UNL1        0.1552
     51 H          -8.1241    2.4927   -0.2221 H       1  UNL1        0.0637
     52 H          -9.2939    0.8579   -1.7570 H       1  UNL1        0.0647
     53 H          -5.8641   -1.5777   -1.7538 H       1  UNL1        0.0653
     54 H          -0.3325    1.3737   -1.5046 H       1  UNL1        0.0278
     55 H          -2.1120    1.3338   -1.3493 H       1  UNL1        0.0278
     56 H          -1.0920    2.2846   -0.1763 H       1  UNL1        0.0278
@<TRIPOS>BOND
     1     1     2    1
     2     2     3    1
     3     3     4    1
     4     4     5    1
     5     3     6    1
     6     6     7    1
     7     7     8    1
     8     8     9   am
     9     9    10    2
    10     9    11    1
    11    11    12   ar
    12    12    13    1
    13    12    14   ar
    14    14    15   ar
    15    15    16    1
    16    16    17    2
    17    17    18    1
    18    18    19    2
    19    18    20   am
    20    20    21    1
    21    21    22   ar
    22    22    23   ar
    23    23    24   ar
    24    24    25    1
    25    24    26   ar
    26    26    27   ar
    27    15    28   ar
    28    28    29    1
    29    28    11   ar
    30    27    17    1
    31    27    21   ar
    32     1    30    1
    33     1    31    1
    34     1    32    1
    35     2    33    1
    36     2    34    1
    37     4    35    1
    38     4    36    1
    39     5    37    1
    40     5    38    1
    41     5    39    1
    42     6    40    1
    43     6    41    1
    44     7    42    1
    45     7    43    1
    46     8    44    1
    47    13    45    1
    48    13    46    1
    49    13    47    1
    50    14    48    1
    51    16    49    1
    52    20    50    1
    53    22    51    1
    54    23    52    1
    55    26    53    1
    56    29    54    1
    57    29    55    1
    58    29    56    1
