@<TRIPOS>MOLECULE
*****
 54 53 0 0 0
SMALL
GASTEIGER

@<TRIPOS>ATOM
      1 C           7.8528   -0.0149    2.3033 C.3     1  UNL1       -0.0653
      2 C           7.2565   -1.2028    1.6166 C.3     1  UNL1       -0.0559
      3 C           5.7887   -0.9480    1.3436 C.3     1  UNL1       -0.0533
      4 C           5.7208    0.2775    0.4565 C.3     1  UNL1       -0.0531
      5 C           4.2894    0.5748    0.1579 C.3     1  UNL1       -0.0530
      6 C           3.5595   -0.5413   -0.5553 C.3     1  UNL1       -0.0528
      7 C           2.1337   -0.0042   -0.7487 C.3     1  UNL1       -0.0496
      8 C           1.2592   -1.0130   -1.4582 C.3     1  UNL1       -0.0348
      9 C          -0.1286   -0.5186   -1.6592 C.2     1  UNL1       -0.0879
     10 C          -0.5722    0.6540   -1.2755 C.2     1  UNL1       -0.0879
     11 C          -1.9190    1.2066   -1.4384 C.3     1  UNL1       -0.0348
     12 C          -2.9076    0.3426   -2.1184 C.3     1  UNL1       -0.0496
     13 C          -4.2582    0.9799   -2.2451 C.3     1  UNL1       -0.0528
     14 C          -4.8881    1.3361   -0.9306 C.3     1  UNL1       -0.0530
     15 C          -5.0692    0.0795   -0.0741 C.3     1  UNL1       -0.0526
     16 C          -5.7091    0.4386    1.2624 C.3     1  UNL1       -0.0430
     17 C          -5.9032   -0.7779    2.1341 C.3     1  UNL1        0.0448
     18 C          -6.7830   -1.7420    1.4391 C.2     1  UNL1        0.3047
     19 O          -7.5101   -1.9463    0.2594 O.3     1  UNL1       -0.4806
     20 O          -6.9382   -2.7617    2.1849 O.2     1  UNL1       -0.2510
     21 H           8.8073   -0.2505    2.8178 H       1  UNL1        0.0230
     22 H           7.1814    0.4445    3.0500 H       1  UNL1        0.0230
     23 H           8.1097    0.7410    1.5394 H       1  UNL1        0.0230
     24 H           7.7731   -1.3467    0.6459 H       1  UNL1        0.0263
     25 H           7.3970   -2.0948    2.2268 H       1  UNL1        0.0263
     26 H           5.4033   -1.8446    0.8362 H       1  UNL1        0.0265
     27 H           5.2633   -0.7692    2.2832 H       1  UNL1        0.0265
     28 H           6.1800    1.1161    0.9874 H       1  UNL1        0.0265
     29 H           6.2485    0.1222   -0.5050 H       1  UNL1        0.0265
     30 H           3.6979    0.8452    1.0570 H       1  UNL1        0.0265
     31 H           4.2502    1.4465   -0.5516 H       1  UNL1        0.0265
     32 H           3.5508   -1.4261    0.1126 H       1  UNL1        0.0265
     33 H           4.0594   -0.7287   -1.5212 H       1  UNL1        0.0265
     34 H           1.7709    0.1778    0.2833 H       1  UNL1        0.0268
     35 H           2.2470    0.9417   -1.3173 H       1  UNL1        0.0268
     36 H           1.7246   -1.4079   -2.3594 H       1  UNL1        0.0307
     37 H           1.1626   -1.8819   -0.7540 H       1  UNL1        0.0307
     38 H          -0.8241   -1.1542   -2.1499 H       1  UNL1        0.0569
     39 H           0.1239    1.3352   -0.7645 H       1  UNL1        0.0569
     40 H          -1.7965    2.1434   -2.0371 H       1  UNL1        0.0307
     41 H          -2.2990    1.4402   -0.4100 H       1  UNL1        0.0307
     42 H          -2.5264    0.0487   -3.1168 H       1  UNL1        0.0268
     43 H          -3.0580   -0.6187   -1.5669 H       1  UNL1        0.0268
     44 H          -4.9681    0.3234   -2.7891 H       1  UNL1        0.0265
     45 H          -4.1696    1.9100   -2.8439 H       1  UNL1        0.0265
     46 H          -4.3500    2.0645   -0.3323 H       1  UNL1        0.0265
     47 H          -5.9140    1.7241   -1.0969 H       1  UNL1        0.0265
     48 H          -4.0982   -0.3867    0.1871 H       1  UNL1        0.0265
     49 H          -5.6815   -0.6885   -0.5673 H       1  UNL1        0.0265
     50 H          -5.1100    1.1999    1.7982 H       1  UNL1        0.0270
     51 H          -6.7173    0.8318    1.0198 H       1  UNL1        0.0270
     52 H          -4.9398   -1.2744    2.3643 H       1  UNL1        0.0377
     53 H          -6.3782   -0.4136    3.0671 H       1  UNL1        0.0377
     54 H          -7.3944   -2.8156   -0.2471 H       1  UNL1        0.2951
@<TRIPOS>BOND
     1     1     2    1
     2     2     3    1
     3     3     4    1
     4     4     5    1
     5     5     6    1
     6     6     7    1
     7     7     8    1
     8     8     9    1
     9     9    10    2
    10    10    11    1
    11    11    12    1
    12    12    13    1
    13    13    14    1
    14    14    15    1
    15    15    16    1
    16    16    17    1
    17    17    18    1
    18    18    19    1
    19    18    20    2
    20     1    21    1
    21     1    22    1
    22     1    23    1
    23     2    24    1
    24     2    25    1
    25     3    26    1
    26     3    27    1
    27     4    28    1
    28     4    29    1
    29     5    30    1
    30     5    31    1
    31     6    32    1
    32     6    33    1
    33     7    34    1
    34     7    35    1
    35     8    36    1
    36     8    37    1
    37     9    38    1
    38    10    39    1
    39    11    40    1
    40    11    41    1
    41    12    42    1
    42    12    43    1
    43    13    44    1
    44    13    45    1
    45    14    46    1
    46    14    47    1
    47    15    48    1
    48    15    49    1
    49    16    50    1
    50    16    51    1
    51    17    52    1
    52    17    53    1
    53    19    54    1
