@<TRIPOS>MOLECULE
*****
 55 57 0 0 0
SMALL
GASTEIGER

@<TRIPOS>ATOM
      1 O           0.7493   -5.0162   -0.8357 O.2     1  UNL1       -0.2737
      2 C          -0.1708   -4.8042   -1.6469 C.2     1  UNL1        0.2362
      3 C          -0.9772   -3.5857   -1.6765 C.3     1  UNL1        0.0372
      4 C          -0.5391   -2.5212   -0.7172 C.3     1  UNL1        0.0464
      5 C           0.8464   -2.0777   -1.0282 C.3     1  UNL1       -0.0413
      6 C           1.3400   -0.9962   -0.0853 C.3     1  UNL1       -0.0521
      7 C           2.7481   -0.6436   -0.5131 C.3     1  UNL1       -0.0502
      8 C           3.3308    0.4453    0.3851 C.3     1  UNL1       -0.0410
      9 C           4.7080    0.7404   -0.0901 C.3     1  UNL1       -0.0502
     10 C           5.3172    1.9834    0.4821 C.3     1  UNL1       -0.0528
     11 C           4.3410    2.7963    1.2977 C.3     1  UNL1       -0.0530
     12 C           3.0208    2.9327    0.5736 C.3     1  UNL1       -0.0528
     13 C           2.3867    1.6068    0.3364 C.3     1  UNL1       -0.0502
     14 C          -1.5312   -1.3973   -0.8777 C.ar    1  UNL1        0.2313
     15 N          -2.3582   -0.9517    0.0820 N.ar    1  UNL1       -0.1898
     16 C          -3.0981    0.0521   -0.4064 C.ar    1  UNL1        0.2204
     17 C          -4.1180    0.8336    0.2617 C.ar    1  UNL1        0.1119
     18 C          -3.7642    1.9633    0.9495 C.ar    1  UNL1       -0.0186
     19 C          -4.7020    2.7387    1.6011 C.ar    1  UNL1        0.0624
     20 C          -4.3067    3.9346    2.3262 C.2     1  UNL1        0.3369
     21 O          -3.1010    4.2505    2.3510 O.2     1  UNL1       -0.2451
     22 O          -5.2318    4.7212    2.9826 O.3     1  UNL1       -0.4771
     23 C          -6.0186    2.3339    1.5354 C.ar    1  UNL1       -0.0296
     24 C          -6.3698    1.2040    0.8471 C.ar    1  UNL1        0.0291
     25 N          -5.4019    0.4716    0.2192 N.ar    1  UNL1       -0.2517
     26 N          -2.6854    0.1961   -1.7008 N.ar    1  UNL1       -0.0545
     27 O          -1.7618   -0.6793   -1.9317 O.2     1  UNL1       -0.3374
     28 N          -0.4739   -5.8204   -2.6306 N.am    1  UNL1       -0.1975
     29 O           0.2583   -6.9543   -2.6218 O.3     1  UNL1       -0.2952
     30 H          -0.8730   -3.1341   -2.7020 H       1  UNL1        0.0366
     31 H          -2.0636   -3.7810   -1.5092 H       1  UNL1        0.0366
     32 H          -0.6106   -2.9147    0.3277 H       1  UNL1        0.0401
     33 H           0.8401   -1.6922   -2.0916 H       1  UNL1        0.0273
     34 H           1.5281   -2.9322   -1.0448 H       1  UNL1        0.0273
     35 H           1.3718   -1.4432    0.9292 H       1  UNL1        0.0266
     36 H           0.6566   -0.1457   -0.0708 H       1  UNL1        0.0266
     37 H           2.8168   -0.3349   -1.5545 H       1  UNL1        0.0268
     38 H           3.3857   -1.5391   -0.3595 H       1  UNL1        0.0268
     39 H           3.3712    0.0864    1.4391 H       1  UNL1        0.0301
     40 H           5.3629   -0.1168    0.2393 H       1  UNL1        0.0268
     41 H           4.7355    0.7074   -1.1986 H       1  UNL1        0.0268
     42 H           6.2270    1.7972    1.0883 H       1  UNL1        0.0265
     43 H           5.6421    2.6173   -0.3815 H       1  UNL1        0.0265
     44 H           4.2546    2.3449    2.2917 H       1  UNL1        0.0265
     45 H           4.7460    3.8235    1.4297 H       1  UNL1        0.0265
     46 H           3.2257    3.5031   -0.3552 H       1  UNL1        0.0265
     47 H           2.3642    3.5644    1.2062 H       1  UNL1        0.0265
     48 H           1.5658    1.4653    1.0693 H       1  UNL1        0.0268
     49 H           1.8708    1.6617   -0.6653 H       1  UNL1        0.0268
     50 H          -2.7301    2.2864    1.0044 H       1  UNL1        0.0648
     51 H          -4.9468    5.5060    3.5869 H       1  UNL1        0.2954
     52 H          -6.7758    2.9413    2.0492 H       1  UNL1        0.0641
     53 H          -7.4118    0.9177    0.8175 H       1  UNL1        0.0830
     54 H          -1.2429   -5.6337   -3.3025 H       1  UNL1        0.1822
     55 H           0.2525   -7.3123   -1.7116 H       1  UNL1        0.2414
@<TRIPOS>BOND
     1     1     2    2
     2     2     3    1
     3     3     4    1
     4     4     5    1
     5     5     6    1
     6     6     7    1
     7     7     8    1
     8     8     9    1
     9     9    10    1
    10    10    11    1
    11    11    12    1
    12    12    13    1
    13     4    14    1
    14    14    15   ar
    15    15    16   ar
    16    16    17    1
    17    17    18   ar
    18    18    19   ar
    19    19    20    1
    20    20    21    2
    21    20    22    1
    22    19    23   ar
    23    23    24   ar
    24    24    25   ar
    25    16    26   ar
    26    26    27   ar
    27     2    28   am
    28    28    29    1
    29    13     8    1
    30    27    14   ar
    31    25    17   ar
    32     3    30    1
    33     3    31    1
    34     4    32    1
    35     5    33    1
    36     5    34    1
    37     6    35    1
    38     6    36    1
    39     7    37    1
    40     7    38    1
    41     8    39    1
    42     9    40    1
    43     9    41    1
    44    10    42    1
    45    10    43    1
    46    11    44    1
    47    11    45    1
    48    12    46    1
    49    12    47    1
    50    13    48    1
    51    13    49    1
    52    18    50    1
    53    22    51    1
    54    23    52    1
    55    24    53    1
    56    28    54    1
    57    29    55    1
