
     RDKit          3D

 55 57  0  0  0  0  0  0  0  0999 V2000
    0.7493   -5.0162   -0.8357 O   0  0  0  0  0  0  0  0  0  0  0  0
   -0.1708   -4.8042   -1.6469 C   0  0  0  0  0  0  0  0  0  0  0  0
   -0.9772   -3.5857   -1.6765 C   0  0  0  0  0  0  0  0  0  0  0  0
   -0.5391   -2.5212   -0.7172 C   0  0  1  0  0  0  0  0  0  0  0  0
    0.8464   -2.0777   -1.0282 C   0  0  0  0  0  0  0  0  0  0  0  0
    1.3400   -0.9962   -0.0853 C   0  0  0  0  0  0  0  0  0  0  0  0
    2.7481   -0.6436   -0.5131 C   0  0  0  0  0  0  0  0  0  0  0  0
    3.3308    0.4453    0.3851 C   0  0  0  0  0  0  0  0  0  0  0  0
    4.7080    0.7404   -0.0901 C   0  0  0  0  0  0  0  0  0  0  0  0
    5.3172    1.9834    0.4821 C   0  0  0  0  0  0  0  0  0  0  0  0
    4.3410    2.7963    1.2977 C   0  0  0  0  0  0  0  0  0  0  0  0
    3.0208    2.9327    0.5736 C   0  0  0  0  0  0  0  0  0  0  0  0
    2.3867    1.6068    0.3364 C   0  0  0  0  0  0  0  0  0  0  0  0
   -1.5312   -1.3973   -0.8777 C   0  0  0  0  0  0  0  0  0  0  0  0
   -2.3582   -0.9517    0.0820 N   0  0  0  0  0  0  0  0  0  0  0  0
   -3.0981    0.0521   -0.4064 C   0  0  0  0  0  0  0  0  0  0  0  0
   -4.1180    0.8336    0.2617 C   0  0  0  0  0  0  0  0  0  0  0  0
   -3.7642    1.9633    0.9495 C   0  0  0  0  0  0  0  0  0  0  0  0
   -4.7020    2.7387    1.6011 C   0  0  0  0  0  0  0  0  0  0  0  0
   -4.3067    3.9346    2.3262 C   0  0  0  0  0  0  0  0  0  0  0  0
   -3.1010    4.2505    2.3510 O   0  0  0  0  0  0  0  0  0  0  0  0
   -5.2318    4.7212    2.9826 O   0  0  0  0  0  0  0  0  0  0  0  0
   -6.0186    2.3339    1.5354 C   0  0  0  0  0  0  0  0  0  0  0  0
   -6.3698    1.2040    0.8471 C   0  0  0  0  0  0  0  0  0  0  0  0
   -5.4019    0.4716    0.2192 N   0  0  0  0  0  0  0  0  0  0  0  0
   -2.6854    0.1961   -1.7008 N   0  0  0  0  0  0  0  0  0  0  0  0
   -1.7618   -0.6793   -1.9317 O   0  0  0  0  0  0  0  0  0  0  0  0
   -0.4739   -5.8204   -2.6306 N   0  0  0  0  0  0  0  0  0  0  0  0
    0.2583   -6.9543   -2.6218 O   0  0  0  0  0  0  0  0  0  0  0  0
   -0.8730   -3.1341   -2.7020 H   0  0  0  0  0  0  0  0  0  0  0  0
   -2.0636   -3.7810   -1.5092 H   0  0  0  0  0  0  0  0  0  0  0  0
   -0.6106   -2.9147    0.3277 H   0  0  0  0  0  0  0  0  0  0  0  0
    0.8401   -1.6922   -2.0916 H   0  0  0  0  0  0  0  0  0  0  0  0
    1.5281   -2.9322   -1.0448 H   0  0  0  0  0  0  0  0  0  0  0  0
    1.3718   -1.4432    0.9292 H   0  0  0  0  0  0  0  0  0  0  0  0
    0.6566   -0.1457   -0.0708 H   0  0  0  0  0  0  0  0  0  0  0  0
    2.8168   -0.3349   -1.5545 H   0  0  0  0  0  0  0  0  0  0  0  0
    3.3857   -1.5391   -0.3595 H   0  0  0  0  0  0  0  0  0  0  0  0
    3.3712    0.0864    1.4391 H   0  0  0  0  0  0  0  0  0  0  0  0
    5.3629   -0.1168    0.2393 H   0  0  0  0  0  0  0  0  0  0  0  0
    4.7355    0.7074   -1.1986 H   0  0  0  0  0  0  0  0  0  0  0  0
    6.2270    1.7972    1.0883 H   0  0  0  0  0  0  0  0  0  0  0  0
    5.6421    2.6173   -0.3815 H   0  0  0  0  0  0  0  0  0  0  0  0
    4.2546    2.3449    2.2917 H   0  0  0  0  0  0  0  0  0  0  0  0
    4.7460    3.8235    1.4297 H   0  0  0  0  0  0  0  0  0  0  0  0
    3.2257    3.5031   -0.3552 H   0  0  0  0  0  0  0  0  0  0  0  0
    2.3642    3.5644    1.2062 H   0  0  0  0  0  0  0  0  0  0  0  0
    1.5658    1.4653    1.0693 H   0  0  0  0  0  0  0  0  0  0  0  0
    1.8708    1.6617   -0.6653 H   0  0  0  0  0  0  0  0  0  0  0  0
   -2.7301    2.2864    1.0044 H   0  0  0  0  0  0  0  0  0  0  0  0
   -4.9468    5.5060    3.5869 H   0  0  0  0  0  0  0  0  0  0  0  0
   -6.7758    2.9413    2.0492 H   0  0  0  0  0  0  0  0  0  0  0  0
   -7.4118    0.9177    0.8175 H   0  0  0  0  0  0  0  0  0  0  0  0
   -1.2429   -5.6337   -3.3025 H   0  0  0  0  0  0  0  0  0  0  0  0
    0.2525   -7.3123   -1.7116 H   0  0  0  0  0  0  0  0  0  0  0  0
  1  2  2  0
  2  3  1  0
  3  4  1  0
  4  5  1  0
  5  6  1  0
  6  7  1  0
  7  8  1  0
  8  9  1  0
  9 10  1  0
 10 11  1  0
 11 12  1  0
 12 13  1  0
  4 14  1  0
 14 15  2  0
 15 16  1  0
 16 17  1  0
 17 18  2  0
 18 19  1  0
 19 20  1  0
 20 21  2  0
 20 22  1  0
 19 23  2  0
 23 24  1  0
 24 25  2  0
 16 26  2  0
 26 27  1  0
  2 28  1  0
 28 29  1  0
 13  8  1  0
 27 14  1  0
 25 17  1  0
  3 30  1  0
  3 31  1  0
  4 32  1  1
  5 33  1  0
  5 34  1  0
  6 35  1  0
  6 36  1  0
  7 37  1  0
  7 38  1  0
  8 39  1  0
  9 40  1  0
  9 41  1  0
 10 42  1  0
 10 43  1  0
 11 44  1  0
 11 45  1  0
 12 46  1  0
 12 47  1  0
 13 48  1  0
 13 49  1  0
 18 50  1  0
 22 51  1  0
 23 52  1  0
 24 53  1  0
 28 54  1  0
 29 55  1  0
M  END
$$$$
