@<TRIPOS>MOLECULE
*****
 56 59 0 0 0
SMALL
GASTEIGER

@<TRIPOS>ATOM
      1 C          -0.6452   -0.0825    0.6760 C.3     1  UNL1       -0.0288
      2 C          -1.6654   -0.6708    1.5679 C.3     1  UNL1       -0.0461
      3 C          -2.9673   -0.2507    0.9009 C.3     1  UNL1       -0.0335
      4 C          -3.7706    0.6453    1.8268 C.3     1  UNL1       -0.0617
      5 C          -2.5663    0.4718   -0.3513 C.3     1  UNL1        0.0281
      6 C          -3.5441    0.4885   -1.4393 C.2     1  UNL1        0.1623
      7 O          -3.2206   -0.0112   -2.5178 O.2     1  UNL1       -0.2946
      8 C          -4.8725    1.1133   -1.1649 C.3     1  UNL1        0.1025
      9 O          -5.6881    1.0561   -2.2913 O.3     1  UNL1       -0.3875
     10 C          -1.2861   -0.2602   -0.6874 C.3     1  UNL1       -0.0166
     11 C          -1.5233   -1.7210   -0.9740 C.3     1  UNL1       -0.0586
     12 C          -0.5071    0.3985   -1.7837 C.3     1  UNL1       -0.0175
     13 C           0.9686    0.3890   -1.6094 C.3     1  UNL1        0.0909
     14 O           1.4793   -0.6193   -2.4296 O.3     1  UNL1       -0.3886
     15 C           1.4958    0.2075   -0.2456 C.3     1  UNL1        0.1526
     16 F           1.4294    1.4379    0.4339 F       1  UNL1       -0.2377
     17 C           0.6908   -0.7307    0.6307 C.3     1  UNL1        0.0002
     18 C           1.2228   -0.8437    2.0107 C.3     1  UNL1       -0.0432
     19 C           2.6934   -0.7193    2.1804 C.3     1  UNL1       -0.0301
     20 C           3.3938    0.1152    1.2043 C.2     1  UNL1       -0.0532
     21 C           4.2966    0.9929    1.6100 C.2     1  UNL1       -0.0148
     22 C           4.9300    1.7687    0.5510 C.2     1  UNL1        0.1787
     23 O           5.7966    2.6189    0.8762 O.2     1  UNL1       -0.2879
     24 C           4.6119    1.6110   -0.8634 C.2     1  UNL1       -0.0180
     25 C           3.6927    0.7023   -1.1498 C.2     1  UNL1       -0.0674
     26 C           2.9479   -0.1751   -0.1991 C.3     1  UNL1        0.0443
     27 C           3.2278   -1.6252   -0.4338 C.3     1  UNL1       -0.0493
     28 H          -0.5474    0.9966    0.8759 H       1  UNL1        0.0310
     29 H          -1.6003   -0.1385    2.5558 H       1  UNL1        0.0271
     30 H          -1.6072   -1.7324    1.7887 H       1  UNL1        0.0271
     31 H          -3.5699   -1.1327    0.6007 H       1  UNL1        0.0305
     32 H          -3.2160    0.7151    2.7970 H       1  UNL1        0.0233
     33 H          -4.7525    0.1853    1.9955 H       1  UNL1        0.0233
     34 H          -3.8787    1.6328    1.3506 H       1  UNL1        0.0233
     35 H          -2.2469    1.4981   -0.0156 H       1  UNL1        0.0386
     36 H          -5.3640    0.6750   -0.2712 H       1  UNL1        0.0636
     37 H          -4.6849    2.1824   -0.9382 H       1  UNL1        0.0636
     38 H          -6.6125    0.9822   -1.9677 H       1  UNL1        0.2100
     39 H          -0.9278   -1.9825   -1.8727 H       1  UNL1        0.0235
     40 H          -1.2717   -2.4087   -0.1720 H       1  UNL1        0.0235
     41 H          -2.5731   -1.9379   -1.2547 H       1  UNL1        0.0235
     42 H          -0.8075   -0.0998   -2.7337 H       1  UNL1        0.0297
     43 H          -0.9006    1.4382   -1.8699 H       1  UNL1        0.0297
     44 H           1.3777    1.3322   -2.0335 H       1  UNL1        0.0625
     45 H           1.1897   -0.5540   -3.3658 H       1  UNL1        0.2099
     46 H           0.6242   -1.7470    0.1857 H       1  UNL1        0.0336
     47 H           0.8741   -1.8132    2.4740 H       1  UNL1        0.0272
     48 H           0.7581   -0.0561    2.6740 H       1  UNL1        0.0272
     49 H           2.9771   -0.4095    3.2305 H       1  UNL1        0.0310
     50 H           3.1422   -1.7548    2.1138 H       1  UNL1        0.0310
     51 H           4.5024    1.0787    2.6616 H       1  UNL1        0.0656
     52 H           5.0819    2.1848   -1.6318 H       1  UNL1        0.0653
     53 H           3.4619    0.5909   -2.2039 H       1  UNL1        0.0583
     54 H           2.5864   -2.2498    0.2182 H       1  UNL1        0.0242
     55 H           3.0864   -1.9852   -1.4542 H       1  UNL1        0.0242
     56 H           4.2781   -1.7969   -0.0655 H       1  UNL1        0.0242
@<TRIPOS>BOND
     1     1     2    1
     2     2     3    1
     3     3     4    1
     4     3     5    1
     5     5     6    1
     6     6     7    2
     7     6     8    1
     8     8     9    1
     9     5    10    1
    10    10    11    1
    11    10    12    1
    12    12    13    1
    13    13    14    1
    14    13    15    1
    15    15    16    1
    16    15    17    1
    17    17    18    1
    18    18    19    1
    19    19    20    1
    20    20    21    2
    21    21    22    1
    22    22    23    2
    23    22    24    1
    24    24    25    2
    25    25    26    1
    26    26    27    1
    27    10     1    1
    28    26    15    1
    29    17     1    1
    30    26    20    1
    31     1    28    1
    32     2    29    1
    33     2    30    1
    34     3    31    1
    35     4    32    1
    36     4    33    1
    37     4    34    1
    38     5    35    1
    39     8    36    1
    40     8    37    1
    41     9    38    1
    42    11    39    1
    43    11    40    1
    44    11    41    1
    45    12    42    1
    46    12    43    1
    47    13    44    1
    48    14    45    1
    49    17    46    1
    50    18    47    1
    51    18    48    1
    52    19    49    1
    53    19    50    1
    54    21    51    1
    55    24    52    1
    56    25    53    1
    57    27    54    1
    58    27    55    1
    59    27    56    1
