@<TRIPOS>MOLECULE
*****
 73 78 0 0 0
SMALL
GASTEIGER

@<TRIPOS>ATOM
      1 C          -3.3724    6.8378    2.6620 C.3     1  UNL1        0.0804
      2 O          -2.9090    5.5404    2.4412 O.3     1  UNL1       -0.4795
      3 C          -2.1879    5.1954    1.3082 C.ar    1  UNL1        0.2191
      4 C          -1.7519    3.8850    1.1420 C.ar    1  UNL1        0.0404
      5 C          -1.0345    3.5771   -0.0021 C.ar    1  UNL1        0.1364
      6 N          -0.5646    2.2738   -0.2382 N.am    1  UNL1       -0.2240
      7 C           0.7159    1.7773    0.2212 C.2     1  UNL1        0.3219
      8 O           1.2795    2.2024    1.2607 O.2     1  UNL1       -0.2512
      9 N           1.1642    0.7819   -0.6873 N.am    1  UNL1       -0.1920
     10 C           2.3631   -0.0035   -0.6553 C.ar    1  UNL1        0.0455
     11 C           3.2468    0.1843    0.3762 C.ar    1  UNL1       -0.0392
     12 C           4.4236   -0.5679    0.4455 C.ar    1  UNL1       -0.0523
     13 C           4.6562   -1.4833   -0.5390 C.ar    1  UNL1       -0.0178
     14 C           5.8811   -2.3005   -0.4944 C.ar    1  UNL1       -0.0178
     15 C           6.5167   -2.7472   -1.6412 C.ar    1  UNL1       -0.0533
     16 C           7.6628   -3.5165   -1.4997 C.ar    1  UNL1       -0.0472
     17 C           8.1784   -3.8434   -0.2529 C.ar    1  UNL1        0.0589
     18 C           9.3809   -4.6528   -0.1713 C.2     1  UNL1        0.3368
     19 O           9.8445   -4.9464    0.9538 O.2     1  UNL1       -0.2451
     20 O          10.0306   -5.1101   -1.2983 O.3     1  UNL1       -0.4771
     21 C           7.5366   -3.3930    0.8562 C.ar    1  UNL1       -0.0472
     22 C           6.3903   -2.6232    0.7306 C.ar    1  UNL1       -0.0533
     23 C           3.7929   -1.6987   -1.5887 C.ar    1  UNL1       -0.0523
     24 C           2.6286   -0.9383   -1.6357 C.ar    1  UNL1       -0.0392
     25 C           0.1291    0.7046   -1.6869 C.2     1  UNL1        0.2516
     26 O           0.2330    0.3695   -2.8786 O.2     1  UNL1       -0.2724
     27 C          -1.1222    1.1308   -0.9409 C.3     1  UNL1        0.1240
     28 C          -2.1632    1.4642   -1.9453 C.3     1  UNL1       -0.0095
     29 C          -3.5210    1.5126   -1.2863 C.3     1  UNL1        0.0017
     30 N          -3.7563    0.2649   -0.6426 N.3     1  UNL1       -0.2965
     31 C          -4.9868   -0.3665   -0.8258 C.3     1  UNL1        0.0415
     32 C          -5.0640   -1.6392   -0.0723 C.ar    1  UNL1        0.0581
     33 N          -4.8604   -2.8161   -0.7321 N.ar    1  UNL1       -0.2583
     34 C          -4.8965   -4.0066   -0.1628 C.ar    1  UNL1        0.0279
     35 C          -5.1514   -4.1550    1.1874 C.ar    1  UNL1       -0.0433
     36 C          -5.3627   -2.9803    1.8864 C.ar    1  UNL1       -0.0557
     37 C          -5.3226   -1.7357    1.2792 C.ar    1  UNL1       -0.0279
     38 C          -5.5674   -0.4956    2.0825 C.3     1  UNL1       -0.0380
     39 C          -2.8969   -0.0609    0.4137 C.3     1  UNL1        0.0017
     40 C          -1.4518   -0.0165   -0.0517 C.3     1  UNL1       -0.0095
     41 N          -0.8254    4.5892   -0.8547 N.ar    1  UNL1       -0.2200
     42 C          -1.2400    5.8360   -0.6970 C.ar    1  UNL1        0.1219
     43 N          -1.9372    6.1607    0.4029 N.ar    1  UNL1       -0.2013
     44 H          -4.3824    7.0135    2.1890 H       1  UNL1        0.0660
     45 H          -2.7207    7.6308    2.2800 H       1  UNL1        0.0660
     46 H          -3.5791    6.9204    3.7646 H       1  UNL1        0.0660
     47 H          -1.9673    3.1227    1.8881 H       1  UNL1        0.0705
     48 H           3.0687    0.9120    1.1646 H       1  UNL1        0.0636
     49 H           5.1103   -0.3991    1.2775 H       1  UNL1        0.0624
     50 H           6.1016   -2.4835   -2.6037 H       1  UNL1        0.0624
     51 H           8.1824   -3.8808   -2.3869 H       1  UNL1        0.0626
     52 H          10.7199   -5.8528   -1.2939 H       1  UNL1        0.2954
     53 H           7.9518   -3.6567    1.8261 H       1  UNL1        0.0626
     54 H           5.8888   -2.2712    1.6219 H       1  UNL1        0.0624
     55 H           3.9907   -2.4312   -2.3673 H       1  UNL1        0.0624
     56 H           1.9196   -1.0764   -2.4428 H       1  UNL1        0.0636
     57 H          -2.1539    0.6664   -2.7247 H       1  UNL1        0.0303
     58 H          -1.9100    2.4125   -2.4582 H       1  UNL1        0.0303
     59 H          -3.5096    2.2892   -0.4690 H       1  UNL1        0.0427
     60 H          -4.3276    1.7384   -2.0226 H       1  UNL1        0.0427
     61 H          -5.8329    0.3204   -0.5372 H       1  UNL1        0.0491
     62 H          -5.1962   -0.6355   -1.9084 H       1  UNL1        0.0491
     63 H          -4.7175   -4.8760   -0.7990 H       1  UNL1        0.0829
     64 H          -5.1753   -5.1319    1.6257 H       1  UNL1        0.0633
     65 H          -5.5677   -3.0419    2.9547 H       1  UNL1        0.0621
     66 H          -5.6842    0.3991    1.4790 H       1  UNL1        0.0278
     67 H          -6.4523   -0.7271    2.7282 H       1  UNL1        0.0278
     68 H          -4.7119   -0.3168    2.7925 H       1  UNL1        0.0278
     69 H          -3.0595   -1.1079    0.7391 H       1  UNL1        0.0427
     70 H          -3.0377    0.5889    1.3083 H       1  UNL1        0.0427
     71 H          -1.2200   -0.9607   -0.5920 H       1  UNL1        0.0303
     72 H          -0.7942    0.0104    0.8402 H       1  UNL1        0.0303
     73 H          -1.0426    6.6339   -1.4288 H       1  UNL1        0.1049
@<TRIPOS>BOND
     1     1     2    1
     2     2     3    1
     3     3     4   ar
     4     4     5   ar
     5     5     6    1
     6     6     7   am
     7     7     8    2
     8     7     9   am
     9     9    10    1
    10    10    11   ar
    11    11    12   ar
    12    12    13   ar
    13    13    14    1
    14    14    15   ar
    15    15    16   ar
    16    16    17   ar
    17    17    18    1
    18    18    19    2
    19    18    20    1
    20    17    21   ar
    21    21    22   ar
    22    13    23   ar
    23    23    24   ar
    24     9    25   am
    25    25    26    2
    26    25    27    1
    27    27    28    1
    28    28    29    1
    29    29    30    1
    30    30    31    1
    31    31    32    1
    32    32    33   ar
    33    33    34   ar
    34    34    35   ar
    35    35    36   ar
    36    36    37   ar
    37    37    38    1
    38    30    39    1
    39    39    40    1
    40     5    41   ar
    41    41    42   ar
    42    42    43   ar
    43    43     3   ar
    44    27     6    1
    45    37    32   ar
    46    24    10   ar
    47    40    27    1
    48    22    14   ar
    49     1    44    1
    50     1    45    1
    51     1    46    1
    52     4    47    1
    53    11    48    1
    54    12    49    1
    55    15    50    1
    56    16    51    1
    57    20    52    1
    58    21    53    1
    59    22    54    1
    60    23    55    1
    61    24    56    1
    62    28    57    1
    63    28    58    1
    64    29    59    1
    65    29    60    1
    66    31    61    1
    67    31    62    1
    68    34    63    1
    69    35    64    1
    70    36    65    1
    71    38    66    1
    72    38    67    1
    73    38    68    1
    74    39    69    1
    75    39    70    1
    76    40    71    1
    77    40    72    1
    78    42    73    1
