@<TRIPOS>MOLECULE
*****
 31 32 0 0 0
SMALL
GASTEIGER

@<TRIPOS>ATOM
      1 C           5.5957   -0.1407   -0.2253 C.3     1  UNL1        0.0788
      2 O           4.4410    0.4641   -0.7255 O.3     1  UNL1       -0.4951
      3 C           3.1400    0.1531   -0.3848 C.ar    1  UNL1        0.1207
      4 C           2.2313    0.9577   -1.0780 C.ar    1  UNL1       -0.0122
      5 C           0.8605    0.7901   -0.8649 C.ar    1  UNL1       -0.0144
      6 C           0.4228   -0.1784    0.0369 C.ar    1  UNL1       -0.0174
      7 C           1.3444   -0.9762    0.7233 C.ar    1  UNL1       -0.0506
      8 C           2.6878   -0.7985    0.5022 C.ar    1  UNL1       -0.0194
      9 C          -0.9157   -0.3425    0.2454 C.ar    1  UNL1       -0.0501
     10 C          -1.8580    0.4210   -0.4089 C.ar    1  UNL1       -0.0334
     11 C          -1.4320    1.3844   -1.3054 C.ar    1  UNL1       -0.0572
     12 C          -0.0773    1.5672   -1.5317 C.ar    1  UNL1       -0.0536
     13 C          -3.3116    0.2528   -0.1915 C.3     1  UNL1        0.0784
     14 C          -3.6894    0.5594    1.2582 C.3     1  UNL1       -0.0482
     15 C          -3.7931   -1.0998   -0.6066 C.2     1  UNL1        0.3119
     16 O          -3.4201   -2.3337   -0.1498 O.3     1  UNL1       -0.4802
     17 O          -4.6560   -1.4658   -1.4725 O.2     1  UNL1       -0.2503
     18 H           5.4008   -1.1785    0.1710 H       1  UNL1        0.0660
     19 H           6.0821    0.4355    0.5919 H       1  UNL1        0.0660
     20 H           6.3825   -0.2948   -1.0178 H       1  UNL1        0.0660
     21 H           2.4743    1.7324   -1.7946 H       1  UNL1        0.0660
     22 H           1.0312   -1.7409    1.4339 H       1  UNL1        0.0625
     23 H           3.4756   -1.3680    0.9864 H       1  UNL1        0.0654
     24 H          -1.2509   -1.0998    0.9502 H       1  UNL1        0.0627
     25 H          -2.0855    2.0406   -1.8745 H       1  UNL1        0.0621
     26 H           0.2722    2.3294   -2.2416 H       1  UNL1        0.0624
     27 H          -3.9211    0.9630   -0.8117 H       1  UNL1        0.0459
     28 H          -4.4597   -0.1912    1.5314 H       1  UNL1        0.0241
     29 H          -2.8209    0.5434    1.9380 H       1  UNL1        0.0241
     30 H          -4.1410    1.5843    1.3483 H       1  UNL1        0.0241
     31 H          -4.0101   -2.9697    0.4056 H       1  UNL1        0.2951
@<TRIPOS>BOND
     1     1     2    1
     2     2     3    1
     3     3     4   ar
     4     4     5   ar
     5     5     6   ar
     6     6     7   ar
     7     7     8   ar
     8     6     9   ar
     9     9    10   ar
    10    10    11   ar
    11    11    12   ar
    12    10    13    1
    13    13    14    1
    14    13    15    1
    15    15    16    1
    16    15    17    2
    17     8     3   ar
    18    12     5   ar
    19     1    18    1
    20     1    19    1
    21     1    20    1
    22     4    21    1
    23     7    22    1
    24     8    23    1
    25     9    24    1
    26    11    25    1
    27    12    26    1
    28    13    27    1
    29    14    28    1
    30    14    29    1
    31    14    30    1
    32    16    31    1
