@<TRIPOS>MOLECULE
*****
 53 55 0 0 0
SMALL
GASTEIGER

@<TRIPOS>ATOM
      1 N          -4.0702    0.6563    2.5430 N.1     1  UNL1       -0.1946
      2 C          -4.2102   -0.5759    2.3692 C.1     1  UNL1        0.0860
      3 C          -4.3681   -1.9519    2.1998 C.3     1  UNL1        0.1226
      4 C          -3.7987   -2.6272    3.4552 C.3     1  UNL1        0.0271
      5 S          -3.8473   -4.3640    2.8877 S.3     1  UNL1       -0.1387
      6 C          -3.7662   -3.9808    1.0915 C.3     1  UNL1        0.0623
      7 N          -3.7120   -2.5013    1.0799 N.am    1  UNL1       -0.2745
      8 C          -3.0908   -1.8207    0.0227 C.2     1  UNL1        0.2327
      9 O          -2.6053   -2.5491   -0.9330 O.2     1  UNL1       -0.2741
     10 C          -2.9188   -0.3729   -0.1410 C.3     1  UNL1        0.0904
     11 N          -2.2639   -0.0560   -1.3575 N.3     1  UNL1       -0.2336
     12 N          -1.6418   -0.9735   -2.0881 N.3     1  UNL1       -0.2672
     13 C          -1.9639    1.3315   -1.5367 C.3     1  UNL1        0.0277
     14 C          -1.4998    1.7587   -2.8642 C.3     1  UNL1       -0.0231
     15 C          -0.0550    1.5025   -3.0784 C.3     1  UNL1        0.0008
     16 N           0.8344    2.1168   -2.0859 N.3     1  UNL1       -0.2939
     17 C           1.7051    1.0762   -1.6550 C.3     1  UNL1        0.0761
     18 C           2.7852    1.4330   -0.7407 C.2     1  UNL1        0.2323
     19 O           2.9252    2.5926   -0.3203 O.2     1  UNL1       -0.2740
     20 N           3.7377    0.4469   -0.2901 N.am    1  UNL1       -0.2693
     21 C           4.8100    0.6986    0.5872 C.ar    1  UNL1        0.1250
     22 C           5.7186   -0.3645    0.7705 C.ar    1  UNL1       -0.0201
     23 C           6.8063   -0.2155    1.5995 C.ar    1  UNL1       -0.0387
     24 C           7.0458    0.9611    2.2750 C.ar    1  UNL1        0.0592
     25 CL          8.4194    1.1826    3.3317 Cl      1  UNL1       -0.0820
     26 C           6.1165    1.9930    2.0652 C.ar    1  UNL1        0.0480
     27 N           5.0770    1.7996    1.2514 N.ar    1  UNL1       -0.2387
     28 C           0.0419    2.6949   -1.0547 C.3     1  UNL1        0.0008
     29 C          -1.0012    1.8018   -0.4566 C.3     1  UNL1       -0.0231
     30 H          -5.4837   -2.1702    2.1823 H       1  UNL1        0.0667
     31 H          -2.7912   -2.2757    3.6893 H       1  UNL1        0.0405
     32 H          -4.5460   -2.4616    4.2549 H       1  UNL1        0.0405
     33 H          -2.7908   -4.3372    0.7680 H       1  UNL1        0.0580
     34 H          -4.6411   -4.3338    0.5427 H       1  UNL1        0.0580
     35 H          -2.2670   -0.0233    0.6843 H       1  UNL1        0.0536
     36 H          -3.8941    0.1743   -0.0309 H       1  UNL1        0.0536
     37 H          -2.0591   -1.4291   -2.8849 H       1  UNL1        0.1370
     38 H          -0.7537   -1.2939   -1.7047 H       1  UNL1        0.1370
     39 H          -2.9231    1.8868   -1.3144 H       1  UNL1        0.0477
     40 H          -2.0371    1.2553   -3.7111 H       1  UNL1        0.0293
     41 H          -1.6942    2.8518   -2.9783 H       1  UNL1        0.0293
     42 H           0.1201    0.4217   -3.1029 H       1  UNL1        0.0427
     43 H           0.2761    1.8594   -4.1047 H       1  UNL1        0.0427
     44 H           1.0321    0.2901   -1.1866 H       1  UNL1        0.0522
     45 H           2.0857    0.5763   -2.5968 H       1  UNL1        0.0522
     46 H           3.5610   -0.5155   -0.6906 H       1  UNL1        0.1563
     47 H           5.5516   -1.2965    0.2537 H       1  UNL1        0.0652
     48 H           7.5302   -1.0143    1.7550 H       1  UNL1        0.0634
     49 H           6.3076    2.9155    2.6036 H       1  UNL1        0.0845
     50 H           0.6995    3.0573   -0.2327 H       1  UNL1        0.0427
     51 H          -0.4614    3.6087   -1.4792 H       1  UNL1        0.0427
     52 H          -0.5048    0.9187    0.0283 H       1  UNL1        0.0293
     53 H          -1.5266    2.3985    0.3287 H       1  UNL1        0.0293
@<TRIPOS>BOND
     1     1     2    3
     2     2     3    1
     3     3     4    1
     4     4     5    1
     5     5     6    1
     6     6     7    1
     7     7     8   am
     8     8     9    2
     9     8    10    1
    10    10    11    1
    11    11    12    1
    12    11    13    1
    13    13    14    1
    14    14    15    1
    15    15    16    1
    16    16    17    1
    17    17    18    1
    18    18    19    2
    19    18    20   am
    20    20    21    1
    21    21    22   ar
    22    22    23   ar
    23    23    24   ar
    24    24    25    1
    25    24    26   ar
    26    26    27   ar
    27    16    28    1
    28    28    29    1
    29     7     3    1
    30    29    13    1
    31    27    21   ar
    32     3    30    1
    33     4    31    1
    34     4    32    1
    35     6    33    1
    36     6    34    1
    37    10    35    1
    38    10    36    1
    39    12    37    1
    40    12    38    1
    41    13    39    1
    42    14    40    1
    43    14    41    1
    44    15    42    1
    45    15    43    1
    46    17    44    1
    47    17    45    1
    48    20    46    1
    49    22    47    1
    50    23    48    1
    51    26    49    1
    52    28    50    1
    53    28    51    1
    54    29    52    1
    55    29    53    1
