
     RDKit          3D

 48 52  0  0  0  0  0  0  0  0999 V2000
   -3.4726   -4.0201   -0.4879 C   0  0  0  0  0  0  0  0  0  0  0  0
   -3.1537   -3.2070    0.6942 N   0  0  0  0  0  0  0  0  0  0  0  0
   -1.7409   -3.2370    0.9071 C   0  0  0  0  0  0  0  0  0  0  0  0
   -1.1002   -2.4707   -0.2585 C   0  0  0  0  0  0  0  0  0  0  0  0
   -1.5053   -1.0929   -0.0634 N   0  0  0  0  0  0  0  0  0  0  0  0
   -2.7565   -0.8570    0.3400 C   0  0  0  0  0  0  0  0  0  0  0  0
   -2.8782    0.4904    0.4456 N   0  0  0  0  0  0  0  0  0  0  0  0
   -1.7227    1.0896    0.1138 C   0  0  0  0  0  0  0  0  0  0  0  0
   -1.4618    2.5425    0.1048 C   0  0  0  0  0  0  0  0  0  0  0  0
   -0.5239    3.1343    0.9252 C   0  0  0  0  0  0  0  0  0  0  0  0
   -0.3094    4.5115    0.8834 C   0  0  0  0  0  0  0  0  0  0  0  0
   -1.0437    5.3098    0.0078 C   0  0  0  0  0  0  0  0  0  0  0  0
   -0.8325    6.6646   -0.0332 F   0  0  0  0  0  0  0  0  0  0  0  0
   -1.9760    4.7328   -0.8099 C   0  0  0  0  0  0  0  0  0  0  0  0
   -2.1601    3.3753   -0.7414 C   0  0  0  0  0  0  0  0  0  0  0  0
   -0.8392    0.0815   -0.2133 C   0  0  0  0  0  0  0  0  0  0  0  0
    0.5431    0.2559   -0.6393 C   0  0  0  0  0  0  0  0  0  0  0  0
    0.8246    0.9150   -1.8220 C   0  0  0  0  0  0  0  0  0  0  0  0
    2.1247    1.0933   -2.2407 C   0  0  0  0  0  0  0  0  0  0  0  0
    3.1758    0.6002   -1.4579 C   0  0  0  0  0  0  0  0  0  0  0  0
    4.5065    0.6640   -1.6759 N   0  0  0  0  0  0  0  0  0  0  0  0
    5.0654    0.0453   -0.6310 C   0  0  0  0  0  0  0  0  0  0  0  0
    4.0860   -0.4131    0.2537 C   0  0  0  0  0  0  0  0  0  0  0  0
    4.2776   -1.1258    1.4953 C   0  0  0  0  0  0  0  0  0  0  0  0
    5.5844   -1.4316    1.9411 N   0  0  0  0  0  0  0  0  0  0  0  0
    3.3013   -1.4761    2.1816 O   0  0  0  0  0  0  0  0  0  0  0  0
    2.9125   -0.0415   -0.3074 N   0  0  0  0  0  0  0  0  0  0  0  0
    1.6238   -0.2037    0.0820 C   0  0  0  0  0  0  0  0  0  0  0  0
   -3.7491   -1.9193    0.5954 C   0  0  0  0  0  0  0  0  0  0  0  0
   -4.4341   -4.5333   -0.3958 H   0  0  0  0  0  0  0  0  0  0  0  0
   -3.5487   -3.3380   -1.3823 H   0  0  0  0  0  0  0  0  0  0  0  0
   -2.6649   -4.7291   -0.6944 H   0  0  0  0  0  0  0  0  0  0  0  0
   -1.4474   -2.7397    1.8293 H   0  0  0  0  0  0  0  0  0  0  0  0
   -1.4289   -4.3127    0.8677 H   0  0  0  0  0  0  0  0  0  0  0  0
   -1.5123   -2.9166   -1.1778 H   0  0  0  0  0  0  0  0  0  0  0  0
   -0.0002   -2.5919   -0.2158 H   0  0  0  0  0  0  0  0  0  0  0  0
    0.0395    2.4926    1.6024 H   0  0  0  0  0  0  0  0  0  0  0  0
    0.4202    4.9608    1.5242 H   0  0  0  0  0  0  0  0  0  0  0  0
   -2.5364    5.3434   -1.4780 H   0  0  0  0  0  0  0  0  0  0  0  0
   -2.8975    2.9289   -1.3895 H   0  0  0  0  0  0  0  0  0  0  0  0
    0.0344    1.3055   -2.4453 H   0  0  0  0  0  0  0  0  0  0  0  0
    2.3147    1.6131   -3.1705 H   0  0  0  0  0  0  0  0  0  0  0  0
    6.1132   -0.0936   -0.4694 H   0  0  0  0  0  0  0  0  0  0  0  0
    6.1247   -2.2527    1.5902 H   0  0  0  0  0  0  0  0  0  0  0  0
    6.0538   -0.8294    2.6499 H   0  0  0  0  0  0  0  0  0  0  0  0
    1.4400   -0.7219    1.0088 H   0  0  0  0  0  0  0  0  0  0  0  0
   -4.5205   -1.9590   -0.2319 H   0  0  0  0  0  0  0  0  0  0  0  0
   -4.3491   -1.6364    1.4911 H   0  0  0  0  0  0  0  0  0  0  0  0
  1  2  1  0
  2  3  1  0
  3  4  1  0
  4  5  1  0
  5  6  1  0
  6  7  2  0
  7  8  1  0
  8  9  1  0
  9 10  2  0
 10 11  1  0
 11 12  2  0
 12 13  1  0
 12 14  1  0
 14 15  2  0
  8 16  2  0
 16 17  1  0
 17 18  1  0
 18 19  2  0
 19 20  1  0
 20 21  2  0
 21 22  1  0
 22 23  2  0
 23 24  1  0
 24 25  1  0
 24 26  2  0
 23 27  1  0
 27 28  1  0
  6 29  1  0
 29  2  1  0
 16  5  1  0
 28 17  2  0
 15  9  1  0
 27 20  1  0
  1 30  1  0
  1 31  1  0
  1 32  1  0
  3 33  1  0
  3 34  1  0
  4 35  1  0
  4 36  1  0
 10 37  1  0
 11 38  1  0
 14 39  1  0
 15 40  1  0
 18 41  1  0
 19 42  1  0
 22 43  1  0
 25 44  1  0
 25 45  1  0
 28 46  1  0
 29 47  1  0
 29 48  1  0
M  END
$$$$
