@<TRIPOS>MOLECULE
*****
 48 52 0 0 0
SMALL
GASTEIGER

@<TRIPOS>ATOM
      1 C          -3.4726   -4.0201   -0.4879 C.3     1  UNL1       -0.0123
      2 N          -3.1537   -3.2070    0.6942 N.3     1  UNL1       -0.2966
      3 C          -1.7409   -3.2370    0.9071 C.3     1  UNL1        0.0171
      4 C          -1.1002   -2.4707   -0.2585 C.3     1  UNL1        0.0377
      5 N          -1.5053   -1.0929   -0.0634 N.ar    1  UNL1       -0.3247
      6 C          -2.7565   -0.8570    0.3400 C.ar    1  UNL1        0.1250
      7 N          -2.8782    0.4904    0.4456 N.ar    1  UNL1       -0.2303
      8 C          -1.7227    1.0896    0.1138 C.ar    1  UNL1        0.0971
      9 C          -1.4618    2.5425    0.1048 C.ar    1  UNL1        0.0026
     10 C          -0.5239    3.1343    0.9252 C.ar    1  UNL1       -0.0498
     11 C          -0.3094    4.5115    0.8834 C.ar    1  UNL1       -0.0258
     12 C          -1.0437    5.3098    0.0078 C.ar    1  UNL1        0.1234
     13 F          -0.8325    6.6646   -0.0332 F       1  UNL1       -0.2055
     14 C          -1.9760    4.7328   -0.8099 C.ar    1  UNL1       -0.0258
     15 C          -2.1601    3.3753   -0.7414 C.ar    1  UNL1       -0.0498
     16 C          -0.8392    0.0815   -0.2133 C.ar    1  UNL1        0.0781
     17 C           0.5431    0.2559   -0.6393 C.ar    1  UNL1        0.0173
     18 C           0.8246    0.9150   -1.8220 C.ar    1  UNL1       -0.0477
     19 C           2.1247    1.0933   -2.2407 C.ar    1  UNL1       -0.0182
     20 C           3.1758    0.6002   -1.4579 C.ar    1  UNL1        0.1381
     21 N           4.5065    0.6640   -1.6759 N.ar    1  UNL1       -0.2353
     22 C           5.0654    0.0453   -0.6310 C.ar    1  UNL1        0.0588
     23 C           4.0860   -0.4131    0.2537 C.ar    1  UNL1        0.1280
     24 C           4.2776   -1.1258    1.4953 C.2     1  UNL1        0.2599
     25 N           5.5844   -1.4316    1.9411 N.am    1  UNL1       -0.3241
     26 O           3.3013   -1.4761    2.1816 O.2     1  UNL1       -0.2687
     27 N           2.9125   -0.0415   -0.3074 N.ar    1  UNL1       -0.2949
     28 C           1.6238   -0.2037    0.0820 C.ar    1  UNL1        0.0211
     29 C          -3.7491   -1.9193    0.5954 C.3     1  UNL1        0.0570
     30 H          -4.4341   -4.5333   -0.3958 H       1  UNL1        0.0391
     31 H          -3.5487   -3.3380   -1.3823 H       1  UNL1        0.0391
     32 H          -2.6649   -4.7291   -0.6944 H       1  UNL1        0.0391
     33 H          -1.4474   -2.7397    1.8293 H       1  UNL1        0.0444
     34 H          -1.4289   -4.3127    0.8677 H       1  UNL1        0.0444
     35 H          -1.5123   -2.9166   -1.1778 H       1  UNL1        0.0505
     36 H          -0.0002   -2.5919   -0.2158 H       1  UNL1        0.0505
     37 H           0.0395    2.4926    1.6024 H       1  UNL1        0.0625
     38 H           0.4202    4.9608    1.5242 H       1  UNL1        0.0646
     39 H          -2.5364    5.3434   -1.4780 H       1  UNL1        0.0646
     40 H          -2.8975    2.9289   -1.3895 H       1  UNL1        0.0625
     41 H           0.0344    1.3055   -2.4453 H       1  UNL1        0.0626
     42 H           2.3147    1.6131   -3.1705 H       1  UNL1        0.0654
     43 H           6.1132   -0.0936   -0.4694 H       1  UNL1        0.0853
     44 H           6.1247   -2.2527    1.5902 H       1  UNL1        0.1453
     45 H           6.0538   -0.8294    2.6499 H       1  UNL1        0.1453
     46 H           1.4400   -0.7219    1.0088 H       1  UNL1        0.0820
     47 H          -4.5205   -1.9590   -0.2319 H       1  UNL1        0.0506
     48 H          -4.3491   -1.6364    1.4911 H       1  UNL1        0.0506
@<TRIPOS>BOND
     1     1     2    1
     2     2     3    1
     3     3     4    1
     4     4     5    1
     5     5     6   ar
     6     6     7   ar
     7     7     8   ar
     8     8     9    1
     9     9    10   ar
    10    10    11   ar
    11    11    12   ar
    12    12    13    1
    13    12    14   ar
    14    14    15   ar
    15     8    16   ar
    16    16    17    1
    17    17    18   ar
    18    18    19   ar
    19    19    20   ar
    20    20    21   ar
    21    21    22   ar
    22    22    23   ar
    23    23    24    1
    24    24    25   am
    25    24    26    2
    26    23    27   ar
    27    27    28   ar
    28     6    29    1
    29    29     2    1
    30    16     5   ar
    31    28    17   ar
    32    15     9   ar
    33    27    20   ar
    34     1    30    1
    35     1    31    1
    36     1    32    1
    37     3    33    1
    38     3    34    1
    39     4    35    1
    40     4    36    1
    41    10    37    1
    42    11    38    1
    43    14    39    1
    44    15    40    1
    45    18    41    1
    46    19    42    1
    47    22    43    1
    48    25    44    1
    49    25    45    1
    50    28    46    1
    51    29    47    1
    52    29    48    1
