@<TRIPOS>MOLECULE
*****
 43 45 0 0 0
SMALL
GASTEIGER

@<TRIPOS>ATOM
      1 C           6.2618    0.7410    0.1615 C.3     1  UNL1       -0.0397
      2 C           4.7889    0.6643   -0.0319 C.ar    1  UNL1       -0.0501
      3 C           4.0008    1.4964    0.7273 C.ar    1  UNL1       -0.0578
      4 C           2.6413    1.4473    0.5702 C.ar    1  UNL1       -0.0475
      5 C           2.0951    0.5535   -0.3564 C.ar    1  UNL1        0.0157
      6 S           0.3366    0.5317   -0.5182 S.3     1  UNL1       -0.0873
      7 C          -0.4476   -0.6143    0.5691 C.ar    1  UNL1        0.0337
      8 C           0.3562   -1.3638    1.4176 C.ar    1  UNL1       -0.0462
      9 C          -0.2712   -2.2646    2.2669 C.ar    1  UNL1       -0.0606
     10 C          -1.6475   -2.4070    2.2645 C.ar    1  UNL1       -0.0599
     11 C          -2.4200   -1.6405    1.4023 C.ar    1  UNL1       -0.0396
     12 C          -1.8164   -0.7398    0.5505 C.ar    1  UNL1        0.0437
     13 N          -2.5824    0.0542   -0.3350 N.pl3   1  UNL1       -0.3266
     14 C          -2.5194    1.4932   -0.1811 C.3     1  UNL1        0.0248
     15 C          -3.8408    2.1416   -0.5433 C.3     1  UNL1        0.0117
     16 N          -4.9298    1.2126   -0.3444 N.3     1  UNL1       -0.3130
     17 C          -4.8350    0.0038   -1.1005 C.3     1  UNL1        0.0117
     18 C          -3.4310   -0.4549   -1.3876 C.3     1  UNL1        0.0248
     19 C           2.8830   -0.2740   -1.1110 C.ar    1  UNL1       -0.0365
     20 C           2.2697   -1.2118   -2.0865 C.3     1  UNL1       -0.0386
     21 C           4.2443   -0.2284   -0.9574 C.ar    1  UNL1       -0.0549
     22 H           6.7112   -0.2584   -0.0479 H       1  UNL1        0.0278
     23 H           6.5136    1.0078    1.2039 H       1  UNL1        0.0278
     24 H           6.7268    1.5176   -0.4801 H       1  UNL1        0.0278
     25 H           4.4395    2.1840    1.4415 H       1  UNL1        0.0621
     26 H           1.9790    2.0961    1.1583 H       1  UNL1        0.0629
     27 H           1.4374   -1.2375    1.4047 H       1  UNL1        0.0629
     28 H           0.3566   -2.8608    2.9405 H       1  UNL1        0.0618
     29 H          -2.1358   -3.1045    2.9219 H       1  UNL1        0.0618
     30 H          -3.4976   -1.7491    1.3975 H       1  UNL1        0.0636
     31 H          -1.7321    1.9656   -0.8037 H       1  UNL1        0.0476
     32 H          -2.3105    1.7092    0.8853 H       1  UNL1        0.0476
     33 H          -3.9905    2.9876    0.1536 H       1  UNL1        0.0439
     34 H          -3.8259    2.4645   -1.5967 H       1  UNL1        0.0439
     35 H          -5.8411    1.6826   -0.4465 H       1  UNL1        0.1220
     36 H          -5.3766   -0.8008   -0.5254 H       1  UNL1        0.0439
     37 H          -5.4024    0.1171   -2.0503 H       1  UNL1        0.0439
     38 H          -3.1513   -0.0473   -2.3837 H       1  UNL1        0.0476
     39 H          -3.4431   -1.5682   -1.4230 H       1  UNL1        0.0476
     40 H           3.0621   -1.4713   -2.8448 H       1  UNL1        0.0278
     41 H           1.3925   -0.7331   -2.5400 H       1  UNL1        0.0278
     42 H           2.0254   -2.1974   -1.6020 H       1  UNL1        0.0278
     43 H           4.9264   -0.8439   -1.5110 H       1  UNL1        0.0623
@<TRIPOS>BOND
     1     1     2    1
     2     2     3   ar
     3     3     4   ar
     4     4     5   ar
     5     5     6    1
     6     6     7    1
     7     7     8   ar
     8     8     9   ar
     9     9    10   ar
    10    10    11   ar
    11    11    12   ar
    12    12    13    1
    13    13    14    1
    14    14    15    1
    15    15    16    1
    16    16    17    1
    17    17    18    1
    18     5    19   ar
    19    19    20    1
    20    19    21   ar
    21    21     2   ar
    22    12     7   ar
    23    18    13    1
    24     1    22    1
    25     1    23    1
    26     1    24    1
    27     3    25    1
    28     4    26    1
    29     8    27    1
    30     9    28    1
    31    10    29    1
    32    11    30    1
    33    14    31    1
    34    14    32    1
    35    15    33    1
    36    15    34    1
    37    16    35    1
    38    17    36    1
    39    17    37    1
    40    18    38    1
    41    18    39    1
    42    20    40    1
    43    20    41    1
    44    20    42    1
    45    21    43    1
