@<TRIPOS>MOLECULE
*****
 37 40 0 0 0
SMALL
GASTEIGER

@<TRIPOS>ATOM
      1 O           1.1915    0.7736   -2.6593 O.2     1  UNL1       -0.1642
      2 S           0.6238   -0.1241   -1.5694 S.O2    1  UNL1        0.0277
      3 O          -0.2541   -1.1254   -2.2993 O.2     1  UNL1       -0.1642
      4 C           1.8942   -0.9552   -0.7229 C.ar    1  UNL1        0.0937
      5 C           1.7285   -2.2231   -0.2225 C.ar    1  UNL1       -0.0365
      6 C           2.7467   -2.8725    0.4485 C.ar    1  UNL1       -0.0599
      7 C           3.9576   -2.2196    0.6142 C.ar    1  UNL1       -0.0616
      8 C           4.1612   -0.9456    0.1253 C.ar    1  UNL1       -0.0599
      9 C           3.1079   -0.3437   -0.5379 C.ar    1  UNL1       -0.0365
     10 C          -0.3838    0.8122   -0.4884 C.ar    1  UNL1        0.1284
     11 C          -1.5373    0.3748    0.1681 C.ar    1  UNL1        0.0976
     12 C          -2.1492   -0.9223    0.1063 C.2     1  UNL1        0.1168
     13 N          -2.5136   -1.5452   -0.9255 N.2     1  UNL1       -0.2742
     14 C          -3.0982   -2.8134   -0.8173 C.3     1  UNL1        0.0503
     15 C          -3.7195   -3.0395    0.5435 C.3     1  UNL1        0.0193
     16 S          -2.5583   -1.9609    1.4995 S.3     1  UNL1       -0.1025
     17 N          -1.9851    1.4190    0.8904 N.ar    1  UNL1       -0.3510
     18 C          -1.1892    2.4810    0.7301 C.ar    1  UNL1        0.0489
     19 C          -1.2669    3.7443    1.2721 C.ar    1  UNL1       -0.0363
     20 C          -0.3186    4.6965    0.9606 C.ar    1  UNL1       -0.0414
     21 C           0.7087    4.3633    0.0976 C.ar    1  UNL1        0.0417
     22 CL          1.9383    5.5465   -0.3261 Cl      1  UNL1       -0.0835
     23 C           0.7649    3.0917   -0.4322 C.ar    1  UNL1       -0.0324
     24 C          -0.1659    2.1268   -0.1380 C.ar    1  UNL1        0.0270
     25 H           0.7794   -2.7707   -0.3364 H       1  UNL1        0.0637
     26 H           2.6441   -3.8754    0.8550 H       1  UNL1        0.0618
     27 H           4.7904   -2.6908    1.1364 H       1  UNL1        0.0618
     28 H           5.1113   -0.4326    0.2550 H       1  UNL1        0.0618
     29 H           3.3131    0.6710   -0.9110 H       1  UNL1        0.0637
     30 H          -2.3222   -3.6081   -0.9300 H       1  UNL1        0.0517
     31 H          -3.8625   -2.8963   -1.6264 H       1  UNL1        0.0517
     32 H          -3.6642   -4.0725    0.8889 H       1  UNL1        0.0398
     33 H          -4.7362   -2.5887    0.6197 H       1  UNL1        0.0398
     34 H          -2.8517    1.4029    1.5039 H       1  UNL1        0.1660
     35 H          -2.0781    4.0055    1.9528 H       1  UNL1        0.0639
     36 H          -0.3712    5.6781    1.3761 H       1  UNL1        0.0633
     37 H           1.5645    2.8385   -1.1015 H       1  UNL1        0.0639
@<TRIPOS>BOND
     1     1     2    2
     2     2     3    2
     3     2     4    1
     4     4     5   ar
     5     5     6   ar
     6     6     7   ar
     7     7     8   ar
     8     8     9   ar
     9     2    10    1
    10    10    11   ar
    11    11    12    1
    12    12    13    2
    13    13    14    1
    14    14    15    1
    15    15    16    1
    16    11    17   ar
    17    17    18   ar
    18    18    19   ar
    19    19    20   ar
    20    20    21   ar
    21    21    22    1
    22    21    23   ar
    23    23    24   ar
    24     9     4   ar
    25    24    10   ar
    26    16    12    1
    27    24    18   ar
    28     5    25    1
    29     6    26    1
    30     7    27    1
    31     8    28    1
    32     9    29    1
    33    14    30    1
    34    14    31    1
    35    15    32    1
    36    15    33    1
    37    17    34    1
    38    19    35    1
    39    20    36    1
    40    23    37    1
