
     RDKit          3D

 37 40  0  0  0  0  0  0  0  0999 V2000
    1.1915    0.7736   -2.6593 O   0  0  0  0  0  0  0  0  0  0  0  0
    0.6238   -0.1241   -1.5694 S   0  0  0  0  0  6  0  0  0  0  0  0
   -0.2541   -1.1254   -2.2993 O   0  0  0  0  0  0  0  0  0  0  0  0
    1.8942   -0.9552   -0.7229 C   0  0  0  0  0  0  0  0  0  0  0  0
    1.7285   -2.2231   -0.2225 C   0  0  0  0  0  0  0  0  0  0  0  0
    2.7467   -2.8725    0.4485 C   0  0  0  0  0  0  0  0  0  0  0  0
    3.9576   -2.2196    0.6142 C   0  0  0  0  0  0  0  0  0  0  0  0
    4.1612   -0.9456    0.1253 C   0  0  0  0  0  0  0  0  0  0  0  0
    3.1079   -0.3437   -0.5379 C   0  0  0  0  0  0  0  0  0  0  0  0
   -0.3838    0.8122   -0.4884 C   0  0  0  0  0  0  0  0  0  0  0  0
   -1.5373    0.3748    0.1681 C   0  0  0  0  0  0  0  0  0  0  0  0
   -2.1492   -0.9223    0.1063 C   0  0  0  0  0  0  0  0  0  0  0  0
   -2.5136   -1.5452   -0.9255 N   0  0  0  0  0  0  0  0  0  0  0  0
   -3.0982   -2.8134   -0.8173 C   0  0  0  0  0  0  0  0  0  0  0  0
   -3.7195   -3.0395    0.5435 C   0  0  0  0  0  0  0  0  0  0  0  0
   -2.5583   -1.9609    1.4995 S   0  0  0  0  0  0  0  0  0  0  0  0
   -1.9851    1.4190    0.8904 N   0  0  0  0  0  0  0  0  0  0  0  0
   -1.1892    2.4810    0.7301 C   0  0  0  0  0  0  0  0  0  0  0  0
   -1.2669    3.7443    1.2721 C   0  0  0  0  0  0  0  0  0  0  0  0
   -0.3186    4.6965    0.9606 C   0  0  0  0  0  0  0  0  0  0  0  0
    0.7087    4.3633    0.0976 C   0  0  0  0  0  0  0  0  0  0  0  0
    1.9383    5.5465   -0.3261 Cl  0  0  0  0  0  0  0  0  0  0  0  0
    0.7649    3.0917   -0.4322 C   0  0  0  0  0  0  0  0  0  0  0  0
   -0.1659    2.1268   -0.1380 C   0  0  0  0  0  0  0  0  0  0  0  0
    0.7794   -2.7707   -0.3364 H   0  0  0  0  0  0  0  0  0  0  0  0
    2.6441   -3.8754    0.8550 H   0  0  0  0  0  0  0  0  0  0  0  0
    4.7904   -2.6908    1.1364 H   0  0  0  0  0  0  0  0  0  0  0  0
    5.1113   -0.4326    0.2550 H   0  0  0  0  0  0  0  0  0  0  0  0
    3.3131    0.6710   -0.9110 H   0  0  0  0  0  0  0  0  0  0  0  0
   -2.3222   -3.6081   -0.9300 H   0  0  0  0  0  0  0  0  0  0  0  0
   -3.8625   -2.8963   -1.6264 H   0  0  0  0  0  0  0  0  0  0  0  0
   -3.6642   -4.0725    0.8889 H   0  0  0  0  0  0  0  0  0  0  0  0
   -4.7362   -2.5887    0.6197 H   0  0  0  0  0  0  0  0  0  0  0  0
   -2.8517    1.4029    1.5039 H   0  0  0  0  0  0  0  0  0  0  0  0
   -2.0781    4.0055    1.9528 H   0  0  0  0  0  0  0  0  0  0  0  0
   -0.3712    5.6781    1.3761 H   0  0  0  0  0  0  0  0  0  0  0  0
    1.5645    2.8385   -1.1015 H   0  0  0  0  0  0  0  0  0  0  0  0
  1  2  2  0
  2  3  2  0
  2  4  1  0
  4  5  2  0
  5  6  1  0
  6  7  2  0
  7  8  1  0
  8  9  2  0
  2 10  1  0
 10 11  2  0
 11 12  1  0
 12 13  2  0
 13 14  1  0
 14 15  1  0
 15 16  1  0
 11 17  1  0
 17 18  1  0
 18 19  2  0
 19 20  1  0
 20 21  2  0
 21 22  1  0
 21 23  1  0
 23 24  2  0
  9  4  1  0
 24 10  1  0
 16 12  1  0
 24 18  1  0
  5 25  1  0
  6 26  1  0
  7 27  1  0
  8 28  1  0
  9 29  1  0
 14 30  1  0
 14 31  1  0
 15 32  1  0
 15 33  1  0
 17 34  1  0
 19 35  1  0
 20 36  1  0
 23 37  1  0
M  END
$$$$
