
     RDKit          3D

 65 68  0  0  0  0  0  0  0  0999 V2000
   -4.9464    4.6825   -0.3953 C   0  0  0  0  0  0  0  0  0  0  0  0
   -5.5649    4.2217    0.9066 C   0  0  0  0  0  0  0  0  0  0  0  0
   -6.1055    2.7943    0.7518 C   0  0  0  0  0  0  0  0  0  0  0  0
   -4.9105    1.8988    0.4320 C   0  0  0  0  0  0  0  0  0  0  0  0
   -4.0240    1.9648    1.5564 N   0  0  0  0  0  0  0  0  0  0  0  0
   -2.7472    1.2684    1.5273 C   0  0  0  0  0  0  0  0  0  0  0  0
   -1.9510    1.2543    2.5892 N   0  0  0  0  0  0  0  0  0  0  0  0
   -0.7644    0.6404    2.6322 C   0  0  0  0  0  0  0  0  0  0  0  0
   -0.3680   -0.0248    1.4493 C   0  0  0  0  0  0  0  0  0  0  0  0
    1.0836   -0.2981    1.4270 C   0  0  0  0  0  0  0  0  0  0  0  0
    1.7745   -0.2679    0.2499 C   0  0  0  0  0  0  0  0  0  0  0  0
    3.1612   -0.3233    0.2550 C   0  0  0  0  0  0  0  0  0  0  0  0
    3.7721   -0.2651   -1.0206 N   0  0  0  0  0  0  0  0  0  0  0  0
    4.8789    0.6082   -1.1897 C   0  0  0  0  0  0  0  0  0  0  0  0
    4.8461    1.4892   -2.2718 C   0  0  0  0  0  0  0  0  0  0  0  0
    5.8841    2.3548   -2.4878 C   0  0  0  0  0  0  0  0  0  0  0  0
    6.9565    2.3493   -1.6340 C   0  0  0  0  0  0  0  0  0  0  0  0
    6.9906    1.4649   -0.5482 C   0  0  0  0  0  0  0  0  0  0  0  0
    8.1128    1.4877    0.2976 N   0  0  0  0  0  4  0  0  0  0  0  0
    8.1603    0.6896    1.2530 O   0  0  0  0  0  0  0  0  0  0  0  0
    9.1563    2.3438    0.1104 O   0  0  0  0  0  1  0  0  0  0  0  0
    5.9422    0.5971   -0.3363 C   0  0  0  0  0  0  0  0  0  0  0  0
    3.8121   -0.4045    1.4088 N   0  0  0  0  0  0  0  0  0  0  0  0
    3.1037   -0.4320    2.5806 C   0  0  0  0  0  0  0  0  0  0  0  0
    1.7788   -0.3777    2.5578 N   0  0  0  0  0  0  0  0  0  0  0  0
   -1.1686   -0.0317    0.3671 C   0  0  0  0  0  0  0  0  0  0  0  0
   -1.0529   -0.9555   -0.6921 N   0  0  0  0  0  0  0  0  0  0  0  0
   -0.4562   -2.2307   -0.6408 C   0  0  1  0  0  0  0  0  0  0  0  0
   -1.0794   -3.0696    0.4925 C   0  0  0  0  0  0  0  0  0  0  0  0
   -2.2621   -3.8606   -0.0243 C   0  0  0  0  0  0  0  0  0  0  0  0
   -1.6961   -5.0013   -0.8938 C   0  0  2  0  0  0  0  0  0  0  0  0
   -1.2459   -5.9894   -0.0326 O   0  0  0  0  0  0  0  0  0  0  0  0
   -0.5148   -4.4527   -1.6744 C   0  0  0  0  0  0  0  0  0  0  0  0
   -0.8229   -3.0045   -1.9568 C   0  0  0  0  0  0  0  0  0  0  0  0
   -2.3893    0.6438    0.4181 N   0  0  0  0  0  0  0  0  0  0  0  0
   -5.3042    3.9817   -1.1906 H   0  0  0  0  0  0  0  0  0  0  0  0
   -5.3100    5.6931   -0.6910 H   0  0  0  0  0  0  0  0  0  0  0  0
   -3.8443    4.7472   -0.3802 H   0  0  0  0  0  0  0  0  0  0  0  0
   -6.3688    4.8582    1.2856 H   0  0  0  0  0  0  0  0  0  0  0  0
   -4.7384    4.2702    1.6560 H   0  0  0  0  0  0  0  0  0  0  0  0
   -6.8629    2.7602   -0.0522 H   0  0  0  0  0  0  0  0  0  0  0  0
   -6.5333    2.4223    1.6874 H   0  0  0  0  0  0  0  0  0  0  0  0
   -4.4530    2.2539   -0.5082 H   0  0  0  0  0  0  0  0  0  0  0  0
   -5.2446    0.8485    0.2651 H   0  0  0  0  0  0  0  0  0  0  0  0
   -4.2445    2.4888    2.4159 H   0  0  0  0  0  0  0  0  0  0  0  0
   -0.1399    0.6479    3.5116 H   0  0  0  0  0  0  0  0  0  0  0  0
    1.2577   -0.1447   -0.7269 H   0  0  0  0  0  0  0  0  0  0  0  0
    3.4275   -0.8462   -1.8197 H   0  0  0  0  0  0  0  0  0  0  0  0
    3.9940    1.4661   -2.9193 H   0  0  0  0  0  0  0  0  0  0  0  0
    5.8690    3.0473   -3.3235 H   0  0  0  0  0  0  0  0  0  0  0  0
    7.7916    3.0396   -1.7883 H   0  0  0  0  0  0  0  0  0  0  0  0
    6.0141   -0.0697    0.5155 H   0  0  0  0  0  0  0  0  0  0  0  0
    3.6794   -0.4992    3.4846 H   0  0  0  0  0  0  0  0  0  0  0  0
   -1.4743   -0.5865   -1.6219 H   0  0  0  0  0  0  0  0  0  0  0  0
    0.5983   -2.3392   -0.5887 H   0  0  0  0  0  0  0  0  0  0  0  0
   -1.4366   -2.4028    1.3234 H   0  0  0  0  0  0  0  0  0  0  0  0
   -0.3554   -3.7744    0.9076 H   0  0  0  0  0  0  0  0  0  0  0  0
   -2.7447   -4.3018    0.8908 H   0  0  0  0  0  0  0  0  0  0  0  0
   -2.9546   -3.2253   -0.5752 H   0  0  0  0  0  0  0  0  0  0  0  0
   -2.5088   -5.3447   -1.5588 H   0  0  0  0  0  0  0  0  0  0  0  0
   -1.4974   -5.7933    0.9208 H   0  0  0  0  0  0  0  0  0  0  0  0
   -0.3235   -5.0314   -2.5940 H   0  0  0  0  0  0  0  0  0  0  0  0
    0.3679   -4.4710   -1.0061 H   0  0  0  0  0  0  0  0  0  0  0  0
   -0.1371   -2.6411   -2.7509 H   0  0  0  0  0  0  0  0  0  0  0  0
   -1.8669   -2.8179   -2.2326 H   0  0  0  0  0  0  0  0  0  0  0  0
  1  2  1  0
  2  3  1  0
  3  4  1  0
  4  5  1  0
  5  6  1  0
  6  7  2  0
  7  8  1  0
  8  9  2  0
  9 10  1  0
 10 11  2  0
 11 12  1  0
 12 13  1  0
 13 14  1  0
 14 15  2  0
 15 16  1  0
 16 17  2  0
 17 18  1  0
 18 19  1  0
 19 20  2  0
 19 21  1  0
 18 22  2  0
 12 23  2  0
 23 24  1  0
 24 25  2  0
  9 26  1  0
 26 27  1  0
 27 28  1  0
 28 29  1  0
 29 30  1  0
 30 31  1  0
 31 32  1  0
 31 33  1  0
 33 34  1  0
 26 35  2  0
 35  6  1  0
 25 10  1  0
 34 28  1  0
 22 14  1  0
  1 36  1  0
  1 37  1  0
  1 38  1  0
  2 39  1  0
  2 40  1  0
  3 41  1  0
  3 42  1  0
  4 43  1  0
  4 44  1  0
  5 45  1  0
  8 46  1  0
 11 47  1  0
 13 48  1  0
 15 49  1  0
 16 50  1  0
 17 51  1  0
 22 52  1  0
 24 53  1  0
 27 54  1  0
 28 55  1  1
 29 56  1  0
 29 57  1  0
 30 58  1  0
 30 59  1  0
 31 60  1  6
 32 61  1  0
 33 62  1  0
 33 63  1  0
 34 64  1  0
 34 65  1  0
M  CHG  2  19   1  21  -1
M  END
$$$$
