@<TRIPOS>MOLECULE
*****
 65 68 0 0 0
SMALL
GASTEIGER

@<TRIPOS>ATOM
      1 C          -4.9464    4.6825   -0.3953 C.3     1  UNL1       -0.0652
      2 C          -5.5649    4.2217    0.9066 C.3     1  UNL1       -0.0545
      3 C          -6.1055    2.7943    0.7518 C.3     1  UNL1       -0.0376
      4 C          -4.9105    1.8988    0.4320 C.3     1  UNL1        0.0118
      5 N          -4.0240    1.9648    1.5564 N.pl3   1  UNL1       -0.3134
      6 C          -2.7472    1.2684    1.5273 C.ar    1  UNL1        0.2169
      7 N          -1.9510    1.2543    2.5892 N.ar    1  UNL1       -0.2222
      8 C          -0.7644    0.6404    2.6322 C.ar    1  UNL1        0.0436
      9 C          -0.3680   -0.0248    1.4493 C.ar    1  UNL1        0.0584
     10 C           1.0836   -0.2981    1.4270 C.ar    1  UNL1        0.0807
     11 C           1.7745   -0.2679    0.2499 C.ar    1  UNL1        0.0046
     12 C           3.1612   -0.3233    0.2550 C.ar    1  UNL1        0.1267
     13 N           3.7721   -0.2651   -1.0206 N.pl3   1  UNL1       -0.2992
     14 C           4.8789    0.6082   -1.1897 C.ar    1  UNL1        0.0388
     15 C           4.8461    1.4892   -2.2718 C.ar    1  UNL1       -0.0401
     16 C           5.8841    2.3548   -2.4878 C.ar    1  UNL1       -0.0536
     17 C           6.9565    2.3493   -1.6340 C.ar    1  UNL1        0.0157
     18 C           6.9906    1.4649   -0.5482 C.ar    1  UNL1        0.2749
     19 N           8.1128    1.4877    0.2976 N.pl3   1  UNL1        0.0797
     20 O           8.1603    0.6896    1.2530 O.2     1  UNL1        0.0414
     21 O           9.1563    2.3438    0.1104 O.co2   1  UNL1       -0.5760
     22 C           5.9422    0.5971   -0.3363 C.ar    1  UNL1        0.0367
     23 N           3.8121   -0.4045    1.4088 N.ar    1  UNL1       -0.2206
     24 C           3.1037   -0.4320    2.5806 C.ar    1  UNL1        0.1187
     25 N           1.7788   -0.3777    2.5578 N.ar    1  UNL1       -0.2351
     26 C          -1.1686   -0.0317    0.3671 C.ar    1  UNL1        0.1333
     27 N          -1.0529   -0.9555   -0.6921 N.pl3   1  UNL1       -0.3256
     28 C          -0.4562   -2.2307   -0.6408 C.3     1  UNL1        0.0221
     29 C          -1.0794   -3.0696    0.4925 C.3     1  UNL1       -0.0322
     30 C          -2.2621   -3.8606   -0.0243 C.3     1  UNL1       -0.0252
     31 C          -1.6961   -5.0013   -0.8938 C.3     1  UNL1        0.0554
     32 O          -1.2459   -5.9894   -0.0326 O.3     1  UNL1       -0.3918
     33 C          -0.5148   -4.4527   -1.6744 C.3     1  UNL1       -0.0252
     34 C          -0.8229   -3.0045   -1.9568 C.3     1  UNL1       -0.0322
     35 N          -2.3893    0.6438    0.4181 N.ar    1  UNL1       -0.1991
     36 H          -5.3042    3.9817   -1.1906 H       1  UNL1        0.0230
     37 H          -5.3100    5.6931   -0.6910 H       1  UNL1        0.0230
     38 H          -3.8443    4.7472   -0.3802 H       1  UNL1        0.0230
     39 H          -6.3688    4.8582    1.2856 H       1  UNL1        0.0263
     40 H          -4.7384    4.2702    1.6560 H       1  UNL1        0.0263
     41 H          -6.8629    2.7602   -0.0522 H       1  UNL1        0.0280
     42 H          -6.5333    2.4223    1.6874 H       1  UNL1        0.0280
     43 H          -4.4530    2.2539   -0.5082 H       1  UNL1        0.0462
     44 H          -5.2446    0.8485    0.2651 H       1  UNL1        0.0462
     45 H          -4.2445    2.4888    2.4159 H       1  UNL1        0.1489
     46 H          -0.1399    0.6479    3.5116 H       1  UNL1        0.0838
     47 H           1.2577   -0.1447   -0.7269 H       1  UNL1        0.0673
     48 H           3.4275   -0.8462   -1.8197 H       1  UNL1        0.1536
     49 H           3.9940    1.4661   -2.9193 H       1  UNL1        0.0636
     50 H           5.8690    3.0473   -3.3235 H       1  UNL1        0.0620
     51 H           7.7916    3.0396   -1.7883 H       1  UNL1        0.0685
     52 H           6.0141   -0.0697    0.5155 H       1  UNL1        0.0704
     53 H           3.6794   -0.4992    3.4846 H       1  UNL1        0.1048
     54 H          -1.4743   -0.5865   -1.6219 H       1  UNL1        0.1478
     55 H           0.5983   -2.3392   -0.5887 H       1  UNL1        0.0498
     56 H          -1.4366   -2.4028    1.3234 H       1  UNL1        0.0284
     57 H          -0.3554   -3.7744    0.9076 H       1  UNL1        0.0284
     58 H          -2.7447   -4.3018    0.8908 H       1  UNL1        0.0291
     59 H          -2.9546   -3.2253   -0.5752 H       1  UNL1        0.0291
     60 H          -2.5088   -5.3447   -1.5588 H       1  UNL1        0.0593
     61 H          -1.4974   -5.7933    0.9208 H       1  UNL1        0.2098
     62 H          -0.3235   -5.0314   -2.5940 H       1  UNL1        0.0291
     63 H           0.3679   -4.4710   -1.0061 H       1  UNL1        0.0291
     64 H          -0.1371   -2.6411   -2.7509 H       1  UNL1        0.0284
     65 H          -1.8669   -2.8179   -2.2326 H       1  UNL1        0.0284
@<TRIPOS>UNITY_ATOM_ATTR
19 1
charge 1
21 1
charge -1
@<TRIPOS>BOND
     1     1     2    1
     2     2     3    1
     3     3     4    1
     4     4     5    1
     5     5     6    1
     6     6     7   ar
     7     7     8   ar
     8     8     9   ar
     9     9    10    1
    10    10    11   ar
    11    11    12   ar
    12    12    13    1
    13    13    14    1
    14    14    15   ar
    15    15    16   ar
    16    16    17   ar
    17    17    18   ar
    18    18    19    1
    19    19    20    2
    20    19    21    1
    21    18    22   ar
    22    12    23   ar
    23    23    24   ar
    24    24    25   ar
    25     9    26   ar
    26    26    27    1
    27    27    28    1
    28    28    29    1
    29    29    30    1
    30    30    31    1
    31    31    32    1
    32    31    33    1
    33    33    34    1
    34    26    35   ar
    35    35     6   ar
    36    25    10   ar
    37    34    28    1
    38    22    14   ar
    39     1    36    1
    40     1    37    1
    41     1    38    1
    42     2    39    1
    43     2    40    1
    44     3    41    1
    45     3    42    1
    46     4    43    1
    47     4    44    1
    48     5    45    1
    49     8    46    1
    50    11    47    1
    51    13    48    1
    52    15    49    1
    53    16    50    1
    54    17    51    1
    55    22    52    1
    56    24    53    1
    57    27    54    1
    58    28    55    1
    59    29    56    1
    60    29    57    1
    61    30    58    1
    62    30    59    1
    63    31    60    1
    64    32    61    1
    65    33    62    1
    66    33    63    1
    67    34    64    1
    68    34    65    1
