
     RDKit          3D

 41 45  0  0  0  0  0  0  0  0999 V2000
   -5.0713    2.8849    0.0202 C   0  0  0  0  0  0  0  0  0  0  0  0
   -4.2956    1.6272    0.3184 C   0  0  2  0  0  0  0  0  0  0  0  0
   -2.9217    1.6483   -0.3324 C   0  0  0  0  0  0  0  0  0  0  0  0
   -2.0140    0.7531    0.3537 N   0  0  0  0  0  0  0  0  0  0  0  0
   -1.9253   -0.7017    0.2172 C   0  0  0  0  0  0  0  0  0  0  0  0
   -3.1490   -1.3955    0.2247 C   0  0  0  0  0  0  0  0  0  0  0  0
   -2.6848   -3.1068    0.2442 S   0  0  0  0  0  0  0  0  0  0  0  0
   -0.9275   -2.7962    0.2355 C   0  0  0  0  0  0  0  0  0  0  0  0
    0.0953   -3.7292    0.2445 C   0  0  0  0  0  0  0  0  0  0  0  0
    1.3845   -3.2920    0.2284 C   0  0  0  0  0  0  0  0  0  0  0  0
    1.5638   -1.9261    0.1997 C   0  0  0  0  0  0  0  0  0  0  0  0
    2.8584   -1.5503    0.1354 N   0  0  0  0  0  0  0  0  0  0  0  0
    3.2256   -0.2636    0.0545 C   0  0  0  0  0  0  0  0  0  0  0  0
    4.6383    0.1155   -0.0121 C   0  0  0  0  0  0  0  0  0  0  0  0
    5.0263    1.4242   -0.0949 C   0  0  0  0  0  0  0  0  0  0  0  0
    6.3366    1.7627   -0.1559 N   0  0  0  0  0  0  0  0  0  0  0  0
    7.2707    0.8274   -0.1366 C   0  0  0  0  0  0  0  0  0  0  0  0
    6.9189   -0.4666   -0.0558 N   0  0  0  0  0  0  0  0  0  0  0  0
    5.6356   -0.8495    0.0068 C   0  0  0  0  0  0  0  0  0  0  0  0
    2.2622    0.6802    0.0358 C   0  0  0  0  0  0  0  0  0  0  0  0
    0.9047    0.3202    0.1024 C   0  0  0  0  0  0  0  0  0  0  0  0
    0.5333   -0.9911    0.1905 C   0  0  0  0  0  0  0  0  0  0  0  0
   -0.8133   -1.4516    0.2170 C   0  0  0  0  0  0  0  0  0  0  0  0
   -4.5412   -0.9110    0.1834 C   0  0  0  0  0  0  0  0  0  0  0  0
   -5.3885   -1.8065    0.3964 O   0  0  0  0  0  0  0  0  0  0  0  0
   -4.9970    0.4362   -0.0690 N   0  0  0  0  0  0  0  0  0  0  0  0
   -4.3170    3.6964   -0.1584 H   0  0  0  0  0  0  0  0  0  0  0  0
   -5.6387    3.2318    0.9308 H   0  0  0  0  0  0  0  0  0  0  0  0
   -5.7788    2.7908   -0.8040 H   0  0  0  0  0  0  0  0  0  0  0  0
   -4.0957    1.6563    1.4212 H   0  0  0  0  0  0  0  0  0  0  0  0
   -2.5470    2.6854   -0.2179 H   0  0  0  0  0  0  0  0  0  0  0  0
   -2.9682    1.4631   -1.4239 H   0  0  0  0  0  0  0  0  0  0  0  0
   -1.3540    1.1367    1.0705 H   0  0  0  0  0  0  0  0  0  0  0  0
   -0.1849   -4.7679    0.2640 H   0  0  0  0  0  0  0  0  0  0  0  0
    2.2260   -3.9834    0.2388 H   0  0  0  0  0  0  0  0  0  0  0  0
    4.3467    2.2614   -0.1173 H   0  0  0  0  0  0  0  0  0  0  0  0
    8.3135    1.1391   -0.1874 H   0  0  0  0  0  0  0  0  0  0  0  0
    5.3237   -1.8783    0.0720 H   0  0  0  0  0  0  0  0  0  0  0  0
    2.4578    1.7620   -0.0305 H   0  0  0  0  0  0  0  0  0  0  0  0
    0.1850    1.0883    0.0223 H   0  0  0  0  0  0  0  0  0  0  0  0
   -5.8934    0.4760   -0.5625 H   0  0  0  0  0  0  0  0  0  0  0  0
  1  2  1  0
  2  3  1  0
  3  4  1  0
  4  5  1  0
  5  6  2  0
  6  7  1  0
  7  8  1  0
  8  9  2  0
  9 10  1  0
 10 11  2  0
 11 12  1  0
 12 13  2  0
 13 14  1  0
 14 15  2  0
 15 16  1  0
 16 17  2  0
 17 18  1  0
 18 19  2  0
 13 20  1  0
 20 21  2  0
 21 22  1  0
 22 23  2  0
  6 24  1  0
 24 25  2  0
 24 26  1  0
 26  2  1  0
 23  5  1  0
 23  8  1  0
 22 11  1  0
 19 14  1  0
  1 27  1  0
  1 28  1  0
  1 29  1  0
  2 30  1  1
  3 31  1  0
  3 32  1  0
  4 33  1  0
  9 34  1  0
 10 35  1  0
 15 36  1  0
 17 37  1  0
 19 38  1  0
 20 39  1  0
 21 40  1  0
 26 41  1  0
M  END
$$$$
