@<TRIPOS>MOLECULE
*****
 41 45 0 0 0
SMALL
GASTEIGER

@<TRIPOS>ATOM
      1 C          -5.0713    2.8849    0.0202 C.3     1  UNL1       -0.0452
      2 C          -4.2956    1.6272    0.3184 C.3     1  UNL1        0.0360
      3 C          -2.9217    1.6483   -0.3324 C.3     1  UNL1        0.0273
      4 N          -2.0140    0.7531    0.3537 N.pl3   1  UNL1       -0.3406
      5 C          -1.9253   -0.7017    0.2172 C.ar    1  UNL1        0.0551
      6 C          -3.1490   -1.3955    0.2247 C.ar    1  UNL1        0.0958
      7 S          -2.6848   -3.1068    0.2442 S.2     1  UNL1       -0.0818
      8 C          -0.9275   -2.7962    0.2355 C.ar    1  UNL1        0.0226
      9 C           0.0953   -3.7292    0.2445 C.ar    1  UNL1       -0.0453
     10 C           1.3845   -3.2920    0.2284 C.ar    1  UNL1       -0.0346
     11 C           1.5638   -1.9261    0.1997 C.ar    1  UNL1        0.0724
     12 N           2.8584   -1.5503    0.1354 N.ar    1  UNL1       -0.2466
     13 C           3.2256   -0.2636    0.0545 C.ar    1  UNL1        0.0746
     14 C           4.6383    0.1155   -0.0121 C.ar    1  UNL1        0.0365
     15 C           5.0263    1.4242   -0.0949 C.ar    1  UNL1        0.0399
     16 N           6.3366    1.7627   -0.1559 N.ar    1  UNL1       -0.2431
     17 C           7.2707    0.8274   -0.1366 C.ar    1  UNL1        0.1159
     18 N           6.9189   -0.4666   -0.0558 N.ar    1  UNL1       -0.2431
     19 C           5.6356   -0.8495    0.0068 C.ar    1  UNL1        0.0399
     20 C           2.2622    0.6802    0.0358 C.ar    1  UNL1       -0.0350
     21 C           0.9047    0.3202    0.1024 C.ar    1  UNL1       -0.0499
     22 C           0.5333   -0.9911    0.1905 C.ar    1  UNL1        0.0104
     23 C          -0.8133   -1.4516    0.2170 C.ar    1  UNL1        0.0200
     24 C          -4.5412   -0.9110    0.1834 C.2     1  UNL1        0.2528
     25 O          -5.3885   -1.8065    0.3964 O.2     1  UNL1       -0.2696
     26 N          -4.9970    0.4362   -0.0690 N.am    1  UNL1       -0.3068
     27 H          -4.3170    3.6964   -0.1584 H       1  UNL1        0.0248
     28 H          -5.6387    3.2318    0.9308 H       1  UNL1        0.0248
     29 H          -5.7788    2.7908   -0.8040 H       1  UNL1        0.0248
     30 H          -4.0957    1.6563    1.4212 H       1  UNL1        0.0511
     31 H          -2.5470    2.6854   -0.2179 H       1  UNL1        0.0479
     32 H          -2.9682    1.4631   -1.4239 H       1  UNL1        0.0479
     33 H          -1.3540    1.1367    1.0705 H       1  UNL1        0.1462
     34 H          -0.1849   -4.7679    0.2640 H       1  UNL1        0.0629
     35 H           2.2260   -3.9834    0.2388 H       1  UNL1        0.0639
     36 H           4.3467    2.2614   -0.1173 H       1  UNL1        0.0837
     37 H           8.3135    1.1391   -0.1874 H       1  UNL1        0.1047
     38 H           5.3237   -1.8783    0.0720 H       1  UNL1        0.0837
     39 H           2.4578    1.7620   -0.0305 H       1  UNL1        0.0639
     40 H           0.1850    1.0883    0.0223 H       1  UNL1        0.0625
     41 H          -5.8934    0.4760   -0.5625 H       1  UNL1        0.1494
@<TRIPOS>BOND
     1     1     2    1
     2     2     3    1
     3     3     4    1
     4     4     5    1
     5     5     6   ar
     6     6     7   ar
     7     7     8   ar
     8     8     9   ar
     9     9    10   ar
    10    10    11   ar
    11    11    12   ar
    12    12    13   ar
    13    13    14    1
    14    14    15   ar
    15    15    16   ar
    16    16    17   ar
    17    17    18   ar
    18    18    19   ar
    19    13    20   ar
    20    20    21   ar
    21    21    22   ar
    22    22    23   ar
    23     6    24    1
    24    24    25    2
    25    24    26   am
    26    26     2    1
    27    23     5   ar
    28    23     8   ar
    29    22    11   ar
    30    19    14   ar
    31     1    27    1
    32     1    28    1
    33     1    29    1
    34     2    30    1
    35     3    31    1
    36     3    32    1
    37     4    33    1
    38     9    34    1
    39    10    35    1
    40    15    36    1
    41    17    37    1
    42    19    38    1
    43    20    39    1
    44    21    40    1
    45    26    41    1
