@<TRIPOS>MOLECULE
*****
 70 72 0 0 0
SMALL
GASTEIGER

@<TRIPOS>ATOM
      1 C          -4.4548    1.1602    2.9178 C.3     1  UNL1       -0.0554
      2 C          -4.5494    1.1402    1.3591 C.3     1  UNL1        0.0182
      3 C          -3.2860    0.5357    0.8747 C.3     1  UNL1       -0.0183
      4 C          -3.0000    0.4025   -0.5441 C.3     1  UNL1        0.0821
      5 C          -3.0101    1.7449   -1.2835 C.3     1  UNL1       -0.0396
      6 C          -1.6064   -0.2287   -0.7136 C.3     1  UNL1        0.1053
      7 S          -0.2605    0.6450   -0.0884 S.O2    1  UNL1        0.0339
      8 O          -0.3875    0.8273    1.4091 O.2     1  UNL1       -0.1580
      9 O          -0.1115    1.9670   -0.7874 O.2     1  UNL1       -0.1580
     10 N           1.1958   -0.2366   -0.4196 N.3     1  UNL1       -0.1810
     11 C           1.1072   -1.4984    0.2605 C.3     1  UNL1        0.0204
     12 C           2.3063   -2.3790    0.0115 C.3     1  UNL1       -0.0357
     13 C           3.1339   -1.9899   -1.1494 C.3     1  UNL1       -0.0383
     14 C           4.3650   -1.2123   -0.8646 C.3     1  UNL1       -0.0461
     15 C           4.2510    0.0992   -0.1962 C.3     1  UNL1       -0.0269
     16 C           5.5758    0.7198    0.0697 C.ar    1  UNL1       -0.0356
     17 C           6.2023    1.4958   -0.9179 C.ar    1  UNL1       -0.0553
     18 C           7.4545    2.0184   -0.7112 C.ar    1  UNL1       -0.0262
     19 C           8.1372    1.8094    0.4498 C.ar    1  UNL1        0.1240
     20 F           9.3900    2.3320    0.6496 F       1  UNL1       -0.2055
     21 C           7.5372    1.0523    1.4304 C.ar    1  UNL1       -0.0146
     22 C           6.2446    0.5017    1.2415 C.ar    1  UNL1        0.0607
     23 C           5.6350   -0.2389    2.3410 C.3     1  UNL1        0.4178
     24 F           6.5518   -0.2610    3.4147 F       1  UNL1       -0.1659
     25 F           4.5220    0.4001    2.8671 F       1  UNL1       -0.1659
     26 F           5.3598   -1.5644    2.1098 F       1  UNL1       -0.1659
     27 C           2.2836   -1.4348   -2.2594 C.3     1  UNL1       -0.0357
     28 C           1.3992   -0.3280   -1.8137 C.3     1  UNL1        0.0204
     29 N          -3.8618   -0.4825   -1.2740 N.am    1  UNL1       -0.1788
     30 O          -4.7649   -1.2962   -0.7305 O.3     1  UNL1       -0.2921
     31 C          -3.7511   -0.5702   -2.7160 C.2     1  UNL1        0.2256
     32 O          -4.4589   -1.3131   -3.4062 O.2     1  UNL1       -0.2772
     33 C          -5.8182    0.4443    1.1073 C.ar    1  UNL1        0.1320
     34 N          -6.0638   -0.7129    1.8132 N.ar    1  UNL1       -0.2372
     35 C          -7.2090   -1.3907    1.6581 C.ar    1  UNL1        0.0663
     36 C          -8.1889   -0.9664    0.7918 C.ar    1  UNL1        0.1594
     37 F          -9.3560   -1.6097    0.6001 F       1  UNL1       -0.2023
     38 C          -7.9162    0.2141    0.0837 C.ar    1  UNL1        0.0663
     39 N          -6.7653    0.8276    0.2892 N.ar    1  UNL1       -0.2372
     40 H          -4.5797    0.1324    3.3148 H       1  UNL1        0.0236
     41 H          -3.4713    1.5723    3.1760 H       1  UNL1        0.0236
     42 H          -5.2742    1.7749    3.3341 H       1  UNL1        0.0236
     43 H          -4.6752    2.2012    1.0460 H       1  UNL1        0.0377
     44 H          -2.4445    1.1407    1.3730 H       1  UNL1        0.0294
     45 H          -3.1835   -0.4559    1.4221 H       1  UNL1        0.0294
     46 H          -3.9761    1.8376   -1.8271 H       1  UNL1        0.0252
     47 H          -2.2397    1.6618   -2.0753 H       1  UNL1        0.0252
     48 H          -2.7900    2.5971   -0.6426 H       1  UNL1        0.0252
     49 H          -1.5442   -0.4739   -1.7966 H       1  UNL1        0.0538
     50 H          -1.7254   -1.2390   -0.2159 H       1  UNL1        0.0538
     51 H           1.0373   -1.2879    1.3468 H       1  UNL1        0.0444
     52 H           0.1489   -1.9770   -0.0260 H       1  UNL1        0.0444
     53 H           2.8997   -2.4729    0.9678 H       1  UNL1        0.0281
     54 H           1.9087   -3.4029   -0.1492 H       1  UNL1        0.0281
     55 H           3.5367   -2.9628   -1.6141 H       1  UNL1        0.0302
     56 H           5.1731   -1.8085   -0.4163 H       1  UNL1        0.0271
     57 H           4.8020   -1.0122   -1.9226 H       1  UNL1        0.0271
     58 H           3.7323    0.8167   -0.8678 H       1  UNL1        0.0313
     59 H           3.6377    0.0801    0.7378 H       1  UNL1        0.0313
     60 H           5.6414    1.6504   -1.8319 H       1  UNL1        0.0621
     61 H           7.9207    2.6132   -1.4859 H       1  UNL1        0.0646
     62 H           8.0661    0.8809    2.3571 H       1  UNL1        0.0652
     63 H           1.7370   -2.2496   -2.7872 H       1  UNL1        0.0281
     64 H           3.0237   -1.0428   -3.0187 H       1  UNL1        0.0281
     65 H           0.4264   -0.4614   -2.3870 H       1  UNL1        0.0444
     66 H           1.7897    0.6323   -2.2203 H       1  UNL1        0.0444
     67 H          -4.3381   -1.9030   -0.0818 H       1  UNL1        0.2417
     68 H          -3.0178    0.0415   -3.2031 H       1  UNL1        0.1274
     69 H          -7.3902   -2.3109    2.2256 H       1  UNL1        0.0860
     70 H          -8.6632    0.5733   -0.6053 H       1  UNL1        0.0860
@<TRIPOS>BOND
     1     1     2    1
     2     2     3    1
     3     3     4    1
     4     4     5    1
     5     4     6    1
     6     6     7    1
     7     7     8    2
     8     7     9    2
     9     7    10    1
    10    10    11    1
    11    11    12    1
    12    12    13    1
    13    13    14    1
    14    14    15    1
    15    15    16    1
    16    16    17   ar
    17    17    18   ar
    18    18    19   ar
    19    19    20    1
    20    19    21   ar
    21    21    22   ar
    22    22    23    1
    23    23    24    1
    24    23    25    1
    25    23    26    1
    26    13    27    1
    27    27    28    1
    28     4    29    1
    29    29    30    1
    30    29    31   am
    31    31    32    2
    32     2    33    1
    33    33    34   ar
    34    34    35   ar
    35    35    36   ar
    36    36    37    1
    37    36    38   ar
    38    38    39   ar
    39    28    10    1
    40    39    33   ar
    41    22    16   ar
    42     1    40    1
    43     1    41    1
    44     1    42    1
    45     2    43    1
    46     3    44    1
    47     3    45    1
    48     5    46    1
    49     5    47    1
    50     5    48    1
    51     6    49    1
    52     6    50    1
    53    11    51    1
    54    11    52    1
    55    12    53    1
    56    12    54    1
    57    13    55    1
    58    14    56    1
    59    14    57    1
    60    15    58    1
    61    15    59    1
    62    17    60    1
    63    18    61    1
    64    21    62    1
    65    27    63    1
    66    27    64    1
    67    28    65    1
    68    28    66    1
    69    30    67    1
    70    31    68    1
    71    35    69    1
    72    38    70    1
