@<TRIPOS>MOLECULE
*****
 44 48 0 0 0
SMALL
GASTEIGER

@<TRIPOS>ATOM
      1 C           6.3781   -0.8406   -0.0810 C.3     1  UNL1        0.0790
      2 O           5.3756    0.1349   -0.0419 O.3     1  UNL1       -0.4914
      3 C           4.0426   -0.2045   -0.0655 C.ar    1  UNL1        0.1623
      4 C           3.6257   -1.5110   -0.1284 C.ar    1  UNL1       -0.0157
      5 C           2.2679   -1.8734   -0.1532 C.ar    1  UNL1       -0.0494
      6 C           1.3518   -0.8517   -0.1114 C.ar    1  UNL1        0.0050
      7 C           1.7422    0.4565   -0.0486 C.ar    1  UNL1        0.0915
      8 C           0.8133    1.4382   -0.0101 C.ar    1  UNL1        0.1829
      9 N          -0.5546    1.2163   -0.0282 N.ar    1  UNL1       -0.1986
     10 C          -1.4051    2.3597   -0.0926 C.3     1  UNL1        0.1410
     11 C          -0.9359   -0.0620   -0.0823 C.ar    1  UNL1        0.2231
     12 C          -2.2957   -0.3807   -0.1086 C.ar    1  UNL1        0.0576
     13 C          -3.2419    0.5884   -0.0177 C.ar    1  UNL1       -0.0021
     14 C          -4.6005    0.2166   -0.0199 C.ar    1  UNL1        0.1670
     15 C          -4.9890   -1.0830   -0.1069 C.ar    1  UNL1        0.1668
     16 C          -4.0270   -2.0554   -0.1937 C.ar    1  UNL1       -0.0082
     17 C          -2.6969   -1.7272   -0.1951 C.ar    1  UNL1       -0.0079
     18 C          -1.7521   -2.7195   -0.2433 C.ar    1  UNL1       -0.0529
     19 C          -0.4110   -2.4317   -0.2091 C.ar    1  UNL1       -0.0471
     20 C           0.0066   -1.1160   -0.1280 C.ar    1  UNL1        0.0548
     21 O          -6.3943   -1.1467   -0.0873 O.3     1  UNL1       -0.4526
     22 C          -6.8683    0.1763   -0.1364 C.3     1  UNL1        0.2332
     23 O          -5.7302    1.0102    0.0579 O.3     1  UNL1       -0.4526
     24 C           3.0689    0.8015   -0.0247 C.ar    1  UNL1        0.1748
     25 O           3.4061    2.1422    0.0393 O.3     1  UNL1       -0.4907
     26 C           3.6085    2.9731   -1.0621 C.3     1  UNL1        0.0790
     27 H           6.3546   -1.4317   -1.0144 H       1  UNL1        0.0660
     28 H           7.3614   -0.2949   -0.0460 H       1  UNL1        0.0660
     29 H           6.2791   -1.5292    0.7987 H       1  UNL1        0.0660
     30 H           4.3609   -2.3228   -0.1616 H       1  UNL1        0.0655
     31 H           2.0211   -2.9049   -0.2016 H       1  UNL1        0.0625
     32 H           1.1206    2.4971    0.0478 H       1  UNL1        0.1384
     33 H          -1.7462    2.8171    0.8281 H       1  UNL1        0.0993
     34 H          -0.6668    3.2281   -0.3957 H       1  UNL1        0.0993
     35 H          -2.0021    2.4820   -1.0349 H       1  UNL1        0.0993
     36 H          -3.0800    1.5826    0.1159 H       1  UNL1        0.0663
     37 H          -4.2862   -3.1069   -0.2636 H       1  UNL1        0.0661
     38 H          -2.0453   -3.7553   -0.3095 H       1  UNL1        0.0624
     39 H           0.3204   -3.2075   -0.2443 H       1  UNL1        0.0626
     40 H          -7.3767    0.3650   -1.0924 H       1  UNL1        0.1166
     41 H          -7.5198    0.3321    0.7538 H       1  UNL1        0.1166
     42 H           2.7734    3.6975   -1.2134 H       1  UNL1        0.0660
     43 H           3.8406    2.4267   -2.0027 H       1  UNL1        0.0660
     44 H           4.5062    3.6144   -0.8260 H       1  UNL1        0.0660
@<TRIPOS>UNITY_ATOM_ATTR
9 1
charge 1
@<TRIPOS>BOND
     1     1     2    1
     2     2     3    1
     3     3     4   ar
     4     4     5   ar
     5     5     6   ar
     6     6     7   ar
     7     7     8   ar
     8     8     9   ar
     9     9    10    1
    10     9    11   ar
    11    11    12   ar
    12    12    13   ar
    13    13    14   ar
    14    14    15   ar
    15    15    16   ar
    16    16    17   ar
    17    17    18   ar
    18    18    19   ar
    19    19    20   ar
    20    15    21    1
    21    21    22    1
    22    22    23    1
    23     7    24   ar
    24    24    25    1
    25    25    26    1
    26    24     3   ar
    27    20     6   ar
    28    20    11   ar
    29    17    12   ar
    30    23    14    1
    31     1    27    1
    32     1    28    1
    33     1    29    1
    34     4    30    1
    35     5    31    1
    36     8    32    1
    37    10    33    1
    38    10    34    1
    39    10    35    1
    40    13    36    1
    41    16    37    1
    42    18    38    1
    43    19    39    1
    44    22    40    1
    45    22    41    1
    46    26    42    1
    47    26    43    1
    48    26    44    1
