
     RDKit          3D

 44 48  0  0  0  0  0  0  0  0999 V2000
    6.3781   -0.8406   -0.0810 C   0  0  0  0  0  0  0  0  0  0  0  0
    5.3756    0.1349   -0.0419 O   0  0  0  0  0  0  0  0  0  0  0  0
    4.0426   -0.2045   -0.0655 C   0  0  0  0  0  0  0  0  0  0  0  0
    3.6257   -1.5110   -0.1284 C   0  0  0  0  0  0  0  0  0  0  0  0
    2.2679   -1.8734   -0.1532 C   0  0  0  0  0  0  0  0  0  0  0  0
    1.3518   -0.8517   -0.1114 C   0  0  0  0  0  0  0  0  0  0  0  0
    1.7422    0.4565   -0.0486 C   0  0  0  0  0  0  0  0  0  0  0  0
    0.8133    1.4382   -0.0101 C   0  0  0  0  0  0  0  0  0  0  0  0
   -0.5546    1.2163   -0.0282 N   0  0  0  0  0  4  0  0  0  0  0  0
   -1.4051    2.3597   -0.0926 C   0  0  0  0  0  0  0  0  0  0  0  0
   -0.9359   -0.0620   -0.0823 C   0  0  0  0  0  0  0  0  0  0  0  0
   -2.2957   -0.3807   -0.1086 C   0  0  0  0  0  0  0  0  0  0  0  0
   -3.2419    0.5884   -0.0177 C   0  0  0  0  0  0  0  0  0  0  0  0
   -4.6005    0.2166   -0.0199 C   0  0  0  0  0  0  0  0  0  0  0  0
   -4.9890   -1.0830   -0.1069 C   0  0  0  0  0  0  0  0  0  0  0  0
   -4.0270   -2.0554   -0.1937 C   0  0  0  0  0  0  0  0  0  0  0  0
   -2.6969   -1.7272   -0.1951 C   0  0  0  0  0  0  0  0  0  0  0  0
   -1.7521   -2.7195   -0.2433 C   0  0  0  0  0  0  0  0  0  0  0  0
   -0.4110   -2.4317   -0.2091 C   0  0  0  0  0  0  0  0  0  0  0  0
    0.0066   -1.1160   -0.1280 C   0  0  0  0  0  0  0  0  0  0  0  0
   -6.3943   -1.1467   -0.0873 O   0  0  0  0  0  0  0  0  0  0  0  0
   -6.8683    0.1763   -0.1364 C   0  0  0  0  0  0  0  0  0  0  0  0
   -5.7302    1.0102    0.0579 O   0  0  0  0  0  0  0  0  0  0  0  0
    3.0689    0.8015   -0.0247 C   0  0  0  0  0  0  0  0  0  0  0  0
    3.4061    2.1422    0.0393 O   0  0  0  0  0  0  0  0  0  0  0  0
    3.6085    2.9731   -1.0621 C   0  0  0  0  0  0  0  0  0  0  0  0
    6.3546   -1.4317   -1.0144 H   0  0  0  0  0  0  0  0  0  0  0  0
    7.3614   -0.2949   -0.0460 H   0  0  0  0  0  0  0  0  0  0  0  0
    6.2791   -1.5292    0.7987 H   0  0  0  0  0  0  0  0  0  0  0  0
    4.3609   -2.3228   -0.1616 H   0  0  0  0  0  0  0  0  0  0  0  0
    2.0211   -2.9049   -0.2016 H   0  0  0  0  0  0  0  0  0  0  0  0
    1.1206    2.4971    0.0478 H   0  0  0  0  0  0  0  0  0  0  0  0
   -1.7462    2.8171    0.8281 H   0  0  0  0  0  0  0  0  0  0  0  0
   -0.6668    3.2281   -0.3957 H   0  0  0  0  0  0  0  0  0  0  0  0
   -2.0021    2.4820   -1.0349 H   0  0  0  0  0  0  0  0  0  0  0  0
   -3.0800    1.5826    0.1159 H   0  0  0  0  0  0  0  0  0  0  0  0
   -4.2862   -3.1069   -0.2636 H   0  0  0  0  0  0  0  0  0  0  0  0
   -2.0453   -3.7553   -0.3095 H   0  0  0  0  0  0  0  0  0  0  0  0
    0.3204   -3.2075   -0.2443 H   0  0  0  0  0  0  0  0  0  0  0  0
   -7.3767    0.3650   -1.0924 H   0  0  0  0  0  0  0  0  0  0  0  0
   -7.5198    0.3321    0.7538 H   0  0  0  0  0  0  0  0  0  0  0  0
    2.7734    3.6975   -1.2134 H   0  0  0  0  0  0  0  0  0  0  0  0
    3.8406    2.4267   -2.0027 H   0  0  0  0  0  0  0  0  0  0  0  0
    4.5062    3.6144   -0.8260 H   0  0  0  0  0  0  0  0  0  0  0  0
  1  2  1  0
  2  3  1  0
  3  4  2  0
  4  5  1  0
  5  6  2  0
  6  7  1  0
  7  8  1  0
  8  9  2  0
  9 10  1  0
  9 11  1  0
 11 12  2  0
 12 13  1  0
 13 14  2  0
 14 15  1  0
 15 16  2  0
 16 17  1  0
 17 18  2  0
 18 19  1  0
 19 20  2  0
 15 21  1  0
 21 22  1  0
 22 23  1  0
  7 24  2  0
 24 25  1  0
 25 26  1  0
 24  3  1  0
 20  6  1  0
 20 11  1  0
 17 12  1  0
 23 14  1  0
  1 27  1  0
  1 28  1  0
  1 29  1  0
  4 30  1  0
  5 31  1  0
  8 32  1  0
 10 33  1  0
 10 34  1  0
 10 35  1  0
 13 36  1  0
 16 37  1  0
 18 38  1  0
 19 39  1  0
 22 40  1  0
 22 41  1  0
 26 42  1  0
 26 43  1  0
 26 44  1  0
M  CHG  1   9   1
M  END
$$$$
