@<TRIPOS>MOLECULE
*****
 52 55 0 0 0
SMALL
GASTEIGER

@<TRIPOS>ATOM
      1 C          -6.8827   -0.4667    2.4276 C.3     1  UNL1        0.0124
      2 C          -5.7751   -1.1085    1.6727 C.2     1  UNL1        0.2128
      3 O          -5.1257   -2.0467    2.2184 O.2     1  UNL1       -0.2759
      4 N          -5.4155   -0.7101    0.3613 N.am    1  UNL1       -0.2968
      5 C          -6.0933    0.3501   -0.3385 C.3     1  UNL1        0.0204
      6 C          -5.2536    1.1693   -1.2526 C.3     1  UNL1        0.0055
      7 C          -3.7953    0.9125   -1.0562 C.ar    1  UNL1        0.0469
      8 C          -3.3296   -0.3050   -0.6077 C.ar    1  UNL1        0.0324
      9 C          -1.9409   -0.2458   -0.5318 C.ar    1  UNL1        0.1498
     10 N          -1.1084   -1.3025   -0.0925 N.pl3   1  UNL1       -0.2978
     11 C           0.2868   -1.1893   -0.1187 C.ar    1  UNL1        0.0325
     12 C           1.0907   -1.9179    0.7724 C.ar    1  UNL1       -0.0399
     13 C           2.4574   -1.8062    0.7241 C.ar    1  UNL1       -0.0522
     14 C           3.1006   -0.9933   -0.1793 C.ar    1  UNL1       -0.0148
     15 C           4.5512   -0.9198   -0.1602 C.ar    1  UNL1        0.0196
     16 C           5.3821   -1.9669    0.2039 C.ar    1  UNL1        0.0571
     17 N           6.6418   -1.5336    0.1017 N.ar    1  UNL1       -0.1790
     18 N           6.6489   -0.2775   -0.3049 N.ar    1  UNL1       -0.2687
     19 C           7.8793    0.4705   -0.5058 C.3     1  UNL1        0.0646
     20 C           8.3099    1.2046    0.7461 C.3     1  UNL1        0.0637
     21 O           7.2790    2.0857    1.0721 O.3     1  UNL1       -0.3932
     22 C           5.3904    0.1209   -0.4722 C.ar    1  UNL1        0.0333
     23 C           2.2964   -0.2882   -1.0441 C.ar    1  UNL1       -0.0522
     24 C           0.9080   -0.3766   -1.0240 C.ar    1  UNL1       -0.0399
     25 N          -1.6340    0.9888   -0.9325 N.ar    1  UNL1       -0.1557
     26 N          -2.7080    1.6876   -1.2453 N.ar    1  UNL1       -0.2692
     27 C          -2.7485    3.0793   -1.7194 C.3     1  UNL1        0.0306
     28 C          -4.3321   -1.3936   -0.3020 C.3     1  UNL1        0.0447
     29 H          -7.8368   -0.4889    1.8505 H       1  UNL1        0.0323
     30 H          -7.0704   -1.0761    3.3320 H       1  UNL1        0.0323
     31 H          -6.6256    0.5562    2.7800 H       1  UNL1        0.0323
     32 H          -6.6292    0.9579    0.4276 H       1  UNL1        0.0468
     33 H          -6.8933   -0.1737   -0.9472 H       1  UNL1        0.0468
     34 H          -5.4251    2.2620   -1.1642 H       1  UNL1        0.0343
     35 H          -5.5202    0.9329   -2.3230 H       1  UNL1        0.0343
     36 H          -1.5443   -2.1823    0.2582 H       1  UNL1        0.1536
     37 H           0.5874   -2.5500    1.4754 H       1  UNL1        0.0636
     38 H           3.0682   -2.3779    1.4222 H       1  UNL1        0.0624
     39 H           5.0230   -2.9542    0.5128 H       1  UNL1        0.0854
     40 H           8.7116   -0.2359   -0.7408 H       1  UNL1        0.0531
     41 H           7.7120    1.2214   -1.2971 H       1  UNL1        0.0531
     42 H           9.2598    1.7217    0.5060 H       1  UNL1        0.0575
     43 H           8.4448    0.4275    1.5377 H       1  UNL1        0.0575
     44 H           7.3607    2.8841    0.4814 H       1  UNL1        0.2095
     45 H           5.0862    1.0929   -0.7972 H       1  UNL1        0.0832
     46 H           2.7492    0.3600   -1.7707 H       1  UNL1        0.0624
     47 H           0.3586    0.2178   -1.7613 H       1  UNL1        0.0636
     48 H          -3.5341    3.1360   -2.4938 H       1  UNL1        0.0473
     49 H          -1.7727    3.3635   -2.1433 H       1  UNL1        0.0473
     50 H          -3.0857    3.7547   -0.8937 H       1  UNL1        0.0473
     51 H          -3.8531   -2.1598    0.3423 H       1  UNL1        0.0515
     52 H          -4.6509   -1.9108   -1.2257 H       1  UNL1        0.0515
@<TRIPOS>BOND
     1     1     2    1
     2     2     3    2
     3     2     4   am
     4     4     5    1
     5     5     6    1
     6     6     7    1
     7     7     8   ar
     8     8     9   ar
     9     9    10    1
    10    10    11    1
    11    11    12   ar
    12    12    13   ar
    13    13    14   ar
    14    14    15    1
    15    15    16   ar
    16    16    17   ar
    17    17    18   ar
    18    18    19    1
    19    19    20    1
    20    20    21    1
    21    18    22   ar
    22    14    23   ar
    23    23    24   ar
    24     9    25   ar
    25    25    26   ar
    26    26    27    1
    27     8    28    1
    28    28     4    1
    29    26     7   ar
    30    24    11   ar
    31    22    15   ar
    32     1    29    1
    33     1    30    1
    34     1    31    1
    35     5    32    1
    36     5    33    1
    37     6    34    1
    38     6    35    1
    39    10    36    1
    40    12    37    1
    41    13    38    1
    42    16    39    1
    43    19    40    1
    44    19    41    1
    45    20    42    1
    46    20    43    1
    47    21    44    1
    48    22    45    1
    49    23    46    1
    50    24    47    1
    51    27    48    1
    52    27    49    1
    53    27    50    1
    54    28    51    1
    55    28    52    1
