
     RDKit          3D

 80 84  0  0  0  0  0  0  0  0999 V2000
    5.3510   -0.9118    1.8421 C   0  0  0  0  0  0  0  0  0  0  0  0
    4.9341   -0.1403    0.5651 C   0  0  0  0  0  0  0  0  0  0  0  0
    5.6265   -0.8495   -0.5600 C   0  0  0  0  0  0  0  0  0  0  0  0
    5.4553    1.2605    0.7792 C   0  0  1  0  0  0  0  0  0  0  0  0
    6.6554    1.3401    0.0293 O   0  0  0  0  0  0  0  0  0  0  0  0
    4.5771    2.3537    0.3420 C   0  0  0  0  0  0  0  0  0  0  0  0
    3.0979    2.1252    0.5334 C   0  0  0  0  0  0  0  0  0  0  0  0
    2.7380    0.8290   -0.2464 C   0  0  1  0  0  0  0  0  0  0  0  0
    3.2488    1.1170   -1.5979 C   0  0  0  0  0  0  0  0  0  0  0  0
    3.4435   -0.2095    0.5573 C   0  0  1  0  0  0  0  0  0  0  0  0
    2.9731   -1.6198    0.3714 C   0  0  0  0  0  0  0  0  0  0  0  0
    1.4770   -1.6963    0.5511 C   0  0  0  0  0  0  0  0  0  0  0  0
    0.7377   -0.7291   -0.3786 C   0  0  2  0  0  0  0  0  0  0  0  0
    0.9766   -1.2323   -1.7619 C   0  0  0  0  0  0  0  0  0  0  0  0
    1.2703    0.6385   -0.1094 C   0  0  2  0  0  0  0  0  0  0  0  0
    0.4439    1.6008   -0.8394 C   0  0  0  0  0  0  0  0  0  0  0  0
    0.8782    2.6362   -1.4110 O   0  0  0  0  0  0  0  0  0  0  0  0
   -0.9941    1.3632   -0.9243 C   0  0  0  0  0  0  0  0  0  0  0  0
   -1.5574    0.2370   -0.5385 C   0  0  0  0  0  0  0  0  0  0  0  0
   -3.0533    0.1095   -0.6756 C   0  0  2  0  0  0  0  0  0  0  0  0
   -3.6779    1.2674    0.0451 C   0  0  0  0  0  0  0  0  0  0  0  0
   -5.1616    1.1798    0.2052 C   0  0  1  0  0  0  0  0  0  0  0  0
   -5.4975    1.6639    1.6195 C   0  0  0  0  0  0  0  0  0  0  0  0
   -5.8976    2.0895   -0.7185 C   0  0  0  0  0  0  0  0  0  0  0  0
   -6.7131    1.6346   -1.5570 O   0  0  0  0  0  0  0  0  0  0  0  0
   -5.7009    3.4683   -0.6768 O   0  0  0  0  0  0  0  0  0  0  0  0
   -5.7249   -0.1959    0.0713 C   0  0  0  0  0  0  0  0  0  0  0  0
   -4.7162   -1.1525    0.6712 C   0  0  0  0  0  0  0  0  0  0  0  0
   -3.5888   -1.2209   -0.3771 C   0  0  1  0  0  0  0  0  0  0  0  0
   -4.2997   -1.8032   -1.6161 C   0  0  0  0  0  0  0  0  0  0  0  0
   -2.6660   -2.2767    0.1094 C   0  0  0  0  0  0  0  0  0  0  0  0
   -1.3349   -2.1136   -0.5845 C   0  0  0  0  0  0  0  0  0  0  0  0
   -0.7112   -0.8333   -0.0030 C   0  0  1  0  0  0  0  0  0  0  0  0
   -0.9269   -0.8762    1.4984 C   0  0  0  0  0  0  0  0  0  0  0  0
    5.4118   -2.0001    1.6044 H   0  0  0  0  0  0  0  0  0  0  0  0
    4.6572   -0.6805    2.6603 H   0  0  0  0  0  0  0  0  0  0  0  0
    6.3555   -0.5875    2.1294 H   0  0  0  0  0  0  0  0  0  0  0  0
    6.3035   -1.6896   -0.2165 H   0  0  0  0  0  0  0  0  0  0  0  0
    6.3482   -0.1767   -1.1135 H   0  0  0  0  0  0  0  0  0  0  0  0
    4.9912   -1.2983   -1.3211 H   0  0  0  0  0  0  0  0  0  0  0  0
    5.7806    1.4555    1.8295 H   0  0  0  0  0  0  0  0  0  0  0  0
    7.3656    0.8142    0.5137 H   0  0  0  0  0  0  0  0  0  0  0  0
    4.8069    3.2813    0.9499 H   0  0  0  0  0  0  0  0  0  0  0  0
    4.8212    2.6765   -0.7069 H   0  0  0  0  0  0  0  0  0  0  0  0
    2.9376    1.9659    1.6194 H   0  0  0  0  0  0  0  0  0  0  0  0
    2.5716    2.9911    0.1494 H   0  0  0  0  0  0  0  0  0  0  0  0
    3.1165    2.2140   -1.8598 H   0  0  0  0  0  0  0  0  0  0  0  0
    4.3215    0.9598   -1.6827 H   0  0  0  0  0  0  0  0  0  0  0  0
    2.7602    0.6015   -2.4407 H   0  0  0  0  0  0  0  0  0  0  0  0
    3.1395    0.0015    1.6381 H   0  0  0  0  0  0  0  0  0  0  0  0
    3.3880   -2.1999    1.2557 H   0  0  0  0  0  0  0  0  0  0  0  0
    3.3539   -2.1550   -0.4928 H   0  0  0  0  0  0  0  0  0  0  0  0
    1.2564   -1.5254    1.6024 H   0  0  0  0  0  0  0  0  0  0  0  0
    1.1793   -2.7354    0.2696 H   0  0  0  0  0  0  0  0  0  0  0  0
    0.3856   -2.1654   -1.8994 H   0  0  0  0  0  0  0  0  0  0  0  0
    0.6546   -0.5420   -2.5642 H   0  0  0  0  0  0  0  0  0  0  0  0
    2.0303   -1.6077   -1.9286 H   0  0  0  0  0  0  0  0  0  0  0  0
    1.0671    0.8450    0.9871 H   0  0  0  0  0  0  0  0  0  0  0  0
   -1.6268    2.1745   -1.3340 H   0  0  0  0  0  0  0  0  0  0  0  0
   -3.2162    0.3340   -1.7753 H   0  0  0  0  0  0  0  0  0  0  0  0
   -3.4994    2.2089   -0.5572 H   0  0  0  0  0  0  0  0  0  0  0  0
   -3.1501    1.4004    1.0110 H   0  0  0  0  0  0  0  0  0  0  0  0
   -5.3161    2.7464    1.7203 H   0  0  0  0  0  0  0  0  0  0  0  0
   -6.5851    1.4106    1.7614 H   0  0  0  0  0  0  0  0  0  0  0  0
   -4.9483    1.0479    2.3542 H   0  0  0  0  0  0  0  0  0  0  0  0
   -6.0241    4.0247   -1.4666 H   0  0  0  0  0  0  0  0  0  0  0  0
   -6.0202   -0.4653   -0.9493 H   0  0  0  0  0  0  0  0  0  0  0  0
   -6.6488   -0.2779    0.6977 H   0  0  0  0  0  0  0  0  0  0  0  0
   -4.3364   -0.7490    1.6072 H   0  0  0  0  0  0  0  0  0  0  0  0
   -5.1220   -2.1812    0.7358 H   0  0  0  0  0  0  0  0  0  0  0  0
   -4.5669   -0.9774   -2.2863 H   0  0  0  0  0  0  0  0  0  0  0  0
   -5.1322   -2.4581   -1.3288 H   0  0  0  0  0  0  0  0  0  0  0  0
   -3.5732   -2.4442   -2.1900 H   0  0  0  0  0  0  0  0  0  0  0  0
   -2.5935   -2.3713    1.2069 H   0  0  0  0  0  0  0  0  0  0  0  0
   -3.0335   -3.2987   -0.2143 H   0  0  0  0  0  0  0  0  0  0  0  0
   -1.6115   -1.9462   -1.6692 H   0  0  0  0  0  0  0  0  0  0  0  0
   -0.7255   -2.9941   -0.4131 H   0  0  0  0  0  0  0  0  0  0  0  0
   -1.9532   -0.5283    1.7624 H   0  0  0  0  0  0  0  0  0  0  0  0
   -0.7342   -1.9171    1.8940 H   0  0  0  0  0  0  0  0  0  0  0  0
   -0.2491   -0.2349    2.0742 H   0  0  0  0  0  0  0  0  0  0  0  0
  1  2  1  0
  2  3  1  0
  2  4  1  0
  4  5  1  0
  4  6  1  0
  6  7  1  0
  7  8  1  0
  8  9  1  6
  8 10  1  0
 10 11  1  0
 11 12  1  0
 12 13  1  0
 13 14  1  6
 13 15  1  0
 15 16  1  0
 16 17  2  0
 16 18  1  0
 18 19  2  0
 19 20  1  0
 20 21  1  0
 21 22  1  0
 22 23  1  1
 22 24  1  0
 24 25  2  0
 24 26  1  0
 22 27  1  0
 27 28  1  0
 28 29  1  0
 29 30  1  6
 29 31  1  0
 31 32  1  0
 32 33  1  0
 33 34  1  1
 10  2  1  0
 33 13  1  0
 15  8  1  0
 33 19  1  0
 29 20  1  0
  1 35  1  0
  1 36  1  0
  1 37  1  0
  3 38  1  0
  3 39  1  0
  3 40  1  0
  4 41  1  1
  5 42  1  0
  6 43  1  0
  6 44  1  0
  7 45  1  0
  7 46  1  0
  9 47  1  0
  9 48  1  0
  9 49  1  0
 10 50  1  1
 11 51  1  0
 11 52  1  0
 12 53  1  0
 12 54  1  0
 14 55  1  0
 14 56  1  0
 14 57  1  0
 15 58  1  1
 18 59  1  0
 20 60  1  6
 21 61  1  0
 21 62  1  0
 23 63  1  0
 23 64  1  0
 23 65  1  0
 26 66  1  0
 27 67  1  0
 27 68  1  0
 28 69  1  0
 28 70  1  0
 30 71  1  0
 30 72  1  0
 30 73  1  0
 31 74  1  0
 31 75  1  0
 32 76  1  0
 32 77  1  0
 34 78  1  0
 34 79  1  0
 34 80  1  0
M  END
$$$$
