@<TRIPOS>MOLECULE
*****
 80 84 0 0 0
SMALL
GASTEIGER

@<TRIPOS>ATOM
      1 C           5.3510   -0.9118    1.8421 C.3     1  UNL1       -0.0572
      2 C           4.9341   -0.1403    0.5651 C.3     1  UNL1       -0.0056
      3 C           5.6265   -0.8495   -0.5600 C.3     1  UNL1       -0.0572
      4 C           5.4553    1.2605    0.7792 C.3     1  UNL1        0.0606
      5 O           6.6554    1.3401    0.0293 O.3     1  UNL1       -0.3912
      6 C           4.5771    2.3537    0.3420 C.3     1  UNL1       -0.0258
      7 C           3.0979    2.1252    0.5334 C.3     1  UNL1       -0.0443
      8 C           2.7380    0.8290   -0.2464 C.3     1  UNL1       -0.0182
      9 C           3.2488    1.1170   -1.5979 C.3     1  UNL1       -0.0586
     10 C           3.4435   -0.2095    0.5573 C.3     1  UNL1       -0.0274
     11 C           2.9731   -1.6198    0.3714 C.3     1  UNL1       -0.0486
     12 C           1.4770   -1.6963    0.5511 C.3     1  UNL1       -0.0459
     13 C           0.7377   -0.7291   -0.3786 C.3     1  UNL1       -0.0127
     14 C           0.9766   -1.2323   -1.7619 C.3     1  UNL1       -0.0581
     15 C           1.2703    0.6385   -0.1094 C.3     1  UNL1        0.0333
     16 C           0.4439    1.6008   -0.8394 C.2     1  UNL1        0.1602
     17 O           0.8782    2.6362   -1.4110 O.2     1  UNL1       -0.2923
     18 C          -0.9941    1.3632   -0.9243 C.2     1  UNL1       -0.0188
     19 C          -1.5574    0.2370   -0.5385 C.2     1  UNL1       -0.0562
     20 C          -3.0533    0.1095   -0.6756 C.3     1  UNL1       -0.0126
     21 C          -3.6779    1.2674    0.0451 C.3     1  UNL1       -0.0304
     22 C          -5.1616    1.1798    0.2052 C.3     1  UNL1        0.0654
     23 C          -5.4975    1.6639    1.6195 C.3     1  UNL1       -0.0494
     24 C          -5.8976    2.0895   -0.7185 C.2     1  UNL1        0.3107
     25 O          -6.7131    1.6346   -1.5570 O.2     1  UNL1       -0.2504
     26 O          -5.7009    3.4683   -0.6768 O.3     1  UNL1       -0.4802
     27 C          -5.7249   -0.1959    0.0713 C.3     1  UNL1       -0.0370
     28 C          -4.7162   -1.1525    0.6712 C.3     1  UNL1       -0.0461
     29 C          -3.5888   -1.2209   -0.3771 C.3     1  UNL1       -0.0254
     30 C          -4.2997   -1.8032   -1.6161 C.3     1  UNL1       -0.0590
     31 C          -2.6660   -2.2767    0.1094 C.3     1  UNL1       -0.0463
     32 C          -1.3349   -2.1136   -0.5845 C.3     1  UNL1       -0.0429
     33 C          -0.7112   -0.8333   -0.0030 C.3     1  UNL1       -0.0043
     34 C          -0.9269   -0.8762    1.4984 C.3     1  UNL1       -0.0553
     35 H           5.4118   -2.0001    1.6044 H       1  UNL1        0.0236
     36 H           4.6572   -0.6805    2.6603 H       1  UNL1        0.0236
     37 H           6.3555   -0.5875    2.1294 H       1  UNL1        0.0236
     38 H           6.3035   -1.6896   -0.2165 H       1  UNL1        0.0236
     39 H           6.3482   -0.1767   -1.1135 H       1  UNL1        0.0236
     40 H           4.9912   -1.2983   -1.3211 H       1  UNL1        0.0236
     41 H           5.7806    1.4555    1.8295 H       1  UNL1        0.0599
     42 H           7.3656    0.8142    0.5137 H       1  UNL1        0.2098
     43 H           4.8069    3.2813    0.9499 H       1  UNL1        0.0290
     44 H           4.8212    2.6765   -0.7069 H       1  UNL1        0.0290
     45 H           2.9376    1.9659    1.6194 H       1  UNL1        0.0272
     46 H           2.5716    2.9911    0.1494 H       1  UNL1        0.0272
     47 H           3.1165    2.2140   -1.8598 H       1  UNL1        0.0235
     48 H           4.3215    0.9598   -1.6827 H       1  UNL1        0.0235
     49 H           2.7602    0.6015   -2.4407 H       1  UNL1        0.0235
     50 H           3.1395    0.0015    1.6381 H       1  UNL1        0.0312
     51 H           3.3880   -2.1999    1.2557 H       1  UNL1        0.0268
     52 H           3.3539   -2.1550   -0.4928 H       1  UNL1        0.0268
     53 H           1.2564   -1.5254    1.6024 H       1  UNL1        0.0271
     54 H           1.1793   -2.7354    0.2696 H       1  UNL1        0.0271
     55 H           0.3856   -2.1654   -1.8994 H       1  UNL1        0.0236
     56 H           0.6546   -0.5420   -2.5642 H       1  UNL1        0.0236
     57 H           2.0303   -1.6077   -1.9286 H       1  UNL1        0.0236
     58 H           1.0671    0.8450    0.9871 H       1  UNL1        0.0392
     59 H          -1.6268    2.1745   -1.3340 H       1  UNL1        0.0652
     60 H          -3.2162    0.3340   -1.7753 H       1  UNL1        0.0351
     61 H          -3.4994    2.2089   -0.5572 H       1  UNL1        0.0282
     62 H          -3.1501    1.4004    1.0110 H       1  UNL1        0.0282
     63 H          -5.3161    2.7464    1.7203 H       1  UNL1        0.0240
     64 H          -6.5851    1.4106    1.7614 H       1  UNL1        0.0240
     65 H          -4.9483    1.0479    2.3542 H       1  UNL1        0.0240
     66 H          -6.0241    4.0247   -1.4666 H       1  UNL1        0.2951
     67 H          -6.0202   -0.4653   -0.9493 H       1  UNL1        0.0276
     68 H          -6.6488   -0.2779    0.6977 H       1  UNL1        0.0276
     69 H          -4.3364   -0.7490    1.6072 H       1  UNL1        0.0271
     70 H          -5.1220   -2.1812    0.7358 H       1  UNL1        0.0271
     71 H          -4.5669   -0.9774   -2.2863 H       1  UNL1        0.0235
     72 H          -5.1322   -2.4581   -1.3288 H       1  UNL1        0.0235
     73 H          -3.5732   -2.4442   -2.1900 H       1  UNL1        0.0235
     74 H          -2.5935   -2.3713    1.2069 H       1  UNL1        0.0271
     75 H          -3.0335   -3.2987   -0.2143 H       1  UNL1        0.0271
     76 H          -1.6115   -1.9462   -1.6692 H       1  UNL1        0.0274
     77 H          -0.7255   -2.9941   -0.4131 H       1  UNL1        0.0274
     78 H          -1.9532   -0.5283    1.7624 H       1  UNL1        0.0238
     79 H          -0.7342   -1.9171    1.8940 H       1  UNL1        0.0238
     80 H          -0.2491   -0.2349    2.0742 H       1  UNL1        0.0238
@<TRIPOS>BOND
     1     1     2    1
     2     2     3    1
     3     2     4    1
     4     4     5    1
     5     4     6    1
     6     6     7    1
     7     7     8    1
     8     8     9    1
     9     8    10    1
    10    10    11    1
    11    11    12    1
    12    12    13    1
    13    13    14    1
    14    13    15    1
    15    15    16    1
    16    16    17    2
    17    16    18    1
    18    18    19    2
    19    19    20    1
    20    20    21    1
    21    21    22    1
    22    22    23    1
    23    22    24    1
    24    24    25    2
    25    24    26    1
    26    22    27    1
    27    27    28    1
    28    28    29    1
    29    29    30    1
    30    29    31    1
    31    31    32    1
    32    32    33    1
    33    33    34    1
    34    10     2    1
    35    33    13    1
    36    15     8    1
    37    33    19    1
    38    29    20    1
    39     1    35    1
    40     1    36    1
    41     1    37    1
    42     3    38    1
    43     3    39    1
    44     3    40    1
    45     4    41    1
    46     5    42    1
    47     6    43    1
    48     6    44    1
    49     7    45    1
    50     7    46    1
    51     9    47    1
    52     9    48    1
    53     9    49    1
    54    10    50    1
    55    11    51    1
    56    11    52    1
    57    12    53    1
    58    12    54    1
    59    14    55    1
    60    14    56    1
    61    14    57    1
    62    15    58    1
    63    18    59    1
    64    20    60    1
    65    21    61    1
    66    21    62    1
    67    23    63    1
    68    23    64    1
    69    23    65    1
    70    26    66    1
    71    27    67    1
    72    27    68    1
    73    28    69    1
    74    28    70    1
    75    30    71    1
    76    30    72    1
    77    30    73    1
    78    31    74    1
    79    31    75    1
    80    32    76    1
    81    32    77    1
    82    34    78    1
    83    34    79    1
    84    34    80    1
