@<TRIPOS>MOLECULE
*****
 65 69 0 0 0
SMALL
GASTEIGER

@<TRIPOS>ATOM
      1 O           3.1859    2.0744   -0.3960 O.2     1  UNL1       -0.2702
      2 C           4.1707    1.3384   -0.1128 C.2     1  UNL1        0.2444
      3 N           4.0053   -0.0197   -0.4785 N.am    1  UNL1       -0.3047
      4 C           2.8526   -0.5659   -1.1122 C.3     1  UNL1        0.0634
      5 C           3.1327   -1.1244   -2.4921 C.3     1  UNL1       -0.0187
      6 C           4.1751   -2.2139   -2.4541 C.3     1  UNL1       -0.0480
      7 C           3.4773   -3.3218   -1.6743 C.3     1  UNL1       -0.0465
      8 C           2.1138   -2.8051   -1.3778 C.3     1  UNL1       -0.0017
      9 C           1.8633   -1.9839   -2.6599 C.3     1  UNL1       -0.0421
     10 C           2.1329   -1.6445   -0.3764 C.3     1  UNL1        0.1246
     11 O           0.7535   -1.3408   -0.1818 O.3     1  UNL1       -0.4557
     12 C           0.1113   -1.3929    1.0223 C.2     1  UNL1        0.3397
     13 O           0.7678   -1.7283    2.0324 O.2     1  UNL1       -0.2449
     14 C          -1.3081   -1.0561    1.0782 C.ar    1  UNL1        0.0659
     15 C          -2.0264   -1.0824    2.2593 C.ar    1  UNL1       -0.0053
     16 C          -3.3654   -0.7663    2.3171 C.ar    1  UNL1        0.1320
     17 O          -4.0913   -0.7906    3.4987 O.3     1  UNL1       -0.5059
     18 C          -4.0648   -0.3982    1.1562 C.ar    1  UNL1        0.1050
     19 C          -5.4902   -0.1824    1.2364 C.2     1  UNL1        0.2044
     20 O          -6.0867   -0.7841    2.2334 O.2     1  UNL1       -0.2863
     21 C          -6.3642    0.5705    0.4035 C.ar    1  UNL1        0.0778
     22 C          -7.6418    0.0395    0.1480 C.ar    1  UNL1        0.1285
     23 O          -8.0122   -1.1945    0.6661 O.3     1  UNL1       -0.5060
     24 C          -8.5776    0.7013   -0.6156 C.ar    1  UNL1       -0.0194
     25 C          -8.2730    1.9291   -1.1587 C.ar    1  UNL1       -0.0575
     26 C          -7.0288    2.4581   -0.9120 C.ar    1  UNL1       -0.0468
     27 C          -6.0671    1.7811   -0.1246 C.ar    1  UNL1        0.0731
     28 C          -4.9006    2.5964    0.1926 C.2     1  UNL1        0.3376
     29 O          -4.6596    3.6745   -0.4418 O.2     1  UNL1       -0.2451
     30 O          -3.9959    2.2943    1.1720 O.3     1  UNL1       -0.4771
     31 C          -3.3467   -0.3729   -0.0276 C.ar    1  UNL1        0.1320
     32 O          -3.9915   -0.0235   -1.1985 O.3     1  UNL1       -0.5059
     33 C          -1.9985   -0.6977   -0.0433 C.ar    1  UNL1       -0.0053
     34 C           5.3281    1.9059    0.5277 C.ar    1  UNL1        0.0369
     35 C           5.4125    3.2487    0.8591 C.ar    1  UNL1       -0.0462
     36 C           6.5364    3.7644    1.4733 C.ar    1  UNL1       -0.0195
     37 C           7.6055    2.9603    1.7743 C.ar    1  UNL1        0.1169
     38 O           8.7530    3.4607    2.3957 O.3     1  UNL1       -0.5068
     39 C           7.5584    1.6354    1.4635 C.ar    1  UNL1       -0.0195
     40 C           6.4157    1.1316    0.8435 C.ar    1  UNL1       -0.0462
     41 H           4.7976   -0.6613   -0.2613 H       1  UNL1        0.1494
     42 H           2.1231    0.2583   -1.2740 H       1  UNL1        0.0538
     43 H           3.2510   -0.3917   -3.2679 H       1  UNL1        0.0320
     44 H           5.1267   -1.9174   -2.0254 H       1  UNL1        0.0269
     45 H           4.3547   -2.5144   -3.5158 H       1  UNL1        0.0269
     46 H           4.0543   -3.6281   -0.7862 H       1  UNL1        0.0269
     47 H           3.3917   -4.1850   -2.3356 H       1  UNL1        0.0269
     48 H           1.3439   -3.5291   -1.1857 H       1  UNL1        0.0337
     49 H           1.9152   -2.6175   -3.5457 H       1  UNL1        0.0272
     50 H           0.9549   -1.3791   -2.5628 H       1  UNL1        0.0272
     51 H           2.5270   -1.9124    0.5915 H       1  UNL1        0.0755
     52 H          -1.5113   -1.3626    3.1678 H       1  UNL1        0.0662
     53 H          -3.8673   -0.2541    4.3105 H       1  UNL1        0.2922
     54 H          -8.1798   -2.0083    0.0871 H       1  UNL1        0.2922
     55 H          -9.5603    0.2984   -0.8152 H       1  UNL1        0.0654
     56 H          -8.9896    2.4838   -1.7732 H       1  UNL1        0.0619
     57 H          -6.8108    3.4223   -1.3483 H       1  UNL1        0.0626
     58 H          -3.5963    2.9627    1.8127 H       1  UNL1        0.2954
     59 H          -4.3121   -0.7547   -1.8134 H       1  UNL1        0.2922
     60 H          -1.4889   -0.6594   -0.9965 H       1  UNL1        0.0662
     61 H           4.5872    3.9124    0.6362 H       1  UNL1        0.0626
     62 H           6.6248    4.8123    1.7420 H       1  UNL1        0.0654
     63 H           9.3478    4.1395    1.9166 H       1  UNL1        0.2921
     64 H           8.4101    0.9897    1.7021 H       1  UNL1        0.0654
     65 H           6.4451    0.0726    0.6250 H       1  UNL1        0.0626
@<TRIPOS>BOND
     1     1     2    2
     2     2     3   am
     3     3     4    1
     4     4     5    1
     5     5     6    1
     6     6     7    1
     7     7     8    1
     8     8     9    1
     9     8    10    1
    10    10    11    1
    11    11    12    1
    12    12    13    2
    13    12    14    1
    14    14    15   ar
    15    15    16   ar
    16    16    17    1
    17    16    18   ar
    18    18    19    1
    19    19    20    2
    20    19    21    1
    21    21    22   ar
    22    22    23    1
    23    22    24   ar
    24    24    25   ar
    25    25    26   ar
    26    26    27   ar
    27    27    28    1
    28    28    29    2
    29    28    30    1
    30    18    31   ar
    31    31    32    1
    32    31    33   ar
    33     2    34    1
    34    34    35   ar
    35    35    36   ar
    36    36    37   ar
    37    37    38    1
    38    37    39   ar
    39    39    40   ar
    40    10     4    1
    41    33    14   ar
    42    40    34   ar
    43     9     5    1
    44    27    21   ar
    45     3    41    1
    46     4    42    1
    47     5    43    1
    48     6    44    1
    49     6    45    1
    50     7    46    1
    51     7    47    1
    52     8    48    1
    53     9    49    1
    54     9    50    1
    55    10    51    1
    56    15    52    1
    57    17    53    1
    58    23    54    1
    59    24    55    1
    60    25    56    1
    61    26    57    1
    62    30    58    1
    63    32    59    1
    64    33    60    1
    65    35    61    1
    66    36    62    1
    67    38    63    1
    68    39    64    1
    69    40    65    1
