
     RDKit          3D

 65 69  0  0  0  0  0  0  0  0999 V2000
    3.1859    2.0744   -0.3960 O   0  0  0  0  0  0  0  0  0  0  0  0
    4.1707    1.3384   -0.1128 C   0  0  0  0  0  0  0  0  0  0  0  0
    4.0053   -0.0197   -0.4785 N   0  0  0  0  0  0  0  0  0  0  0  0
    2.8526   -0.5659   -1.1122 C   0  0  0  0  0  0  0  0  0  0  0  0
    3.1327   -1.1244   -2.4921 C   0  0  0  0  0  0  0  0  0  0  0  0
    4.1751   -2.2139   -2.4541 C   0  0  0  0  0  0  0  0  0  0  0  0
    3.4773   -3.3218   -1.6743 C   0  0  0  0  0  0  0  0  0  0  0  0
    2.1138   -2.8051   -1.3778 C   0  0  0  0  0  0  0  0  0  0  0  0
    1.8633   -1.9839   -2.6599 C   0  0  0  0  0  0  0  0  0  0  0  0
    2.1329   -1.6445   -0.3764 C   0  0  0  0  0  0  0  0  0  0  0  0
    0.7535   -1.3408   -0.1818 O   0  0  0  0  0  0  0  0  0  0  0  0
    0.1113   -1.3929    1.0223 C   0  0  0  0  0  0  0  0  0  0  0  0
    0.7678   -1.7283    2.0324 O   0  0  0  0  0  0  0  0  0  0  0  0
   -1.3081   -1.0561    1.0782 C   0  0  0  0  0  0  0  0  0  0  0  0
   -2.0264   -1.0824    2.2593 C   0  0  0  0  0  0  0  0  0  0  0  0
   -3.3654   -0.7663    2.3171 C   0  0  0  0  0  0  0  0  0  0  0  0
   -4.0913   -0.7906    3.4987 O   0  0  0  0  0  0  0  0  0  0  0  0
   -4.0648   -0.3982    1.1562 C   0  0  0  0  0  0  0  0  0  0  0  0
   -5.4902   -0.1824    1.2364 C   0  0  0  0  0  0  0  0  0  0  0  0
   -6.0867   -0.7841    2.2334 O   0  0  0  0  0  0  0  0  0  0  0  0
   -6.3642    0.5705    0.4035 C   0  0  0  0  0  0  0  0  0  0  0  0
   -7.6418    0.0395    0.1480 C   0  0  0  0  0  0  0  0  0  0  0  0
   -8.0122   -1.1945    0.6661 O   0  0  0  0  0  0  0  0  0  0  0  0
   -8.5776    0.7013   -0.6156 C   0  0  0  0  0  0  0  0  0  0  0  0
   -8.2730    1.9291   -1.1587 C   0  0  0  0  0  0  0  0  0  0  0  0
   -7.0288    2.4581   -0.9120 C   0  0  0  0  0  0  0  0  0  0  0  0
   -6.0671    1.7811   -0.1246 C   0  0  0  0  0  0  0  0  0  0  0  0
   -4.9006    2.5964    0.1926 C   0  0  0  0  0  0  0  0  0  0  0  0
   -4.6596    3.6745   -0.4418 O   0  0  0  0  0  0  0  0  0  0  0  0
   -3.9959    2.2943    1.1720 O   0  0  0  0  0  0  0  0  0  0  0  0
   -3.3467   -0.3729   -0.0276 C   0  0  0  0  0  0  0  0  0  0  0  0
   -3.9915   -0.0235   -1.1985 O   0  0  0  0  0  0  0  0  0  0  0  0
   -1.9985   -0.6977   -0.0433 C   0  0  0  0  0  0  0  0  0  0  0  0
    5.3281    1.9059    0.5277 C   0  0  0  0  0  0  0  0  0  0  0  0
    5.4125    3.2487    0.8591 C   0  0  0  0  0  0  0  0  0  0  0  0
    6.5364    3.7644    1.4733 C   0  0  0  0  0  0  0  0  0  0  0  0
    7.6055    2.9603    1.7743 C   0  0  0  0  0  0  0  0  0  0  0  0
    8.7530    3.4607    2.3957 O   0  0  0  0  0  0  0  0  0  0  0  0
    7.5584    1.6354    1.4635 C   0  0  0  0  0  0  0  0  0  0  0  0
    6.4157    1.1316    0.8435 C   0  0  0  0  0  0  0  0  0  0  0  0
    4.7976   -0.6613   -0.2613 H   0  0  0  0  0  0  0  0  0  0  0  0
    2.1231    0.2583   -1.2740 H   0  0  0  0  0  0  0  0  0  0  0  0
    3.2510   -0.3917   -3.2679 H   0  0  0  0  0  0  0  0  0  0  0  0
    5.1267   -1.9174   -2.0254 H   0  0  0  0  0  0  0  0  0  0  0  0
    4.3547   -2.5144   -3.5158 H   0  0  0  0  0  0  0  0  0  0  0  0
    4.0543   -3.6281   -0.7862 H   0  0  0  0  0  0  0  0  0  0  0  0
    3.3917   -4.1850   -2.3356 H   0  0  0  0  0  0  0  0  0  0  0  0
    1.3439   -3.5291   -1.1857 H   0  0  0  0  0  0  0  0  0  0  0  0
    1.9152   -2.6175   -3.5457 H   0  0  0  0  0  0  0  0  0  0  0  0
    0.9549   -1.3791   -2.5628 H   0  0  0  0  0  0  0  0  0  0  0  0
    2.5270   -1.9124    0.5915 H   0  0  0  0  0  0  0  0  0  0  0  0
   -1.5113   -1.3626    3.1678 H   0  0  0  0  0  0  0  0  0  0  0  0
   -3.8673   -0.2541    4.3105 H   0  0  0  0  0  0  0  0  0  0  0  0
   -8.1798   -2.0083    0.0871 H   0  0  0  0  0  0  0  0  0  0  0  0
   -9.5603    0.2984   -0.8152 H   0  0  0  0  0  0  0  0  0  0  0  0
   -8.9896    2.4838   -1.7732 H   0  0  0  0  0  0  0  0  0  0  0  0
   -6.8108    3.4223   -1.3483 H   0  0  0  0  0  0  0  0  0  0  0  0
   -3.5963    2.9627    1.8127 H   0  0  0  0  0  0  0  0  0  0  0  0
   -4.3121   -0.7547   -1.8134 H   0  0  0  0  0  0  0  0  0  0  0  0
   -1.4889   -0.6594   -0.9965 H   0  0  0  0  0  0  0  0  0  0  0  0
    4.5872    3.9124    0.6362 H   0  0  0  0  0  0  0  0  0  0  0  0
    6.6248    4.8123    1.7420 H   0  0  0  0  0  0  0  0  0  0  0  0
    9.3478    4.1395    1.9166 H   0  0  0  0  0  0  0  0  0  0  0  0
    8.4101    0.9897    1.7021 H   0  0  0  0  0  0  0  0  0  0  0  0
    6.4451    0.0726    0.6250 H   0  0  0  0  0  0  0  0  0  0  0  0
  1  2  2  0
  2  3  1  0
  3  4  1  0
  4  5  1  0
  5  6  1  0
  6  7  1  0
  7  8  1  0
  8  9  1  0
  8 10  1  0
 10 11  1  0
 11 12  1  0
 12 13  2  0
 12 14  1  0
 14 15  2  0
 15 16  1  0
 16 17  1  0
 16 18  2  0
 18 19  1  0
 19 20  2  0
 19 21  1  0
 21 22  2  0
 22 23  1  0
 22 24  1  0
 24 25  2  0
 25 26  1  0
 26 27  2  0
 27 28  1  0
 28 29  2  0
 28 30  1  0
 18 31  1  0
 31 32  1  0
 31 33  2  0
  2 34  1  0
 34 35  2  0
 35 36  1  0
 36 37  2  0
 37 38  1  0
 37 39  1  0
 39 40  2  0
 10  4  1  0
 33 14  1  0
 40 34  1  0
  9  5  1  0
 27 21  1  0
  3 41  1  0
  4 42  1  0
  5 43  1  0
  6 44  1  0
  6 45  1  0
  7 46  1  0
  7 47  1  0
  8 48  1  0
  9 49  1  0
  9 50  1  0
 10 51  1  0
 15 52  1  0
 17 53  1  0
 23 54  1  0
 24 55  1  0
 25 56  1  0
 26 57  1  0
 30 58  1  0
 32 59  1  0
 33 60  1  0
 35 61  1  0
 36 62  1  0
 38 63  1  0
 39 64  1  0
 40 65  1  0
M  END
$$$$
