@<TRIPOS>MOLECULE
*****
 57 62 0 0 0
SMALL
GASTEIGER

@<TRIPOS>ATOM
      1 O           5.0359   -1.0265    1.3140 O.2     1  UNL1       -0.2702
      2 C           5.0727    0.2016    1.0034 C.2     1  UNL1        0.2443
      3 N           6.3215    0.8318    1.0163 N.am    1  UNL1       -0.3072
      4 C           7.5871    0.2399    1.3450 C.3     1  UNL1        0.0372
      5 C           8.1696   -0.5975    0.2803 C.ar    1  UNL1       -0.0275
      6 C           8.9854   -0.0391   -0.6776 C.ar    1  UNL1       -0.0389
      7 C           9.5557   -0.7990   -1.6915 C.ar    1  UNL1        0.0279
      8 N           9.3053   -2.1209   -1.7424 N.ar    1  UNL1       -0.2632
      9 C           8.5170   -2.7105   -0.8321 C.ar    1  UNL1        0.0279
     10 C           7.9427   -1.9526    0.1873 C.ar    1  UNL1       -0.0389
     11 C           3.7972    0.8324    0.6630 C.ar    1  UNL1        0.0370
     12 C           3.7505    2.1620    0.3036 C.ar    1  UNL1       -0.0490
     13 C           2.5588    2.7567   -0.0137 C.ar    1  UNL1       -0.0516
     14 C           1.3938    2.0211    0.0262 C.ar    1  UNL1        0.0036
     15 C           1.3875    0.6812    0.3814 C.ar    1  UNL1       -0.0331
     16 C           2.6110    0.1338    0.6902 C.ar    1  UNL1       -0.0455
     17 C          -0.0096    0.1446    0.3380 C.3     1  UNL1        0.0023
     18 C          -0.8178    1.2984   -0.0777 C.ar    1  UNL1        0.0099
     19 C          -2.1157    1.7147   -0.3626 C.ar    1  UNL1        0.0966
     20 C          -3.3622    0.9596   -0.3304 C.ar    1  UNL1        0.0024
     21 C          -3.5162   -0.3024   -0.8536 C.ar    1  UNL1       -0.0519
     22 C          -4.7518   -0.9451   -0.7792 C.ar    1  UNL1       -0.0534
     23 C          -5.8331   -0.3495   -0.1923 C.ar    1  UNL1       -0.0178
     24 C          -7.1585   -0.9812   -0.0898 C.ar    1  UNL1       -0.0177
     25 C          -7.6237   -1.8535   -1.0531 C.ar    1  UNL1       -0.0506
     26 C          -8.8763   -2.4282   -0.9242 C.ar    1  UNL1       -0.0196
     27 C          -9.7006   -2.1653    0.1446 C.ar    1  UNL1        0.1169
     28 O         -10.9685   -2.7406    0.2847 O.3     1  UNL1       -0.5068
     29 C          -9.2362   -1.2943    1.1065 C.ar    1  UNL1       -0.0196
     30 C          -7.9915   -0.7219    0.9805 C.ar    1  UNL1       -0.0506
     31 C          -5.6948    0.9117    0.3356 C.ar    1  UNL1       -0.0534
     32 C          -4.4669    1.5464    0.2599 C.ar    1  UNL1       -0.0519
     33 N          -1.9963    3.0333   -0.6973 N.ar    1  UNL1       -0.1730
     34 N          -0.7498    3.4195   -0.6327 N.ar    1  UNL1       -0.2761
     35 C           0.0098    2.3776   -0.2537 C.ar    1  UNL1        0.0701
     36 H           6.3301    1.8531    0.7527 H       1  UNL1        0.1493
     37 H           7.4762   -0.3763    2.2815 H       1  UNL1        0.0512
     38 H           8.2861    1.0594    1.6621 H       1  UNL1        0.0512
     39 H           9.2168    1.0198   -0.6792 H       1  UNL1        0.0636
     40 H          10.1964   -0.3935   -2.4526 H       1  UNL1        0.0829
     41 H           8.3453   -3.7666   -0.9113 H       1  UNL1        0.0829
     42 H           7.3213   -2.4658    0.8942 H       1  UNL1        0.0636
     43 H           4.6363    2.7930    0.2544 H       1  UNL1        0.0625
     44 H           2.4976    3.8194   -0.3040 H       1  UNL1        0.0624
     45 H           2.6561   -0.9222    0.9772 H       1  UNL1        0.0628
     46 H          -0.0804   -0.6963   -0.4078 H       1  UNL1        0.0363
     47 H          -0.2936   -0.2721    1.3138 H       1  UNL1        0.0363
     48 H          -2.6874   -0.7828   -1.3144 H       1  UNL1        0.0624
     49 H          -4.8754   -1.9505   -1.1963 H       1  UNL1        0.0624
     50 H          -6.9985   -2.0940   -1.9272 H       1  UNL1        0.0625
     51 H          -9.2316   -3.1174   -1.6956 H       1  UNL1        0.0654
     52 H         -11.1306   -3.2030    1.1923 H       1  UNL1        0.2921
     53 H          -9.8342   -1.0351    1.9869 H       1  UNL1        0.0654
     54 H          -7.6559   -0.0313    1.7702 H       1  UNL1        0.0625
     55 H          -6.5494    1.3954    0.8055 H       1  UNL1        0.0624
     56 H          -4.3679    2.5518    0.6841 H       1  UNL1        0.0624
     57 H          -0.3891    4.3765   -0.8388 H       1  UNL1        0.1889
@<TRIPOS>BOND
     1     1     2    2
     2     2     3   am
     3     3     4    1
     4     4     5    1
     5     5     6   ar
     6     6     7   ar
     7     7     8   ar
     8     8     9   ar
     9     9    10   ar
    10     2    11    1
    11    11    12   ar
    12    12    13   ar
    13    13    14   ar
    14    14    15   ar
    15    15    16   ar
    16    15    17    1
    17    17    18    1
    18    18    19   ar
    19    19    20    1
    20    20    21   ar
    21    21    22   ar
    22    22    23   ar
    23    23    24    1
    24    24    25   ar
    25    25    26   ar
    26    26    27   ar
    27    27    28    1
    28    27    29   ar
    29    29    30   ar
    30    23    31   ar
    31    31    32   ar
    32    19    33   ar
    33    33    34   ar
    34    34    35   ar
    35    10     5   ar
    36    16    11   ar
    37    35    18   ar
    38    35    14    1
    39    32    20   ar
    40    30    24   ar
    41     3    36    1
    42     4    37    1
    43     4    38    1
    44     6    39    1
    45     7    40    1
    46     9    41    1
    47    10    42    1
    48    12    43    1
    49    13    44    1
    50    16    45    1
    51    17    46    1
    52    17    47    1
    53    21    48    1
    54    22    49    1
    55    25    50    1
    56    26    51    1
    57    28    52    1
    58    29    53    1
    59    30    54    1
    60    31    55    1
    61    32    56    1
    62    34    57    1
