
     RDKit          3D

 70 74  0  0  0  0  0  0  0  0999 V2000
    9.1782   -1.6340    2.8801 C   0  0  0  0  0  0  0  0  0  0  0  0
    8.1409   -1.2586    1.9936 O   0  0  0  0  0  0  0  0  0  0  0  0
    8.3906   -0.9432    0.6653 C   0  0  0  0  0  0  0  0  0  0  0  0
    9.5550   -0.9376    0.0385 N   0  0  0  0  0  0  0  0  0  0  0  0
    9.4367   -0.5908   -1.2188 N   0  0  0  0  0  0  0  0  0  0  0  0
   10.4653   -0.4615   -2.2442 C   0  0  0  0  0  0  0  0  0  0  0  0
    8.1049   -0.3543   -1.4253 C   0  0  0  0  0  0  0  0  0  0  0  0
    7.4180   -0.5649   -0.2672 C   0  0  0  0  0  0  0  0  0  0  0  0
    6.0514   -0.4473   -0.0051 N   0  0  0  0  0  0  0  0  0  0  0  0
    5.1003   -0.0665   -0.9844 C   0  0  0  0  0  0  0  0  0  0  0  0
    5.4450    0.2166   -2.2446 N   0  0  0  0  0  0  0  0  0  0  0  0
    4.5346    0.5696   -3.1519 C   0  0  0  0  0  0  0  0  0  0  0  0
    3.1854    0.6455   -2.7750 C   0  0  0  0  0  0  0  0  0  0  0  0
    2.3140    1.0015   -3.7123 F   0  0  0  0  0  0  0  0  0  0  0  0
    2.8041    0.3600   -1.4880 C   0  0  0  0  0  0  0  0  0  0  0  0
    1.4249    0.4204   -1.0382 C   0  0  0  0  0  0  0  0  0  0  0  0
    0.2967    0.7419   -1.7642 C   0  0  0  0  0  0  0  0  0  0  0  0
   -0.7921    0.6681   -0.9430 N   0  0  0  0  0  0  0  0  0  0  0  0
   -0.4158    0.3135    0.2790 C   0  0  0  0  0  0  0  0  0  0  0  0
   -1.1907    0.1166    1.4410 C   0  0  0  0  0  0  0  0  0  0  0  0
   -2.5841    0.3042    1.3476 N   0  0  0  0  0  0  0  0  0  0  0  0
   -3.4842    0.1771    2.3940 C   0  0  0  0  0  0  0  0  0  0  0  0
   -3.0963   -0.1202    3.5452 O   0  0  0  0  0  0  0  0  0  0  0  0
   -4.9591    0.3752    2.2693 C   0  0  1  0  0  0  0  0  0  0  0  0
   -5.3931    1.5938    3.0814 C   0  0  0  0  0  0  0  0  0  0  0  0
   -5.4331    0.4334    0.9235 N   0  0  0  0  0  0  0  0  0  0  0  0
   -5.2869   -0.8685    0.3077 C   0  0  0  0  0  0  0  0  0  0  0  0
   -5.6175   -0.6740   -1.1563 C   0  0  0  0  0  0  0  0  0  0  0  0
   -7.0375   -0.3844   -1.2108 N   0  0  0  0  0  0  0  0  0  0  0  0
   -7.8337   -1.5341   -0.8250 C   0  0  0  0  0  0  0  0  0  0  0  0
   -7.4368    0.7611   -0.4530 C   0  0  2  0  0  0  0  0  0  0  0  0
   -7.2567    2.0236   -1.2730 C   0  0  0  0  0  0  0  0  0  0  0  0
   -6.7876    0.8782    0.9029 C   0  0  0  0  0  0  0  0  0  0  0  0
   -0.4879   -0.2479    2.5506 C   0  0  0  0  0  0  0  0  0  0  0  0
    0.9015   -0.4258    2.5826 C   0  0  0  0  0  0  0  0  0  0  0  0
    1.5840   -0.2148    1.4092 C   0  0  0  0  0  0  0  0  0  0  0  0
    0.9358    0.1573    0.2423 C   0  0  0  0  0  0  0  0  0  0  0  0
    3.7738    0.0157   -0.6434 N   0  0  0  0  0  0  0  0  0  0  0  0
    9.6709   -0.7340    3.2871 H   0  0  0  0  0  0  0  0  0  0  0  0
    8.8460   -2.3183    3.6782 H   0  0  0  0  0  0  0  0  0  0  0  0
    9.9515   -2.1486    2.2451 H   0  0  0  0  0  0  0  0  0  0  0  0
   10.5543    0.6221   -2.4815 H   0  0  0  0  0  0  0  0  0  0  0  0
   10.1759   -1.0046   -3.1582 H   0  0  0  0  0  0  0  0  0  0  0  0
   11.4217   -0.8231   -1.8230 H   0  0  0  0  0  0  0  0  0  0  0  0
    7.7066   -0.0435   -2.3988 H   0  0  0  0  0  0  0  0  0  0  0  0
    5.7075   -0.6535    0.9788 H   0  0  0  0  0  0  0  0  0  0  0  0
    4.8469    0.7903   -4.1554 H   0  0  0  0  0  0  0  0  0  0  0  0
    0.3018    1.0028   -2.8032 H   0  0  0  0  0  0  0  0  0  0  0  0
   -1.7570    0.8666   -1.2612 H   0  0  0  0  0  0  0  0  0  0  0  0
   -2.9910    0.5751    0.4067 H   0  0  0  0  0  0  0  0  0  0  0  0
   -5.4351   -0.5044    2.7613 H   0  0  0  0  0  0  0  0  0  0  0  0
   -6.4557    1.4135    3.3624 H   0  0  0  0  0  0  0  0  0  0  0  0
   -4.8195    1.5426    4.0412 H   0  0  0  0  0  0  0  0  0  0  0  0
   -5.2285    2.5382    2.5623 H   0  0  0  0  0  0  0  0  0  0  0  0
   -6.1447   -1.4822    0.7286 H   0  0  0  0  0  0  0  0  0  0  0  0
   -4.3340   -1.3372    0.5134 H   0  0  0  0  0  0  0  0  0  0  0  0
   -5.4174   -1.5491   -1.7718 H   0  0  0  0  0  0  0  0  0  0  0  0
   -5.0761    0.1954   -1.5538 H   0  0  0  0  0  0  0  0  0  0  0  0
   -8.2357   -1.4318    0.2093 H   0  0  0  0  0  0  0  0  0  0  0  0
   -8.7032   -1.6216   -1.5070 H   0  0  0  0  0  0  0  0  0  0  0  0
   -7.2173   -2.4493   -0.8950 H   0  0  0  0  0  0  0  0  0  0  0  0
   -8.5355    0.6626   -0.2704 H   0  0  0  0  0  0  0  0  0  0  0  0
   -6.5742    1.7826   -2.1058 H   0  0  0  0  0  0  0  0  0  0  0  0
   -8.2262    2.3230   -1.7642 H   0  0  0  0  0  0  0  0  0  0  0  0
   -6.9182    2.8818   -0.6609 H   0  0  0  0  0  0  0  0  0  0  0  0
   -7.3500    0.3409    1.6991 H   0  0  0  0  0  0  0  0  0  0  0  0
   -6.7764    1.9817    1.1408 H   0  0  0  0  0  0  0  0  0  0  0  0
   -1.0040   -0.4186    3.4756 H   0  0  0  0  0  0  0  0  0  0  0  0
    1.4032   -0.7144    3.4868 H   0  0  0  0  0  0  0  0  0  0  0  0
    2.6655   -0.3299    1.3421 H   0  0  0  0  0  0  0  0  0  0  0  0
  1  2  1  0
  2  3  1  0
  3  4  2  0
  4  5  1  0
  5  6  1  0
  5  7  1  0
  7  8  2  0
  8  9  1  0
  9 10  1  0
 10 11  2  0
 11 12  1  0
 12 13  2  0
 13 14  1  0
 13 15  1  0
 15 16  1  0
 16 17  2  0
 17 18  1  0
 18 19  1  0
 19 20  2  0
 20 21  1  0
 21 22  1  0
 22 23  2  0
 22 24  1  0
 24 25  1  0
 24 26  1  0
 26 27  1  0
 27 28  1  0
 28 29  1  0
 29 30  1  0
 29 31  1  0
 31 32  1  0
 31 33  1  0
 20 34  1  0
 34 35  2  0
 35 36  1  0
 36 37  2  0
 15 38  2  0
  8  3  1  0
 38 10  1  0
 37 16  1  0
 37 19  1  0
 33 26  1  0
  1 39  1  0
  1 40  1  0
  1 41  1  0
  6 42  1  0
  6 43  1  0
  6 44  1  0
  7 45  1  0
  9 46  1  0
 12 47  1  0
 17 48  1  0
 18 49  1  0
 21 50  1  0
 24 51  1  1
 25 52  1  0
 25 53  1  0
 25 54  1  0
 27 55  1  0
 27 56  1  0
 28 57  1  0
 28 58  1  0
 30 59  1  0
 30 60  1  0
 30 61  1  0
 31 62  1  1
 32 63  1  0
 32 64  1  0
 32 65  1  0
 33 66  1  0
 33 67  1  0
 34 68  1  0
 35 69  1  0
 36 70  1  0
M  END
$$$$
