@<TRIPOS>MOLECULE
*****
 70 74 0 0 0
SMALL
GASTEIGER

@<TRIPOS>ATOM
      1 C           9.1782   -1.6340    2.8801 C.3     1  UNL1        0.0805
      2 O           8.1409   -1.2586    1.9936 O.3     1  UNL1       -0.4774
      3 C           8.3906   -0.9432    0.6653 C.ar    1  UNL1        0.2552
      4 N           9.5550   -0.9376    0.0385 N.ar    1  UNL1       -0.1317
      5 N           9.4367   -0.5908   -1.2188 N.ar    1  UNL1       -0.2692
      6 C          10.4653   -0.4615   -2.2442 C.3     1  UNL1        0.0304
      7 C           8.1049   -0.3543   -1.4253 C.ar    1  UNL1        0.0503
      8 C           7.4180   -0.5649   -0.2672 C.ar    1  UNL1        0.1152
      9 N           6.0514   -0.4473   -0.0051 N.pl3   1  UNL1       -0.2782
     10 C           5.1003   -0.0665   -0.9844 C.ar    1  UNL1        0.2203
     11 N           5.4450    0.2166   -2.2446 N.ar    1  UNL1       -0.2198
     12 C           4.5346    0.5696   -3.1519 C.ar    1  UNL1        0.0685
     13 C           3.1854    0.6455   -2.7750 C.ar    1  UNL1        0.1674
     14 F           2.3140    1.0015   -3.7123 F       1  UNL1       -0.2016
     15 C           2.8041    0.3600   -1.4880 C.ar    1  UNL1        0.1132
     16 C           1.4249    0.4204   -1.0382 C.ar    1  UNL1        0.0284
     17 C           0.2967    0.7419   -1.7642 C.ar    1  UNL1        0.0121
     18 N          -0.7921    0.6681   -0.9430 N.ar    1  UNL1       -0.3586
     19 C          -0.4158    0.3135    0.2790 C.ar    1  UNL1        0.0686
     20 C          -1.1907    0.1166    1.4410 C.ar    1  UNL1        0.0576
     21 N          -2.5841    0.3042    1.3476 N.am    1  UNL1       -0.2825
     22 C          -3.4842    0.1771    2.3940 C.2     1  UNL1        0.2342
     23 O          -3.0963   -0.1202    3.5452 O.2     1  UNL1       -0.2738
     24 C          -4.9591    0.3752    2.2693 C.3     1  UNL1        0.0848
     25 C          -5.3931    1.5938    3.0814 C.3     1  UNL1       -0.0409
     26 N          -5.4331    0.4334    0.9235 N.3     1  UNL1       -0.2890
     27 C          -5.2869   -0.8685    0.3077 C.3     1  UNL1        0.0124
     28 C          -5.6175   -0.6740   -1.1563 C.3     1  UNL1        0.0117
     29 N          -7.0375   -0.3844   -1.2108 N.3     1  UNL1       -0.3002
     30 C          -7.8337   -1.5341   -0.8250 C.3     1  UNL1       -0.0124
     31 C          -7.4368    0.7611   -0.4530 C.3     1  UNL1        0.0201
     32 C          -7.2567    2.0236   -1.2730 C.3     1  UNL1       -0.0483
     33 C          -6.7876    0.8782    0.9029 C.3     1  UNL1        0.0150
     34 C          -0.4879   -0.2479    2.5506 C.ar    1  UNL1       -0.0384
     35 C           0.9015   -0.4258    2.5826 C.ar    1  UNL1       -0.0593
     36 C           1.5840   -0.2148    1.4092 C.ar    1  UNL1       -0.0518
     37 C           0.9358    0.1573    0.2423 C.ar    1  UNL1        0.0107
     38 N           3.7738    0.0157   -0.6434 N.ar    1  UNL1       -0.2113
     39 H           9.6709   -0.7340    3.2871 H       1  UNL1        0.0660
     40 H           8.8460   -2.3183    3.6782 H       1  UNL1        0.0660
     41 H           9.9515   -2.1486    2.2451 H       1  UNL1        0.0660
     42 H          10.5543    0.6221   -2.4815 H       1  UNL1        0.0473
     43 H          10.1759   -1.0046   -3.1582 H       1  UNL1        0.0473
     44 H          11.4217   -0.8231   -1.8230 H       1  UNL1        0.0473
     45 H           7.7066   -0.0435   -2.3988 H       1  UNL1        0.0846
     46 H           5.7075   -0.6535    0.9788 H       1  UNL1        0.1552
     47 H           4.8469    0.7903   -4.1554 H       1  UNL1        0.0861
     48 H           0.3018    1.0028   -2.8032 H       1  UNL1        0.0814
     49 H          -1.7570    0.8666   -1.2612 H       1  UNL1        0.1654
     50 H          -2.9910    0.5751    0.4067 H       1  UNL1        0.1549
     51 H          -5.4351   -0.5044    2.7613 H       1  UNL1        0.0556
     52 H          -6.4557    1.4135    3.3624 H       1  UNL1        0.0249
     53 H          -4.8195    1.5426    4.0412 H       1  UNL1        0.0249
     54 H          -5.2285    2.5382    2.5623 H       1  UNL1        0.0249
     55 H          -6.1447   -1.4822    0.7286 H       1  UNL1        0.0439
     56 H          -4.3340   -1.3372    0.5134 H       1  UNL1        0.0439
     57 H          -5.4174   -1.5491   -1.7718 H       1  UNL1        0.0439
     58 H          -5.0761    0.1954   -1.5538 H       1  UNL1        0.0439
     59 H          -8.2357   -1.4318    0.2093 H       1  UNL1        0.0391
     60 H          -8.7032   -1.6216   -1.5070 H       1  UNL1        0.0391
     61 H          -7.2173   -2.4493   -0.8950 H       1  UNL1        0.0391
     62 H          -8.5355    0.6626   -0.2704 H       1  UNL1        0.0472
     63 H          -6.5742    1.7826   -2.1058 H       1  UNL1        0.0245
     64 H          -8.2262    2.3230   -1.7642 H       1  UNL1        0.0245
     65 H          -6.9182    2.8818   -0.6609 H       1  UNL1        0.0245
     66 H          -7.3500    0.3409    1.6991 H       1  UNL1        0.0442
     67 H          -6.7764    1.9817    1.1408 H       1  UNL1        0.0442
     68 H          -1.0040   -0.4186    3.4756 H       1  UNL1        0.0637
     69 H           1.4032   -0.7144    3.4868 H       1  UNL1        0.0618
     70 H           2.6655   -0.3299    1.3421 H       1  UNL1        0.0624
@<TRIPOS>BOND
     1     1     2    1
     2     2     3    1
     3     3     4   ar
     4     4     5   ar
     5     5     6    1
     6     5     7   ar
     7     7     8   ar
     8     8     9    1
     9     9    10    1
    10    10    11   ar
    11    11    12   ar
    12    12    13   ar
    13    13    14    1
    14    13    15   ar
    15    15    16    1
    16    16    17   ar
    17    17    18   ar
    18    18    19   ar
    19    19    20   ar
    20    20    21    1
    21    21    22   am
    22    22    23    2
    23    22    24    1
    24    24    25    1
    25    24    26    1
    26    26    27    1
    27    27    28    1
    28    28    29    1
    29    29    30    1
    30    29    31    1
    31    31    32    1
    32    31    33    1
    33    20    34   ar
    34    34    35   ar
    35    35    36   ar
    36    36    37   ar
    37    15    38   ar
    38     8     3   ar
    39    38    10   ar
    40    37    16   ar
    41    37    19   ar
    42    33    26    1
    43     1    39    1
    44     1    40    1
    45     1    41    1
    46     6    42    1
    47     6    43    1
    48     6    44    1
    49     7    45    1
    50     9    46    1
    51    12    47    1
    52    17    48    1
    53    18    49    1
    54    21    50    1
    55    24    51    1
    56    25    52    1
    57    25    53    1
    58    25    54    1
    59    27    55    1
    60    27    56    1
    61    28    57    1
    62    28    58    1
    63    30    59    1
    64    30    60    1
    65    30    61    1
    66    31    62    1
    67    32    63    1
    68    32    64    1
    69    32    65    1
    70    33    66    1
    71    33    67    1
    72    34    68    1
    73    35    69    1
    74    36    70    1
