@<TRIPOS>MOLECULE
*****
 39 42 0 0 0
SMALL
GASTEIGER

@<TRIPOS>ATOM
      1 N          -3.5608    2.0134   -3.6940 N.1     1  UNL1       -0.1893
      2 C          -3.3344    2.1519   -2.5683 C.1     1  UNL1        0.1192
      3 C          -3.0455    2.3343   -1.1533 C.ar    1  UNL1        0.1438
      4 C          -3.5951    3.2850   -0.3480 C.ar    1  UNL1        0.0643
      5 N          -3.0727    3.1281    0.8905 N.ar    1  UNL1       -0.2348
      6 C          -2.2121    2.0931    0.8466 C.ar    1  UNL1        0.1385
      7 C          -1.4418    1.5572    1.8529 C.ar    1  UNL1       -0.0181
      8 C          -0.6319    0.4786    1.5287 C.ar    1  UNL1       -0.0477
      9 C          -0.6011   -0.0346    0.2498 C.ar    1  UNL1        0.0173
     10 C           0.2281   -1.1425   -0.1241 C.ar    1  UNL1        0.0780
     11 C           1.6000   -1.1556   -0.2475 C.ar    1  UNL1        0.0968
     12 C           2.5675   -0.0738   -0.0397 C.ar    1  UNL1        0.0053
     13 C           3.1863    0.4060   -1.1668 C.ar    1  UNL1       -0.0496
     14 C           4.1175    1.4240   -1.0690 C.ar    1  UNL1       -0.0230
     15 C           4.3832    1.9203    0.2055 C.ar    1  UNL1        0.1584
     16 F           5.2957    2.9142    0.2769 F       1  UNL1       -0.2025
     17 C           3.7618    1.4379    1.3345 C.ar    1  UNL1        0.1590
     18 F           4.0605    1.9639    2.5725 F       1  UNL1       -0.2025
     19 C           2.8430    0.4272    1.2010 C.ar    1  UNL1       -0.0143
     20 N           1.9948   -2.3920   -0.6162 N.ar    1  UNL1       -0.2351
     21 C           0.9048   -3.1494   -0.7257 C.ar    1  UNL1        0.0972
     22 N          -0.1783   -2.3877   -0.4251 N.ar    1  UNL1       -0.3241
     23 C          -1.5251   -2.9148   -0.4473 C.3     1  UNL1        0.0852
     24 C          -1.9172   -3.4867    0.9058 C.3     1  UNL1        0.2569
     25 F          -1.8594   -2.5166    1.8821 F       1  UNL1       -0.2073
     26 F          -1.1707   -4.5973    1.2206 F       1  UNL1       -0.2073
     27 C          -1.4084    0.5587   -0.7194 C.ar    1  UNL1        0.0216
     28 N          -2.1965    1.6076   -0.4062 N.ar    1  UNL1       -0.2906
     29 H          -4.3198    4.0603   -0.5704 H       1  UNL1        0.0859
     30 H          -1.4461    1.9332    2.8494 H       1  UNL1        0.0654
     31 H          -0.0227    0.0464    2.3159 H       1  UNL1        0.0626
     32 H           2.9846    0.0228   -2.1741 H       1  UNL1        0.0625
     33 H           4.6215    1.8224   -1.9390 H       1  UNL1        0.0647
     34 H           2.3473    0.0389    2.1086 H       1  UNL1        0.0654
     35 H           0.8928   -4.2084   -1.0107 H       1  UNL1        0.1029
     36 H          -1.6097   -3.7495   -1.1726 H       1  UNL1        0.0548
     37 H          -2.2840   -2.1635   -0.7231 H       1  UNL1        0.0548
     38 H          -2.9807   -3.8005    0.8159 H       1  UNL1        0.1037
     39 H          -1.3752    0.1475   -1.7167 H       1  UNL1        0.0820
@<TRIPOS>BOND
     1     1     2    3
     2     2     3    1
     3     3     4   ar
     4     4     5   ar
     5     5     6   ar
     6     6     7   ar
     7     7     8   ar
     8     8     9   ar
     9     9    10    1
    10    10    11   ar
    11    11    12    1
    12    12    13   ar
    13    13    14   ar
    14    14    15   ar
    15    15    16    1
    16    15    17   ar
    17    17    18    1
    18    17    19   ar
    19    11    20   ar
    20    20    21   ar
    21    21    22   ar
    22    22    23    1
    23    23    24    1
    24    24    25    1
    25    24    26    1
    26     9    27   ar
    27    27    28   ar
    28    28     3   ar
    29    28     6   ar
    30    22    10   ar
    31    19    12   ar
    32     4    29    1
    33     7    30    1
    34     8    31    1
    35    13    32    1
    36    14    33    1
    37    19    34    1
    38    21    35    1
    39    23    36    1
    40    23    37    1
    41    24    38    1
    42    27    39    1
