@<TRIPOS>MOLECULE
*****
 45 48 0 0 0
SMALL
GASTEIGER

@<TRIPOS>ATOM
      1 O           0.3121   -0.7798   -2.0971 O.2     1  UNL1       -0.2748
      2 C           1.2309   -0.1668   -1.4279 C.2     1  UNL1        0.2271
      3 C           0.9132    1.1170   -0.7668 C.3     1  UNL1        0.0826
      4 C          -0.5418    1.4475   -0.9334 C.ar    1  UNL1        0.1206
      5 N          -1.4239    1.0249   -0.0223 N.ar    1  UNL1       -0.2186
      6 C          -2.7577    1.2721   -0.0877 C.ar    1  UNL1        0.1285
      7 N          -3.5698    0.7677    0.9471 N.pl3   1  UNL1       -0.3106
      8 C          -5.0105    0.8592    0.9190 C.3     1  UNL1        0.0370
      9 C          -5.5585   -0.4825    1.3870 C.3     1  UNL1        0.0634
     10 O          -5.0083   -0.8124    2.6029 O.3     1  UNL1       -0.3767
     11 C          -3.6670   -1.1768    2.3383 C.3     1  UNL1        0.0634
     12 C          -2.9397    0.1277    2.1126 C.3     1  UNL1        0.0370
     13 C          -3.2320    1.9985   -1.1504 C.ar    1  UNL1        0.0427
     14 C          -2.3308    2.4411   -2.0991 C.ar    1  UNL1        0.2533
     15 O          -2.7832    3.1053   -3.0663 O.2     1  UNL1       -0.2677
     16 N          -1.0131    2.1537   -1.9641 N.ar    1  UNL1       -0.3104
     17 N           2.4735   -0.8311   -1.4113 N.am    1  UNL1       -0.2704
     18 C           2.8185   -2.0939   -2.0968 C.3     1  UNL1        0.0239
     19 C           3.6465   -2.7556   -1.0182 C.3     1  UNL1       -0.0069
     20 C           4.4244   -1.6092   -0.4875 C.ar    1  UNL1        0.0107
     21 C           5.6430   -1.5815    0.1481 C.ar    1  UNL1        0.1284
     22 F           6.3863   -2.6803    0.4097 F       1  UNL1       -0.2051
     23 C           6.1396   -0.3594    0.5437 C.ar    1  UNL1       -0.0261
     24 C           5.4153    0.7997    0.2987 C.ar    1  UNL1       -0.0573
     25 C           4.1915    0.7340   -0.3438 C.ar    1  UNL1       -0.0398
     26 C           3.6706   -0.4622   -0.7493 C.ar    1  UNL1        0.0422
     27 H           1.2189    1.0659    0.2872 H       1  UNL1        0.0438
     28 H           1.4983    1.9565   -1.2340 H       1  UNL1        0.0438
     29 H          -5.4213    0.9997   -0.0969 H       1  UNL1        0.0487
     30 H          -5.3158    1.6739    1.6215 H       1  UNL1        0.0487
     31 H          -6.6715   -0.4718    1.4138 H       1  UNL1        0.0575
     32 H          -5.2763   -1.2182    0.5932 H       1  UNL1        0.0575
     33 H          -3.6725   -1.7809    1.3959 H       1  UNL1        0.0575
     34 H          -3.2686   -1.7529    3.1809 H       1  UNL1        0.0575
     35 H          -3.1457    0.7757    3.0142 H       1  UNL1        0.0487
     36 H          -1.8659    0.0198    1.9611 H       1  UNL1        0.0487
     37 H          -4.2866    2.2020   -1.2104 H       1  UNL1        0.0706
     38 H          -0.3415    2.4964   -2.6917 H       1  UNL1        0.1700
     39 H           3.4615   -1.8380   -2.9720 H       1  UNL1        0.0472
     40 H           1.9280   -2.6516   -2.3817 H       1  UNL1        0.0472
     41 H           2.9400   -3.1109   -0.2204 H       1  UNL1        0.0330
     42 H           4.2770   -3.5698   -1.3998 H       1  UNL1        0.0330
     43 H           7.0927   -0.2448    1.0512 H       1  UNL1        0.0646
     44 H           5.7815    1.7742    0.5988 H       1  UNL1        0.0619
     45 H           3.6386    1.6178   -0.5309 H       1  UNL1        0.0636
@<TRIPOS>BOND
     1     1     2    2
     2     2     3    1
     3     3     4    1
     4     4     5   ar
     5     5     6   ar
     6     6     7    1
     7     7     8    1
     8     8     9    1
     9     9    10    1
    10    10    11    1
    11    11    12    1
    12     6    13   ar
    13    13    14   ar
    14    14    15    2
    15    14    16   ar
    16     2    17   am
    17    17    18    1
    18    18    19    1
    19    19    20    1
    20    20    21   ar
    21    21    22    1
    22    21    23   ar
    23    23    24   ar
    24    24    25   ar
    25    25    26   ar
    26    16     4   ar
    27    26    17    1
    28    12     7    1
    29    26    20   ar
    30     3    27    1
    31     3    28    1
    32     8    29    1
    33     8    30    1
    34     9    31    1
    35     9    32    1
    36    11    33    1
    37    11    34    1
    38    12    35    1
    39    12    36    1
    40    13    37    1
    41    16    38    1
    42    18    39    1
    43    18    40    1
    44    19    41    1
    45    19    42    1
    46    23    43    1
    47    24    44    1
    48    25    45    1
