@<TRIPOS>MOLECULE
*****
 39 43 0 0 0
SMALL
GASTEIGER

@<TRIPOS>ATOM
      1 N          -2.9415    4.1413    2.4786 N.1     1  UNL1       -0.1909
      2 C          -2.7669    3.1367    2.3560 C.1     1  UNL1        0.0992
      3 C          -2.4846    1.6475    2.1875 C.ar    1  UNL1        0.0538
      4 C          -3.1574    0.7842    3.0352 C.ar    1  UNL1       -0.0437
      5 C          -2.9501   -0.5853    2.8871 C.ar    1  UNL1       -0.0514
      6 C          -2.0830   -1.0139    1.8967 C.ar    1  UNL1       -0.0002
      7 C          -1.9211   -2.4003    1.7917 C.ar    1  UNL1       -0.0367
      8 C          -1.0685   -2.8325    0.8147 C.ar    1  UNL1        0.0829
      9 C          -0.8396   -4.1697    0.6069 C.ar    1  UNL1        0.2633
     10 O          -1.4056   -5.0093    1.3190 O.2     1  UNL1       -0.2670
     11 N           0.0156   -4.5269   -0.3952 N.ar    1  UNL1       -0.2729
     12 C           0.6347   -3.6205   -1.1797 C.ar    1  UNL1        0.3504
     13 O           1.4079   -3.9925   -2.0963 O.2     1  UNL1       -0.2446
     14 N           0.4417   -2.2880   -1.0143 N.ar    1  UNL1       -0.1745
     15 C          -0.3767   -1.8548   -0.0584 C.ar    1  UNL1        0.1563
     16 N          -0.5744   -0.5172    0.0893 N.ar    1  UNL1       -0.2933
     17 C           0.1197    0.4598   -0.6720 C.ar    1  UNL1        0.0506
     18 C          -0.5263    1.1614   -1.6451 C.ar    1  UNL1       -0.0376
     19 C           0.1044    2.1567   -2.3590 C.ar    1  UNL1       -0.0578
     20 C           1.4053    2.4201   -2.0585 C.ar    1  UNL1       -0.0360
     21 C           2.1005    1.7308   -1.0807 C.ar    1  UNL1        0.0707
     22 N           3.4433    2.0680   -0.8163 N.ar    1  UNL1       -0.2002
     23 C           4.5372    1.8077   -1.5794 C.ar    1  UNL1        0.1436
     24 N           5.6441    2.3172   -0.9558 N.ar    1  UNL1       -0.1165
     25 N           5.2050    2.8702    0.1575 N.ar    1  UNL1       -0.0230
     26 N           3.8925    2.7115    0.2200 N.ar    1  UNL1       -0.0392
     27 C           1.4518    0.7259   -0.3677 C.ar    1  UNL1       -0.0122
     28 C          -1.4193   -0.1265    1.0549 C.ar    1  UNL1        0.0569
     29 C          -1.6520    1.2543    1.2345 C.ar    1  UNL1       -0.0198
     30 H          -3.8089    1.2189    3.7681 H       1  UNL1        0.0631
     31 H          -3.4543   -1.2735    3.5215 H       1  UNL1        0.0624
     32 H          -2.4652   -3.0518    2.4529 H       1  UNL1        0.0633
     33 H           0.1728   -5.5517   -0.5319 H       1  UNL1        0.1735
     34 H          -1.5892    0.9339   -1.8720 H       1  UNL1        0.0638
     35 H          -0.4319    2.6792   -3.1077 H       1  UNL1        0.0619
     36 H           1.9324    3.1910   -2.5834 H       1  UNL1        0.0639
     37 H           4.5849    1.2947   -2.5295 H       1  UNL1        0.1067
     38 H           1.9449    0.1567    0.3904 H       1  UNL1        0.0659
     39 H          -1.1221    1.9468    0.5541 H       1  UNL1        0.0651
@<TRIPOS>BOND
     1     1     2    3
     2     2     3    1
     3     3     4   ar
     4     4     5   ar
     5     5     6   ar
     6     6     7   ar
     7     7     8   ar
     8     8     9   ar
     9     9    10    2
    10     9    11   ar
    11    11    12   ar
    12    12    13    2
    13    12    14   ar
    14    14    15   ar
    15    15    16   ar
    16    16    17    1
    17    17    18   ar
    18    18    19   ar
    19    19    20   ar
    20    20    21   ar
    21    21    22    1
    22    22    23   ar
    23    23    24   ar
    24    24    25   ar
    25    25    26   ar
    26    21    27   ar
    27    16    28   ar
    28    28    29   ar
    29    29     3   ar
    30    28     6   ar
    31    15     8    1
    32    27    17   ar
    33    26    22   ar
    34     4    30    1
    35     5    31    1
    36     7    32    1
    37    11    33    1
    38    18    34    1
    39    19    35    1
    40    20    36    1
    41    23    37    1
    42    27    38    1
    43    29    39    1
