
     RDKit          3D

 39 43  0  0  0  0  0  0  0  0999 V2000
   -2.9415    4.1413    2.4786 N   0  0  0  0  0  0  0  0  0  0  0  0
   -2.7669    3.1367    2.3560 C   0  0  0  0  0  0  0  0  0  0  0  0
   -2.4846    1.6475    2.1875 C   0  0  0  0  0  0  0  0  0  0  0  0
   -3.1574    0.7842    3.0352 C   0  0  0  0  0  0  0  0  0  0  0  0
   -2.9501   -0.5853    2.8871 C   0  0  0  0  0  0  0  0  0  0  0  0
   -2.0830   -1.0139    1.8967 C   0  0  0  0  0  0  0  0  0  0  0  0
   -1.9211   -2.4003    1.7917 C   0  0  0  0  0  0  0  0  0  0  0  0
   -1.0685   -2.8325    0.8147 C   0  0  0  0  0  0  0  0  0  0  0  0
   -0.8396   -4.1697    0.6069 C   0  0  0  0  0  0  0  0  0  0  0  0
   -1.4056   -5.0093    1.3190 O   0  0  0  0  0  0  0  0  0  0  0  0
    0.0156   -4.5269   -0.3952 N   0  0  0  0  0  0  0  0  0  0  0  0
    0.6347   -3.6205   -1.1797 C   0  0  0  0  0  0  0  0  0  0  0  0
    1.4079   -3.9925   -2.0963 O   0  0  0  0  0  0  0  0  0  0  0  0
    0.4417   -2.2880   -1.0143 N   0  0  0  0  0  0  0  0  0  0  0  0
   -0.3767   -1.8548   -0.0584 C   0  0  0  0  0  0  0  0  0  0  0  0
   -0.5744   -0.5172    0.0893 N   0  0  0  0  0  0  0  0  0  0  0  0
    0.1197    0.4598   -0.6720 C   0  0  0  0  0  0  0  0  0  0  0  0
   -0.5263    1.1614   -1.6451 C   0  0  0  0  0  0  0  0  0  0  0  0
    0.1044    2.1567   -2.3590 C   0  0  0  0  0  0  0  0  0  0  0  0
    1.4053    2.4201   -2.0585 C   0  0  0  0  0  0  0  0  0  0  0  0
    2.1005    1.7308   -1.0807 C   0  0  0  0  0  0  0  0  0  0  0  0
    3.4433    2.0680   -0.8163 N   0  0  0  0  0  0  0  0  0  0  0  0
    4.5372    1.8077   -1.5794 C   0  0  0  0  0  0  0  0  0  0  0  0
    5.6441    2.3172   -0.9558 N   0  0  0  0  0  0  0  0  0  0  0  0
    5.2050    2.8702    0.1575 N   0  0  0  0  0  0  0  0  0  0  0  0
    3.8925    2.7115    0.2200 N   0  0  0  0  0  0  0  0  0  0  0  0
    1.4518    0.7259   -0.3677 C   0  0  0  0  0  0  0  0  0  0  0  0
   -1.4193   -0.1265    1.0549 C   0  0  0  0  0  0  0  0  0  0  0  0
   -1.6520    1.2543    1.2345 C   0  0  0  0  0  0  0  0  0  0  0  0
   -3.8089    1.2189    3.7681 H   0  0  0  0  0  0  0  0  0  0  0  0
   -3.4543   -1.2735    3.5215 H   0  0  0  0  0  0  0  0  0  0  0  0
   -2.4652   -3.0518    2.4529 H   0  0  0  0  0  0  0  0  0  0  0  0
    0.1728   -5.5517   -0.5319 H   0  0  0  0  0  0  0  0  0  0  0  0
   -1.5892    0.9339   -1.8720 H   0  0  0  0  0  0  0  0  0  0  0  0
   -0.4319    2.6792   -3.1077 H   0  0  0  0  0  0  0  0  0  0  0  0
    1.9324    3.1910   -2.5834 H   0  0  0  0  0  0  0  0  0  0  0  0
    4.5849    1.2947   -2.5295 H   0  0  0  0  0  0  0  0  0  0  0  0
    1.9449    0.1567    0.3904 H   0  0  0  0  0  0  0  0  0  0  0  0
   -1.1221    1.9468    0.5541 H   0  0  0  0  0  0  0  0  0  0  0  0
  1  2  3  0
  2  3  1  0
  3  4  2  0
  4  5  1  0
  5  6  2  0
  6  7  1  0
  7  8  2  0
  8  9  1  0
  9 10  2  0
  9 11  1  0
 11 12  1  0
 12 13  2  0
 12 14  1  0
 14 15  2  0
 15 16  1  0
 16 17  1  0
 17 18  2  0
 18 19  1  0
 19 20  2  0
 20 21  1  0
 21 22  1  0
 22 23  1  0
 23 24  2  0
 24 25  1  0
 25 26  2  0
 21 27  2  0
 16 28  1  0
 28 29  2  0
 29  3  1  0
 28  6  1  0
 15  8  1  0
 27 17  1  0
 26 22  1  0
  4 30  1  0
  5 31  1  0
  7 32  1  0
 11 33  1  0
 18 34  1  0
 19 35  1  0
 20 36  1  0
 23 37  1  0
 27 38  1  0
 29 39  1  0
M  END
$$$$
