@<TRIPOS>MOLECULE
*****
 61 65 0 0 0
SMALL
GASTEIGER

@<TRIPOS>ATOM
      1 C          -9.5750    2.8718    0.4997 C.3     1  UNL1       -0.0135
      2 S          -8.4772    2.3681   -0.8701 S.3     1  UNL1       -0.1286
      3 C          -7.2032    1.2999   -0.1727 C.ar    1  UNL1        0.0076
      4 C          -6.0251    1.8377    0.2973 C.ar    1  UNL1       -0.0480
      5 C          -5.0618    0.9738    0.8311 C.ar    1  UNL1       -0.0560
      6 C          -5.3032   -0.3824    0.8776 C.ar    1  UNL1       -0.0296
      7 C          -4.2570   -1.2610    1.4493 C.3     1  UNL1        0.0452
      8 N          -3.3264   -1.7407    0.4763 N.am    1  UNL1       -0.2598
      9 C          -3.5310   -2.9536   -0.2598 C.2     1  UNL1        0.2915
     10 O          -4.5189   -3.7546   -0.1729 O.2     1  UNL1       -0.2661
     11 C          -2.3622   -3.0643   -1.1247 C.2     1  UNL1        0.2496
     12 O          -2.1145   -3.9763   -1.9479 O.2     1  UNL1       -0.2817
     13 C          -1.4798   -1.9158   -0.8902 C.ar    1  UNL1        0.0502
     14 C          -0.2560   -1.5366   -1.4383 C.ar    1  UNL1       -0.0226
     15 C           0.4009   -0.3889   -1.0518 C.ar    1  UNL1        0.1063
     16 S           1.9366    0.0941   -1.7345 S.O2    1  UNL1        0.0612
     17 O           2.0535   -0.3808   -3.1756 O.2     1  UNL1       -0.1528
     18 O           2.0616    1.5930   -1.7864 O.2     1  UNL1       -0.1528
     19 N           3.2715   -0.5242   -0.8819 N.3     1  UNL1       -0.1703
     20 C           3.3524   -1.9527   -0.8529 C.3     1  UNL1        0.0210
     21 C           2.8376   -2.3403    0.5163 C.3     1  UNL1       -0.0370
     22 C           2.7906   -1.0794    1.3324 C.3     1  UNL1       -0.0313
     23 C           3.4002   -0.0382    0.4547 C.3     1  UNL1        0.0659
     24 C           4.8594    0.2121    0.7706 C.3     1  UNL1        0.1068
     25 O           5.3849    1.1723   -0.1254 O.3     1  UNL1       -0.4888
     26 C           6.7332    1.5276    0.0228 C.ar    1  UNL1        0.1386
     27 C           7.3239    2.4562   -0.8095 C.ar    1  UNL1       -0.0170
     28 C           8.6562    2.8014   -0.6563 C.ar    1  UNL1       -0.0401
     29 C           9.4271    2.2180    0.3412 C.ar    1  UNL1        0.0278
     30 N           8.8332    1.3193    1.1374 N.ar    1  UNL1       -0.2596
     31 C           7.5348    0.9715    1.0013 C.ar    1  UNL1        0.0692
     32 C          -0.2108    0.3816   -0.0857 C.ar    1  UNL1       -0.0335
     33 C          -1.4220    0.0131    0.4616 C.ar    1  UNL1       -0.0377
     34 C          -2.0920   -1.1462    0.0753 C.ar    1  UNL1        0.0481
     35 C          -6.5046   -0.8882    0.3934 C.ar    1  UNL1       -0.0560
     36 C          -7.4417   -0.0497   -0.1256 C.ar    1  UNL1       -0.0480
     37 H          -9.0313    2.8188    1.4682 H       1  UNL1        0.0344
     38 H         -10.5086    2.2905    0.5134 H       1  UNL1        0.0344
     39 H          -9.8226    3.9358    0.3331 H       1  UNL1        0.0344
     40 H          -5.8273    2.9003    0.2647 H       1  UNL1        0.0629
     41 H          -4.1576    1.4433    1.1861 H       1  UNL1        0.0621
     42 H          -3.6688   -0.6968    2.2213 H       1  UNL1        0.0518
     43 H          -4.7370   -2.1058    2.0016 H       1  UNL1        0.0518
     44 H           0.2184   -2.1420   -2.1932 H       1  UNL1        0.0645
     45 H           2.8600   -2.4692   -1.6748 H       1  UNL1        0.0444
     46 H           4.4407   -2.2251   -0.8988 H       1  UNL1        0.0444
     47 H           3.5306   -3.0531    1.0047 H       1  UNL1        0.0279
     48 H           1.8254   -2.7837    0.4552 H       1  UNL1        0.0279
     49 H           3.4318   -1.1677    2.2436 H       1  UNL1        0.0282
     50 H           1.7538   -0.8378    1.6646 H       1  UNL1        0.0282
     51 H           2.8499    0.9345    0.5218 H       1  UNL1        0.0513
     52 H           5.3964   -0.7438    0.6652 H       1  UNL1        0.0713
     53 H           4.9803    0.5346    1.8320 H       1  UNL1        0.0713
     54 H           6.7191    2.9091   -1.5864 H       1  UNL1        0.0655
     55 H           9.1434    3.5386   -1.3094 H       1  UNL1        0.0634
     56 H          10.4665    2.4968    0.4496 H       1  UNL1        0.0829
     57 H           7.0710    0.2439    1.6530 H       1  UNL1        0.0867
     58 H           0.2787    1.2895    0.2403 H       1  UNL1        0.0638
     59 H          -1.9181    0.6088    1.2260 H       1  UNL1        0.0637
     60 H          -6.6164   -1.9620    0.4660 H       1  UNL1        0.0621
     61 H          -8.3731   -0.4949   -0.4949 H       1  UNL1        0.0629
@<TRIPOS>BOND
     1     1     2    1
     2     2     3    1
     3     3     4   ar
     4     4     5   ar
     5     5     6   ar
     6     6     7    1
     7     7     8    1
     8     8     9   am
     9     9    10    2
    10     9    11    1
    11    11    12    2
    12    11    13    1
    13    13    14   ar
    14    14    15   ar
    15    15    16    1
    16    16    17    2
    17    16    18    2
    18    16    19    1
    19    19    20    1
    20    20    21    1
    21    21    22    1
    22    22    23    1
    23    23    24    1
    24    24    25    1
    25    25    26    1
    26    26    27   ar
    27    27    28   ar
    28    28    29   ar
    29    29    30   ar
    30    30    31   ar
    31    15    32   ar
    32    32    33   ar
    33    33    34   ar
    34     6    35   ar
    35    35    36   ar
    36    36     3   ar
    37    34     8    1
    38    34    13   ar
    39    23    19    1
    40    31    26   ar
    41     1    37    1
    42     1    38    1
    43     1    39    1
    44     4    40    1
    45     5    41    1
    46     7    42    1
    47     7    43    1
    48    14    44    1
    49    20    45    1
    50    20    46    1
    51    21    47    1
    52    21    48    1
    53    22    49    1
    54    22    50    1
    55    23    51    1
    56    24    52    1
    57    24    53    1
    58    27    54    1
    59    28    55    1
    60    29    56    1
    61    31    57    1
    62    32    58    1
    63    33    59    1
    64    35    60    1
    65    36    61    1
