
     RDKit          3D

 55 58  0  0  0  0  0  0  0  0999 V2000
   -8.2987   -1.0912   -0.8943 C   0  0  0  0  0  0  0  0  0  0  0  0
   -7.2621   -1.0302    0.0595 O   0  0  0  0  0  0  0  0  0  0  0  0
   -6.0708   -0.4106   -0.2121 C   0  0  0  0  0  0  0  0  0  0  0  0
   -5.7856    0.1995   -1.4257 C   0  0  0  0  0  0  0  0  0  0  0  0
   -4.5598    0.8020   -1.6188 C   0  0  0  0  0  0  0  0  0  0  0  0
   -3.5816    0.8297   -0.6458 C   0  0  0  0  0  0  0  0  0  0  0  0
   -2.2770    1.4759   -0.8613 C   0  0  0  0  0  0  0  0  0  0  0  0
   -1.1251    0.8231   -0.4788 C   0  0  0  0  0  0  0  0  0  0  0  0
    0.0872    1.4121   -0.6751 C   0  0  0  0  0  0  0  0  0  0  0  0
    1.3626    0.8181   -0.3128 C   0  0  0  0  0  0  0  0  0  0  0  0
    1.5725   -0.5426   -0.3429 C   0  0  0  0  0  0  0  0  0  0  0  0
    2.7777   -1.1062   -0.0006 C   0  0  0  0  0  0  0  0  0  0  0  0
    3.8542   -0.3164    0.3971 C   0  0  0  0  0  0  0  0  0  0  0  0
    5.0929   -0.8888    0.7456 N   0  0  0  0  0  0  0  0  0  0  0  0
    5.2571   -2.3224    0.6153 C   0  0  0  0  0  0  0  0  0  0  0  0
    6.7457   -2.5936    0.6247 C   0  0  0  0  0  0  0  0  0  0  0  0
    7.4425   -1.6592   -0.2340 N   0  0  0  0  0  0  0  0  0  0  0  0
    7.3747   -0.2931    0.2415 C   0  0  0  0  0  0  0  0  0  0  0  0
    6.2024   -0.1308    1.2258 C   0  0  0  0  0  0  0  0  0  0  0  0
    3.6721    1.0309    0.4351 C   0  0  0  0  0  0  0  0  0  0  0  0
    2.4399    1.5816    0.0833 C   0  0  0  0  0  0  0  0  0  0  0  0
    0.1020    2.6677   -1.2634 C   0  0  0  0  0  0  0  0  0  0  0  0
   -1.0274    3.2984   -1.6340 N   0  0  0  0  0  0  0  0  0  0  0  0
   -2.2105    2.7251   -1.4431 C   0  0  0  0  0  0  0  0  0  0  0  0
   -3.4468    3.3554   -1.8196 N   0  0  0  0  0  0  0  0  0  0  0  0
   -3.8627    0.2220    0.5661 C   0  0  0  0  0  0  0  0  0  0  0  0
   -5.0913   -0.3885    0.7762 C   0  0  0  0  0  0  0  0  0  0  0  0
   -5.3696   -0.9973    1.9940 O   0  0  0  0  0  0  0  0  0  0  0  0
   -4.4089   -1.0032    3.0319 C   0  0  0  0  0  0  0  0  0  0  0  0
   -8.4147   -0.1552   -1.4763 H   0  0  0  0  0  0  0  0  0  0  0  0
   -8.0975   -1.9230   -1.6246 H   0  0  0  0  0  0  0  0  0  0  0  0
   -9.2804   -1.3416   -0.4266 H   0  0  0  0  0  0  0  0  0  0  0  0
   -6.5352    0.1872   -2.1937 H   0  0  0  0  0  0  0  0  0  0  0  0
   -4.3346    1.2778   -2.5635 H   0  0  0  0  0  0  0  0  0  0  0  0
   -1.1510   -0.1558   -0.0210 H   0  0  0  0  0  0  0  0  0  0  0  0
    0.7832   -1.2198   -0.6414 H   0  0  0  0  0  0  0  0  0  0  0  0
    2.9621   -2.1736   -0.0179 H   0  0  0  0  0  0  0  0  0  0  0  0
    4.9109   -2.6083   -0.4211 H   0  0  0  0  0  0  0  0  0  0  0  0
    4.7554   -2.9011    1.3893 H   0  0  0  0  0  0  0  0  0  0  0  0
    6.9098   -3.6020    0.2036 H   0  0  0  0  0  0  0  0  0  0  0  0
    7.1338   -2.4788    1.6502 H   0  0  0  0  0  0  0  0  0  0  0  0
    8.3873   -1.9683   -0.4877 H   0  0  0  0  0  0  0  0  0  0  0  0
    7.2204    0.4193   -0.5864 H   0  0  0  0  0  0  0  0  0  0  0  0
    8.2950   -0.0911    0.8204 H   0  0  0  0  0  0  0  0  0  0  0  0
    6.5667   -0.5125    2.2225 H   0  0  0  0  0  0  0  0  0  0  0  0
    6.0663    0.9370    1.3514 H   0  0  0  0  0  0  0  0  0  0  0  0
    4.4156    1.7621    0.7212 H   0  0  0  0  0  0  0  0  0  0  0  0
    2.2767    2.6646    0.1086 H   0  0  0  0  0  0  0  0  0  0  0  0
    1.0474    3.1684   -1.4361 H   0  0  0  0  0  0  0  0  0  0  0  0
   -4.1274    3.5858   -1.0406 H   0  0  0  0  0  0  0  0  0  0  0  0
   -3.6824    3.5837   -2.8058 H   0  0  0  0  0  0  0  0  0  0  0  0
   -3.1135    0.2264    1.3526 H   0  0  0  0  0  0  0  0  0  0  0  0
   -3.4016   -1.2791    2.6973 H   0  0  0  0  0  0  0  0  0  0  0  0
   -4.4504   -0.0639    3.6222 H   0  0  0  0  0  0  0  0  0  0  0  0
   -4.7478   -1.8056    3.7486 H   0  0  0  0  0  0  0  0  0  0  0  0
  1  2  1  0
  2  3  1  0
  3  4  2  0
  4  5  1  0
  5  6  2  0
  6  7  1  0
  7  8  2  0
  8  9  1  0
  9 10  1  0
 10 11  2  0
 11 12  1  0
 12 13  2  0
 13 14  1  0
 14 15  1  0
 15 16  1  0
 16 17  1  0
 17 18  1  0
 18 19  1  0
 13 20  1  0
 20 21  2  0
  9 22  2  0
 22 23  1  0
 23 24  2  0
 24 25  1  0
  6 26  1  0
 26 27  2  0
 27 28  1  0
 28 29  1  0
 27  3  1  0
 24  7  1  0
 21 10  1  0
 19 14  1  0
  1 30  1  0
  1 31  1  0
  1 32  1  0
  4 33  1  0
  5 34  1  0
  8 35  1  0
 11 36  1  0
 12 37  1  0
 15 38  1  0
 15 39  1  0
 16 40  1  0
 16 41  1  0
 17 42  1  0
 18 43  1  0
 18 44  1  0
 19 45  1  0
 19 46  1  0
 20 47  1  0
 21 48  1  0
 22 49  1  0
 25 50  1  0
 25 51  1  0
 26 52  1  0
 29 53  1  0
 29 54  1  0
 29 55  1  0
M  END
$$$$
