@<TRIPOS>MOLECULE
*****
 55 58 0 0 0
SMALL
GASTEIGER

@<TRIPOS>ATOM
      1 C          -8.2987   -1.0912   -0.8943 C.3     1  UNL1        0.0790
      2 O          -7.2621   -1.0302    0.0595 O.3     1  UNL1       -0.4915
      3 C          -6.0708   -0.4106   -0.2121 C.ar    1  UNL1        0.1615
      4 C          -5.7856    0.1995   -1.4257 C.ar    1  UNL1       -0.0157
      5 C          -4.5598    0.8020   -1.6188 C.ar    1  UNL1       -0.0502
      6 C          -3.5816    0.8297   -0.6458 C.ar    1  UNL1       -0.0109
      7 C          -2.2770    1.4759   -0.8613 C.ar    1  UNL1        0.0223
      8 C          -1.1251    0.8231   -0.4788 C.ar    1  UNL1       -0.0416
      9 C           0.0872    1.4121   -0.6751 C.ar    1  UNL1        0.0009
     10 C           1.3626    0.8181   -0.3128 C.ar    1  UNL1       -0.0163
     11 C           1.5725   -0.5426   -0.3429 C.ar    1  UNL1       -0.0522
     12 C           2.7777   -1.1062   -0.0006 C.ar    1  UNL1       -0.0401
     13 C           3.8542   -0.3164    0.3971 C.ar    1  UNL1        0.0298
     14 N           5.0929   -0.8888    0.7456 N.pl3   1  UNL1       -0.3275
     15 C           5.2571   -2.3224    0.6153 C.3     1  UNL1        0.0248
     16 C           6.7457   -2.5936    0.6247 C.3     1  UNL1        0.0117
     17 N           7.4425   -1.6592   -0.2340 N.3     1  UNL1       -0.3130
     18 C           7.3747   -0.2931    0.2415 C.3     1  UNL1        0.0117
     19 C           6.2024   -0.1308    1.2258 C.3     1  UNL1        0.0248
     20 C           3.6721    1.0309    0.4351 C.ar    1  UNL1       -0.0401
     21 C           2.4399    1.5816    0.0833 C.ar    1  UNL1       -0.0522
     22 C           0.1020    2.6677   -1.2634 C.ar    1  UNL1        0.0374
     23 N          -1.0274    3.2984   -1.6340 N.ar    1  UNL1       -0.2395
     24 C          -2.2105    2.7251   -1.4431 C.ar    1  UNL1        0.1239
     25 N          -3.4468    3.3554   -1.8196 N.pl3   1  UNL1       -0.3427
     26 C          -3.8627    0.2220    0.5661 C.ar    1  UNL1       -0.0085
     27 C          -5.0913   -0.3885    0.7762 C.ar    1  UNL1        0.1621
     28 O          -5.3696   -0.9973    1.9940 O.3     1  UNL1       -0.4914
     29 C          -4.4089   -1.0032    3.0319 C.3     1  UNL1        0.0790
     30 H          -8.4147   -0.1552   -1.4763 H       1  UNL1        0.0660
     31 H          -8.0975   -1.9230   -1.6246 H       1  UNL1        0.0660
     32 H          -9.2804   -1.3416   -0.4266 H       1  UNL1        0.0660
     33 H          -6.5352    0.1872   -2.1937 H       1  UNL1        0.0655
     34 H          -4.3346    1.2778   -2.5635 H       1  UNL1        0.0625
     35 H          -1.1510   -0.1558   -0.0210 H       1  UNL1        0.0631
     36 H           0.7832   -1.2198   -0.6414 H       1  UNL1        0.0624
     37 H           2.9621   -2.1736   -0.0179 H       1  UNL1        0.0636
     38 H           4.9109   -2.6083   -0.4211 H       1  UNL1        0.0476
     39 H           4.7554   -2.9011    1.3893 H       1  UNL1        0.0476
     40 H           6.9098   -3.6020    0.2036 H       1  UNL1        0.0439
     41 H           7.1338   -2.4788    1.6502 H       1  UNL1        0.0439
     42 H           8.3873   -1.9683   -0.4877 H       1  UNL1        0.1220
     43 H           7.2204    0.4193   -0.5864 H       1  UNL1        0.0439
     44 H           8.2950   -0.0911    0.8204 H       1  UNL1        0.0439
     45 H           6.5667   -0.5125    2.2225 H       1  UNL1        0.0476
     46 H           6.0663    0.9370    1.3514 H       1  UNL1        0.0476
     47 H           4.4156    1.7621    0.7212 H       1  UNL1        0.0636
     48 H           2.2767    2.6646    0.1086 H       1  UNL1        0.0624
     49 H           1.0474    3.1684   -1.4361 H       1  UNL1        0.0836
     50 H          -4.1274    3.5858   -1.0406 H       1  UNL1        0.1437
     51 H          -3.6824    3.5837   -2.8058 H       1  UNL1        0.1437
     52 H          -3.1135    0.2264    1.3526 H       1  UNL1        0.0661
     53 H          -3.4016   -1.2791    2.6973 H       1  UNL1        0.0660
     54 H          -4.4504   -0.0639    3.6222 H       1  UNL1        0.0660
     55 H          -4.7478   -1.8056    3.7486 H       1  UNL1        0.0660
@<TRIPOS>BOND
     1     1     2    1
     2     2     3    1
     3     3     4   ar
     4     4     5   ar
     5     5     6   ar
     6     6     7    1
     7     7     8   ar
     8     8     9   ar
     9     9    10    1
    10    10    11   ar
    11    11    12   ar
    12    12    13   ar
    13    13    14    1
    14    14    15    1
    15    15    16    1
    16    16    17    1
    17    17    18    1
    18    18    19    1
    19    13    20   ar
    20    20    21   ar
    21     9    22   ar
    22    22    23   ar
    23    23    24   ar
    24    24    25    1
    25     6    26   ar
    26    26    27   ar
    27    27    28    1
    28    28    29    1
    29    27     3   ar
    30    24     7   ar
    31    21    10   ar
    32    19    14    1
    33     1    30    1
    34     1    31    1
    35     1    32    1
    36     4    33    1
    37     5    34    1
    38     8    35    1
    39    11    36    1
    40    12    37    1
    41    15    38    1
    42    15    39    1
    43    16    40    1
    44    16    41    1
    45    17    42    1
    46    18    43    1
    47    18    44    1
    48    19    45    1
    49    19    46    1
    50    20    47    1
    51    21    48    1
    52    22    49    1
    53    25    50    1
    54    25    51    1
    55    26    52    1
    56    29    53    1
    57    29    54    1
    58    29    55    1
