
     RDKit          3D

 54 53  0  0  0  0  0  0  0  0999 V2000
    4.5433    2.4493    1.6523 C   0  0  0  0  0  0  0  0  0  0  0  0
    5.0067    1.0256    1.6698 C   0  0  0  0  0  0  0  0  0  0  0  0
    4.3766    0.2773    0.4491 C   0  0  0  0  0  0  0  0  0  0  0  0
    2.9247    0.3851    0.6444 C   0  0  0  0  0  0  0  0  0  0  0  0
    1.9584   -0.1515   -0.3018 C   0  0  0  0  0  0  0  0  0  0  0  0
    1.9065   -1.5843   -0.5506 C   0  0  0  0  0  0  0  0  0  0  0  0
    2.9929   -2.3330   -1.0536 N   0  0  0  0  0  0  0  0  0  0  0  0
    3.2393   -2.4693   -2.4070 O   0  0  0  0  0  0  0  0  0  0  0  0
    3.9027   -2.9944   -0.2029 C   0  0  0  0  0  0  0  0  0  0  0  0
    4.8804   -3.6694   -0.6083 O   0  0  0  0  0  0  0  0  0  0  0  0
    0.5752    0.2383    0.2380 C   0  0  0  0  0  0  0  0  0  0  0  0
    0.4637    0.8301    1.3316 O   0  0  0  0  0  0  0  0  0  0  0  0
   -0.5953   -0.0626   -0.4892 N   0  0  0  0  0  0  0  0  0  0  0  0
   -1.9401    0.3147    0.0361 C   0  0  2  0  0  0  0  0  0  0  0  0
   -2.7500   -0.9190    0.0910 C   0  0  0  0  0  0  0  0  0  0  0  0
   -2.3225   -1.8718   -0.6684 O   0  0  0  0  0  0  0  0  0  0  0  0
   -3.8875   -1.1805    0.8448 N   0  0  0  0  0  0  0  0  0  0  0  0
   -4.4641   -0.2783    1.7998 C   0  0  0  0  0  0  0  0  0  0  0  0
   -4.5843   -2.4635    0.6832 C   0  0  0  0  0  0  0  0  0  0  0  0
   -2.5594    1.2224   -1.0303 C   0  0  0  0  0  0  0  0  0  0  0  0
   -1.6637    2.4486   -1.2347 C   0  0  0  0  0  0  0  0  0  0  0  0
   -3.9070    1.7522   -0.6496 C   0  0  0  0  0  0  0  0  0  0  0  0
   -2.7181    0.4963   -2.3479 C   0  0  0  0  0  0  0  0  0  0  0  0
    4.3268    2.8047    0.6029 H   0  0  0  0  0  0  0  0  0  0  0  0
    3.6791    2.6406    2.3185 H   0  0  0  0  0  0  0  0  0  0  0  0
    5.3834    3.0859    2.0267 H   0  0  0  0  0  0  0  0  0  0  0  0
    4.5818    0.5203    2.5589 H   0  0  0  0  0  0  0  0  0  0  0  0
    6.0863    0.8881    1.6756 H   0  0  0  0  0  0  0  0  0  0  0  0
    4.7652    0.8360   -0.4367 H   0  0  0  0  0  0  0  0  0  0  0  0
    4.8547   -0.6876    0.4884 H   0  0  0  0  0  0  0  0  0  0  0  0
    2.7183   -0.0735    1.6843 H   0  0  0  0  0  0  0  0  0  0  0  0
    2.7107    1.5017    0.7988 H   0  0  0  0  0  0  0  0  0  0  0  0
    2.0207    0.3888   -1.3182 H   0  0  0  0  0  0  0  0  0  0  0  0
    0.9810   -1.8393   -1.1910 H   0  0  0  0  0  0  0  0  0  0  0  0
    1.6411   -2.0710    0.4709 H   0  0  0  0  0  0  0  0  0  0  0  0
    3.2970   -3.4491   -2.5602 H   0  0  0  0  0  0  0  0  0  0  0  0
    3.7737   -2.9334    0.8900 H   0  0  0  0  0  0  0  0  0  0  0  0
   -0.5220   -0.5442   -1.3949 H   0  0  0  0  0  0  0  0  0  0  0  0
   -1.8963    0.8120    0.9882 H   0  0  0  0  0  0  0  0  0  0  0  0
   -5.3375    0.2126    1.3467 H   0  0  0  0  0  0  0  0  0  0  0  0
   -3.7365    0.5236    2.0851 H   0  0  0  0  0  0  0  0  0  0  0  0
   -4.7845   -0.8432    2.7200 H   0  0  0  0  0  0  0  0  0  0  0  0
   -4.8369   -2.8669    1.6776 H   0  0  0  0  0  0  0  0  0  0  0  0
   -5.5323   -2.2146    0.1640 H   0  0  0  0  0  0  0  0  0  0  0  0
   -3.9879   -3.1668    0.0795 H   0  0  0  0  0  0  0  0  0  0  0  0
   -1.8651    2.9225   -2.2139 H   0  0  0  0  0  0  0  0  0  0  0  0
   -1.8252    3.2092   -0.4555 H   0  0  0  0  0  0  0  0  0  0  0  0
   -0.6000    2.0997   -1.2706 H   0  0  0  0  0  0  0  0  0  0  0  0
   -4.7090    0.9939   -0.7652 H   0  0  0  0  0  0  0  0  0  0  0  0
   -4.1607    2.6630   -1.2893 H   0  0  0  0  0  0  0  0  0  0  0  0
   -3.9472    2.1357    0.3837 H   0  0  0  0  0  0  0  0  0  0  0  0
   -1.7800    0.1963   -2.8126 H   0  0  0  0  0  0  0  0  0  0  0  0
   -3.3106    1.1907   -3.0014 H   0  0  0  0  0  0  0  0  0  0  0  0
   -3.3665   -0.3981   -2.1455 H   0  0  0  0  0  0  0  0  0  0  0  0
  1  2  1  0
  2  3  1  0
  3  4  1  0
  4  5  1  0
  5  6  1  0
  6  7  1  0
  7  8  1  0
  7  9  1  0
  9 10  2  0
  5 11  1  0
 11 12  2  0
 11 13  1  0
 13 14  1  0
 14 15  1  0
 15 16  2  0
 15 17  1  0
 17 18  1  0
 17 19  1  0
 14 20  1  0
 20 21  1  0
 20 22  1  0
 20 23  1  0
  1 24  1  0
  1 25  1  0
  1 26  1  0
  2 27  1  0
  2 28  1  0
  3 29  1  0
  3 30  1  0
  4 31  1  0
  4 32  1  0
  5 33  1  0
  6 34  1  0
  6 35  1  0
  8 36  1  0
  9 37  1  0
 13 38  1  0
 14 39  1  1
 18 40  1  0
 18 41  1  0
 18 42  1  0
 19 43  1  0
 19 44  1  0
 19 45  1  0
 21 46  1  0
 21 47  1  0
 21 48  1  0
 22 49  1  0
 22 50  1  0
 22 51  1  0
 23 52  1  0
 23 53  1  0
 23 54  1  0
M  END
$$$$
