@<TRIPOS>MOLECULE
*****
 54 53 0 0 0
SMALL
GASTEIGER

@<TRIPOS>ATOM
      1 C           4.5433    2.4493    1.6523 C.3     1  UNL1       -0.0653
      2 C           5.0067    1.0256    1.6698 C.3     1  UNL1       -0.0559
      3 C           4.3766    0.2773    0.4491 C.3     1  UNL1       -0.0526
      4 C           2.9247    0.3851    0.6444 C.3     1  UNL1       -0.0404
      5 C           1.9584   -0.1515   -0.3018 C.3     1  UNL1        0.0536
      6 C           1.9065   -1.5843   -0.5506 C.3     1  UNL1        0.0525
      7 N           2.9929   -2.3330   -1.0536 N.am    1  UNL1       -0.1857
      8 O           3.2393   -2.4693   -2.4070 O.3     1  UNL1       -0.2927
      9 C           3.9027   -2.9944   -0.2029 C.2     1  UNL1        0.2250
     10 O           4.8804   -3.6694   -0.6083 O.2     1  UNL1       -0.2772
     11 C           0.5752    0.2383    0.2380 C.2     1  UNL1        0.2183
     12 O           0.4637    0.8301    1.3316 O.2     1  UNL1       -0.2754
     13 N          -0.5953   -0.0626   -0.4892 N.am    1  UNL1       -0.3032
     14 C          -1.9401    0.3147    0.0361 C.3     1  UNL1        0.1044
     15 C          -2.7500   -0.9190    0.0910 C.2     1  UNL1        0.2359
     16 O          -2.3225   -1.8718   -0.6684 O.2     1  UNL1       -0.2736
     17 N          -3.8875   -1.1805    0.8448 N.am    1  UNL1       -0.3061
     18 C          -4.4641   -0.2783    1.7998 C.3     1  UNL1        0.0029
     19 C          -4.5843   -2.4635    0.6832 C.3     1  UNL1        0.0029
     20 C          -2.5594    1.2224   -1.0303 C.3     1  UNL1       -0.0108
     21 C          -1.6637    2.4486   -1.2347 C.3     1  UNL1       -0.0579
     22 C          -3.9070    1.7522   -0.6496 C.3     1  UNL1       -0.0579
     23 C          -2.7181    0.4963   -2.3479 C.3     1  UNL1       -0.0579
     24 H           4.3268    2.8047    0.6029 H       1  UNL1        0.0230
     25 H           3.6791    2.6406    2.3185 H       1  UNL1        0.0230
     26 H           5.3834    3.0859    2.0267 H       1  UNL1        0.0230
     27 H           4.5818    0.5203    2.5589 H       1  UNL1        0.0263
     28 H           6.0863    0.8881    1.6756 H       1  UNL1        0.0263
     29 H           4.7652    0.8360   -0.4367 H       1  UNL1        0.0265
     30 H           4.8547   -0.6876    0.4884 H       1  UNL1        0.0265
     31 H           2.7183   -0.0735    1.6843 H       1  UNL1        0.0273
     32 H           2.7107    1.5017    0.7988 H       1  UNL1        0.0273
     33 H           2.0207    0.3888   -1.3182 H       1  UNL1        0.0410
     34 H           0.9810   -1.8393   -1.1910 H       1  UNL1        0.0496
     35 H           1.6411   -2.0710    0.4709 H       1  UNL1        0.0496
     36 H           3.2970   -3.4491   -2.5602 H       1  UNL1        0.2416
     37 H           3.7737   -2.9334    0.8900 H       1  UNL1        0.1274
     38 H          -0.5220   -0.5442   -1.3949 H       1  UNL1        0.1495
     39 H          -1.8963    0.8120    0.9882 H       1  UNL1        0.0600
     40 H          -5.3375    0.2126    1.3467 H       1  UNL1        0.0428
     41 H          -3.7365    0.5236    2.0851 H       1  UNL1        0.0428
     42 H          -4.7845   -0.8432    2.7200 H       1  UNL1        0.0428
     43 H          -4.8369   -2.8669    1.6776 H       1  UNL1        0.0428
     44 H          -5.5323   -2.2146    0.1640 H       1  UNL1        0.0428
     45 H          -3.9879   -3.1668    0.0795 H       1  UNL1        0.0428
     46 H          -1.8651    2.9225   -2.2139 H       1  UNL1        0.0236
     47 H          -1.8252    3.2092   -0.4555 H       1  UNL1        0.0236
     48 H          -0.6000    2.0997   -1.2706 H       1  UNL1        0.0236
     49 H          -4.7090    0.9939   -0.7652 H       1  UNL1        0.0236
     50 H          -4.1607    2.6630   -1.2893 H       1  UNL1        0.0236
     51 H          -3.9472    2.1357    0.3837 H       1  UNL1        0.0236
     52 H          -1.7800    0.1963   -2.8126 H       1  UNL1        0.0236
     53 H          -3.3106    1.1907   -3.0014 H       1  UNL1        0.0236
     54 H          -3.3665   -0.3981   -2.1455 H       1  UNL1        0.0236
@<TRIPOS>BOND
     1     1     2    1
     2     2     3    1
     3     3     4    1
     4     4     5    1
     5     5     6    1
     6     6     7    1
     7     7     8    1
     8     7     9   am
     9     9    10    2
    10     5    11    1
    11    11    12    2
    12    11    13   am
    13    13    14    1
    14    14    15    1
    15    15    16    2
    16    15    17   am
    17    17    18    1
    18    17    19    1
    19    14    20    1
    20    20    21    1
    21    20    22    1
    22    20    23    1
    23     1    24    1
    24     1    25    1
    25     1    26    1
    26     2    27    1
    27     2    28    1
    28     3    29    1
    29     3    30    1
    30     4    31    1
    31     4    32    1
    32     5    33    1
    33     6    34    1
    34     6    35    1
    35     8    36    1
    36     9    37    1
    37    13    38    1
    38    14    39    1
    39    18    40    1
    40    18    41    1
    41    18    42    1
    42    19    43    1
    43    19    44    1
    44    19    45    1
    45    21    46    1
    46    21    47    1
    47    21    48    1
    48    22    49    1
    49    22    50    1
    50    22    51    1
    51    23    52    1
    52    23    53    1
    53    23    54    1
