@<TRIPOS>MOLECULE
*****
 54 57 0 0 0
SMALL
GASTEIGER

@<TRIPOS>ATOM
      1 C          -0.7448   -0.9512    0.3495 C.3     1  UNL1       -0.0292
      2 C          -1.6845   -2.0838    0.1155 C.3     1  UNL1       -0.0463
      3 C          -2.9057   -1.5439    0.8781 C.3     1  UNL1       -0.0162
      4 C          -2.8406   -0.0250    0.6569 C.3     1  UNL1        0.1315
      5 O          -2.8057    0.6474    1.8727 O.3     1  UNL1       -0.3804
      6 C          -3.9992    0.4384   -0.1081 C.2     1  UNL1        0.1902
      7 O          -4.5193    1.2769    0.6424 O.2     1  UNL1       -0.2919
      8 C          -5.1767    0.9221   -0.8635 C.3     1  UNL1        0.1052
      9 O          -5.8945    1.8827   -0.1757 O.3     1  UNL1       -0.3874
     10 C          -1.5494    0.2391   -0.0624 C.3     1  UNL1        0.0091
     11 C          -1.8436    0.3587   -1.5138 C.3     1  UNL1       -0.0562
     12 C          -0.8252    1.4557    0.4542 C.3     1  UNL1       -0.0178
     13 C           0.6021    1.4922    0.0227 C.3     1  UNL1        0.0600
     14 O           0.7282    2.0216   -1.2710 O.3     1  UNL1       -0.3914
     15 C           1.3376    0.2145    0.1860 C.3     1  UNL1        0.0007
     16 C           0.5459   -0.9619   -0.3654 C.3     1  UNL1       -0.0311
     17 C           1.3087   -2.2523   -0.2356 C.3     1  UNL1       -0.0458
     18 C           2.7468   -2.1233   -0.6566 C.3     1  UNL1       -0.0302
     19 C           3.4407   -1.0015   -0.0193 C.2     1  UNL1       -0.0559
     20 C           4.5311   -1.2234    0.6961 C.2     1  UNL1       -0.0149
     21 C           5.1190   -0.0206    1.2725 C.2     1  UNL1        0.1787
     22 O           6.1591   -0.1454    1.9674 O.2     1  UNL1       -0.2879
     23 C           4.5495    1.3063    1.0734 C.2     1  UNL1       -0.0180
     24 C           3.4553    1.3683    0.3324 C.2     1  UNL1       -0.0701
     25 C           2.7332    0.2630   -0.3215 C.3     1  UNL1        0.0131
     26 C           2.8218    0.4853   -1.8133 C.3     1  UNL1       -0.0520
     27 H          -0.5547   -0.8777    1.4374 H       1  UNL1        0.0310
     28 H          -1.3321   -2.9754    0.6831 H       1  UNL1        0.0269
     29 H          -1.9139   -2.2900   -0.9314 H       1  UNL1        0.0269
     30 H          -3.8457   -1.9791    0.5217 H       1  UNL1        0.0297
     31 H          -2.7503   -1.7133    1.9634 H       1  UNL1        0.0297
     32 H          -2.9261    1.6083    1.6672 H       1  UNL1        0.2108
     33 H          -4.8058    1.3726   -1.8060 H       1  UNL1        0.0637
     34 H          -5.8427    0.0934   -1.1830 H       1  UNL1        0.0637
     35 H          -6.8710    1.7732   -0.1984 H       1  UNL1        0.2100
     36 H          -2.4569   -0.4444   -1.9159 H       1  UNL1        0.0236
     37 H          -0.9680    0.4985   -2.1766 H       1  UNL1        0.0236
     38 H          -2.4235    1.3223   -1.6335 H       1  UNL1        0.0236
     39 H          -1.3186    2.3926    0.1283 H       1  UNL1        0.0297
     40 H          -0.8959    1.4457    1.5790 H       1  UNL1        0.0297
     41 H           1.1006    2.2553    0.6917 H       1  UNL1        0.0596
     42 H           0.7828    2.9953   -1.2821 H       1  UNL1        0.2098
     43 H           1.4141    0.0084    1.2896 H       1  UNL1        0.0340
     44 H           0.4154   -0.7875   -1.4497 H       1  UNL1        0.0308
     45 H           0.8352   -3.0586   -0.8163 H       1  UNL1        0.0271
     46 H           1.2974   -2.5461    0.8339 H       1  UNL1        0.0271
     47 H           3.2489   -3.0934   -0.5167 H       1  UNL1        0.0310
     48 H           2.7437   -1.9330   -1.7654 H       1  UNL1        0.0310
     49 H           4.9055   -2.2309    0.8076 H       1  UNL1        0.0655
     50 H           5.0078    2.1809    1.5135 H       1  UNL1        0.0653
     51 H           3.0715    2.3927    0.2152 H       1  UNL1        0.0582
     52 H           2.8720    1.5631   -2.0797 H       1  UNL1        0.0241
     53 H           2.0923   -0.1004   -2.3795 H       1  UNL1        0.0241
     54 H           3.8284    0.0877   -2.1380 H       1  UNL1        0.0241
@<TRIPOS>BOND
     1     1     2    1
     2     2     3    1
     3     3     4    1
     4     4     5    1
     5     4     6    1
     6     6     7    2
     7     6     8    1
     8     8     9    1
     9     4    10    1
    10    10    11    1
    11    10    12    1
    12    12    13    1
    13    13    14    1
    14    13    15    1
    15    15    16    1
    16    16    17    1
    17    17    18    1
    18    18    19    1
    19    19    20    2
    20    20    21    1
    21    21    22    2
    22    21    23    1
    23    23    24    2
    24    24    25    1
    25    25    26    1
    26    10     1    1
    27    25    15    1
    28    16     1    1
    29    25    19    1
    30     1    27    1
    31     2    28    1
    32     2    29    1
    33     3    30    1
    34     3    31    1
    35     5    32    1
    36     8    33    1
    37     8    34    1
    38     9    35    1
    39    11    36    1
    40    11    37    1
    41    11    38    1
    42    12    39    1
    43    12    40    1
    44    13    41    1
    45    14    42    1
    46    15    43    1
    47    16    44    1
    48    17    45    1
    49    17    46    1
    50    18    47    1
    51    18    48    1
    52    20    49    1
    53    23    50    1
    54    24    51    1
    55    26    52    1
    56    26    53    1
    57    26    54    1
