@<TRIPOS>MOLECULE
*****
 26 27 0 0 0
SMALL
GASTEIGER

@<TRIPOS>ATOM
      1 C          -2.1903    0.3356   -0.6968 C.3     1  UNL1       -0.0379
      2 C          -1.0568   -0.3370   -0.0002 C.3     1  UNL1        0.1130
      3 C          -1.4549   -1.5733    0.7472 C.3     1  UNL1       -0.0379
      4 C          -0.2909    0.6454    0.8109 C.3     1  UNL1        0.1488
      5 C          -0.3818    2.0224    0.2648 C.2     1  UNL1        0.3277
      6 O          -1.4615    2.6588    0.1597 O.2     1  UNL1       -0.2488
      7 O           0.7606    2.6978   -0.1715 O.3     1  UNL1       -0.4793
      8 N           1.0919    0.2499    0.8170 N.am    1  UNL1       -0.2633
      9 C           2.3880   -0.0672    1.2887 C.2     1  UNL1        0.2211
     10 O           3.0964    0.2997    2.2464 O.2     1  UNL1       -0.2754
     11 C           2.5038   -1.0184    0.1349 C.3     1  UNL1        0.0629
     12 C           1.5709   -0.0409   -0.5167 C.3     1  UNL1        0.1535
     13 S           0.1510   -0.8249   -1.2414 S.O2    1  UNL1       -0.0042
     14 O          -0.1911   -0.2787   -2.5754 O.2     1  UNL1       -0.1720
     15 O           0.3322   -2.3144   -1.2542 O.2     1  UNL1       -0.1720
     16 H          -2.7889   -0.4532   -1.2311 H       1  UNL1        0.0251
     17 H          -1.8551    1.0363   -1.4612 H       1  UNL1        0.0251
     18 H          -2.8801    0.8183    0.0377 H       1  UNL1        0.0251
     19 H          -1.2888   -1.4317    1.8421 H       1  UNL1        0.0251
     20 H          -2.5612   -1.7098    0.5698 H       1  UNL1        0.0251
     21 H          -0.9767   -2.4999    0.3678 H       1  UNL1        0.0251
     22 H          -0.7017    0.6562    1.8249 H       1  UNL1        0.0639
     23 H           0.6406    3.3656   -0.9211 H       1  UNL1        0.2951
     24 H           3.5060   -1.0423   -0.3303 H       1  UNL1        0.0393
     25 H           2.0312   -1.9736    0.3631 H       1  UNL1        0.0393
     26 H           2.0073    0.7794   -1.0752 H       1  UNL1        0.0750
@<TRIPOS>BOND
     1     1     2    1
     2     2     3    1
     3     2     4    1
     4     4     5    1
     5     5     6    2
     6     5     7    1
     7     4     8    1
     8     8     9   am
     9     9    10    2
    10     9    11    1
    11    11    12    1
    12    12    13    1
    13    13    14    2
    14    13    15    2
    15    13     2    1
    16    12     8    1
    17     1    16    1
    18     1    17    1
    19     1    18    1
    20     3    19    1
    21     3    20    1
    22     3    21    1
    23     4    22    1
    24     7    23    1
    25    11    24    1
    26    11    25    1
    27    12    26    1
