@<TRIPOS>MOLECULE
*****
 73 77 0 0 0
SMALL
GASTEIGER

@<TRIPOS>ATOM
      1 C         -11.9006   -0.3641    0.5232 C.3     1  UNL1        0.0820
      2 O         -10.5147   -0.3359    0.7170 O.3     1  UNL1       -0.4644
      3 C          -9.5554   -0.3069   -0.2779 C.2     1  UNL1        0.3390
      4 O          -9.9425   -0.3058   -1.4681 O.2     1  UNL1       -0.2450
      5 C          -8.1401   -0.2792    0.0683 C.ar    1  UNL1        0.0608
      6 C          -7.1641   -0.2489   -0.9344 C.ar    1  UNL1       -0.0471
      7 C          -5.8439   -0.2201   -0.5506 C.ar    1  UNL1       -0.0513
      8 C          -5.4664   -0.2192    0.7564 C.ar    1  UNL1        0.0102
      9 C          -6.4429   -0.2509    1.7201 C.ar    1  UNL1        0.0424
     10 N          -5.8775   -0.2660    3.0189 N.am    1  UNL1       -0.2809
     11 C          -4.4701   -0.2404    2.8627 C.2     1  UNL1        0.2507
     12 O          -3.6394   -0.2444    3.7786 O.2     1  UNL1       -0.2698
     13 C          -4.1991   -0.2085    1.4402 C.2     1  UNL1        0.0676
     14 C          -3.0750   -0.1169    0.7837 C.2     1  UNL1        0.0514
     15 N          -1.8746   -0.1253    1.5439 N.pl3   1  UNL1       -0.3134
     16 C          -0.5268   -0.4958    1.3679 C.ar    1  UNL1        0.0315
     17 C           0.0664   -1.6963    1.6300 C.ar    1  UNL1       -0.0388
     18 C           1.4100   -1.8640    1.3883 C.ar    1  UNL1       -0.0385
     19 C           2.2155   -0.8725    0.8851 C.ar    1  UNL1        0.0361
     20 C           1.6530    0.3545    0.6070 C.ar    1  UNL1       -0.0385
     21 C           0.2843    0.5129    0.8580 C.ar    1  UNL1       -0.0388
     22 N           3.6192   -1.1263    0.6631 N.am    1  UNL1       -0.2734
     23 C           4.1505   -2.4353    0.9650 C.3     1  UNL1        0.0083
     24 C           4.4689   -0.1258    0.1629 C.2     1  UNL1        0.2336
     25 O           5.6853   -0.3902   -0.0073 O.2     1  UNL1       -0.2739
     26 C           4.8281    1.1939   -0.3370 C.3     1  UNL1        0.0763
     27 N           6.1701    1.4068   -0.7040 N.3     1  UNL1       -0.2916
     28 C           6.5971    0.7215   -1.8555 C.3     1  UNL1        0.0122
     29 C           7.9957    0.1518   -1.8111 C.3     1  UNL1        0.0114
     30 N           8.9010    0.8433   -0.9577 N.3     1  UNL1       -0.3029
     31 C           9.5136    0.0325    0.0510 C.3     1  UNL1       -0.0127
     32 C           8.4090    2.1074   -0.4429 C.3     1  UNL1        0.0114
     33 C           7.1130    1.7348    0.2945 C.3     1  UNL1        0.0122
     34 C          -2.7483    0.1144   -0.5994 C.ar    1  UNL1       -0.0031
     35 C          -3.0271    1.1676   -1.4794 C.ar    1  UNL1       -0.0528
     36 C          -2.6105    1.1539   -2.7863 C.ar    1  UNL1       -0.0611
     37 C          -1.8944    0.0979   -3.2969 C.ar    1  UNL1       -0.0617
     38 C          -1.5796   -0.9732   -2.5006 C.ar    1  UNL1       -0.0611
     39 C          -2.0156   -0.9348   -1.1733 C.ar    1  UNL1       -0.0528
     40 C          -7.7616   -0.2800    1.3928 C.ar    1  UNL1       -0.0259
     41 H         -12.4075    0.3304    1.2363 H       1  UNL1        0.0661
     42 H         -12.3420   -1.3732    0.6427 H       1  UNL1        0.0661
     43 H         -12.1634   -0.0320   -0.5108 H       1  UNL1        0.0661
     44 H          -7.5670   -0.2519   -1.9575 H       1  UNL1        0.0626
     45 H          -5.2338   -0.2269   -1.4219 H       1  UNL1        0.0624
     46 H          -6.3861   -0.2920    3.9509 H       1  UNL1        0.1552
     47 H          -1.7620    0.1976    2.5257 H       1  UNL1        0.1522
     48 H          -0.5797   -2.4655    2.0254 H       1  UNL1        0.0637
     49 H           1.8910   -2.7966    1.5853 H       1  UNL1        0.0637
     50 H           2.2311    1.1620    0.2111 H       1  UNL1        0.0637
     51 H          -0.0992    1.4966    0.6213 H       1  UNL1        0.0637
     52 H           3.8729   -2.7880    1.9789 H       1  UNL1        0.0433
     53 H           5.2635   -2.3512    0.9750 H       1  UNL1        0.0433
     54 H           3.8329   -3.2213    0.2338 H       1  UNL1        0.0433
     55 H           4.2037    1.3541   -1.2707 H       1  UNL1        0.0522
     56 H           4.4400    2.0234    0.3398 H       1  UNL1        0.0522
     57 H           5.8633   -0.0001   -2.2419 H       1  UNL1        0.0439
     58 H           6.6537    1.5038   -2.6870 H       1  UNL1        0.0439
     59 H           7.9174   -0.9015   -1.4760 H       1  UNL1        0.0439
     60 H           8.4089    0.0709   -2.8593 H       1  UNL1        0.0439
     61 H           9.5479    0.5419    1.0252 H       1  UNL1        0.0391
     62 H           8.9462   -0.9231    0.1800 H       1  UNL1        0.0391
     63 H          10.5726   -0.2476   -0.2059 H       1  UNL1        0.0391
     64 H           8.2162    2.7917   -1.2758 H       1  UNL1        0.0439
     65 H           9.1510    2.4791    0.2859 H       1  UNL1        0.0439
     66 H           7.3806    0.8806    0.9172 H       1  UNL1        0.0439
     67 H           6.7317    2.6031    0.8720 H       1  UNL1        0.0439
     68 H          -3.6003    1.9387   -0.9466 H       1  UNL1        0.0624
     69 H          -2.9071    2.0311   -3.3212 H       1  UNL1        0.0618
     70 H          -1.6047    0.1667   -4.3363 H       1  UNL1        0.0618
     71 H          -1.0188   -1.7987   -2.9037 H       1  UNL1        0.0618
     72 H          -1.7221   -1.8296   -0.6206 H       1  UNL1        0.0624
     73 H          -8.5416   -0.3035    2.1326 H       1  UNL1        0.0644
@<TRIPOS>BOND
     1     1     2    1
     2     2     3    1
     3     3     4    2
     4     3     5    1
     5     5     6   ar
     6     6     7   ar
     7     7     8   ar
     8     8     9   ar
     9     9    10    1
    10    10    11   am
    11    11    12    2
    12    11    13    1
    13    13    14    2
    14    14    15    1
    15    15    16    1
    16    16    17   ar
    17    17    18   ar
    18    18    19   ar
    19    19    20   ar
    20    20    21   ar
    21    19    22    1
    22    22    23    1
    23    22    24   am
    24    24    25    2
    25    24    26    1
    26    26    27    1
    27    27    28    1
    28    28    29    1
    29    29    30    1
    30    30    31    1
    31    30    32    1
    32    32    33    1
    33    14    34    1
    34    34    35   ar
    35    35    36   ar
    36    36    37   ar
    37    37    38   ar
    38    38    39   ar
    39     9    40   ar
    40    40     5   ar
    41    13     8    1
    42    21    16   ar
    43    33    27    1
    44    39    34   ar
    45     1    41    1
    46     1    42    1
    47     1    43    1
    48     6    44    1
    49     7    45    1
    50    10    46    1
    51    15    47    1
    52    17    48    1
    53    18    49    1
    54    20    50    1
    55    21    51    1
    56    23    52    1
    57    23    53    1
    58    23    54    1
    59    26    55    1
    60    26    56    1
    61    28    57    1
    62    28    58    1
    63    29    59    1
    64    29    60    1
    65    31    61    1
    66    31    62    1
    67    31    63    1
    68    32    64    1
    69    32    65    1
    70    33    66    1
    71    33    67    1
    72    35    68    1
    73    36    69    1
    74    37    70    1
    75    38    71    1
    76    39    72    1
    77    40    73    1
