@<TRIPOS>MOLECULE
*****
 52 55 0 0 0
SMALL
GASTEIGER

@<TRIPOS>ATOM
      1 C          -5.8441   -0.6406   -1.4169 C.3     1  UNL1       -0.0288
      2 C          -4.8627    0.0480   -0.4973 C.3     1  UNL1        0.1831
      3 C          -5.4442    1.3194    0.0844 C.3     1  UNL1       -0.0288
      4 C          -3.6597    0.3258   -1.3176 C.2     1  UNL1        0.3067
      5 N          -3.8006    0.5316   -2.7507 N.pl3   1  UNL1       -0.2488
      6 N          -2.5437    0.3795   -0.7686 N.2     1  UNL1       -0.0727
      7 C          -2.0565    0.2369    0.5348 C.3     1  UNL1        0.1959
      8 C          -1.9210    1.6382    1.1364 C.3     1  UNL1       -0.0112
      9 C          -0.6686   -0.2843    0.4523 C.ar    1  UNL1        0.0420
     10 C           0.4264    0.3785    0.9551 C.ar    1  UNL1       -0.0301
     11 C           1.7099   -0.1306    0.8659 C.ar    1  UNL1        0.0330
     12 N           2.8110    0.5883    1.3991 N.pl3   1  UNL1       -0.2977
     13 C           4.1201    0.0588    1.3025 C.ar    1  UNL1        0.1491
     14 N           4.6364   -0.7338    2.2521 N.ar    1  UNL1       -0.2369
     15 C           5.8810   -1.2285    2.1455 C.ar    1  UNL1        0.0444
     16 C           6.6548   -0.9269    1.0491 C.ar    1  UNL1        0.0453
     17 BR          8.4346   -1.6058    0.8484 Br      1  UNL1       -0.0480
     18 C           6.1413   -0.1187    0.0710 C.ar    1  UNL1        0.0205
     19 C           6.8970    0.2064   -1.0516 C.ar    1  UNL1       -0.0315
     20 C           6.3328    1.0247   -2.0082 C.ar    1  UNL1        0.0597
     21 CL          7.3010    1.4286   -3.4251 Cl      1  UNL1       -0.0820
     22 C           5.0517    1.5206   -1.8761 C.ar    1  UNL1        0.0467
     23 N           4.3757    1.1708   -0.7721 N.ar    1  UNL1       -0.2500
     24 C           4.8806    0.3738    0.1934 C.ar    1  UNL1        0.1120
     25 C           1.9143   -1.3474    0.2525 C.ar    1  UNL1       -0.0378
     26 C           0.8430   -2.0287   -0.2567 C.ar    1  UNL1       -0.0243
     27 C          -0.4296   -1.4977   -0.1545 C.ar    1  UNL1        0.1311
     28 F          -1.4465   -2.1894   -0.6630 F       1  UNL1       -0.2050
     29 C          -2.9098   -0.5566    1.4802 C.3     1  UNL1        0.1183
     30 S          -4.4181   -1.1094    0.7430 S.O2    1  UNL1       -0.0101
     31 O          -4.3550   -2.4768    0.1737 O.2     1  UNL1       -0.1731
     32 O          -5.5469   -1.1202    1.7667 O.2     1  UNL1       -0.1731
     33 H          -6.8718   -0.5351   -0.9818 H       1  UNL1        0.0256
     34 H          -5.6415   -1.7263   -1.4978 H       1  UNL1        0.0256
     35 H          -5.8893   -0.1986   -2.4176 H       1  UNL1        0.0256
     36 H          -6.5350    1.3554   -0.0408 H       1  UNL1        0.0256
     37 H          -5.2210    1.4212    1.1742 H       1  UNL1        0.0256
     38 H          -5.0008    2.1599   -0.4834 H       1  UNL1        0.0256
     39 H          -4.5197    1.1791   -3.1388 H       1  UNL1        0.2881
     40 H          -3.1892    0.0403   -3.4347 H       1  UNL1        0.2881
     41 H          -1.5818    1.4840    2.1858 H       1  UNL1        0.0279
     42 H          -1.2621    2.2773    0.5434 H       1  UNL1        0.0279
     43 H          -2.9106    2.1229    1.1810 H       1  UNL1        0.0279
     44 H           0.3044    1.3189    1.4339 H       1  UNL1        0.0641
     45 H           2.6472    1.4963    1.8555 H       1  UNL1        0.1536
     46 H           6.2767   -1.8736    2.9370 H       1  UNL1        0.0842
     47 H           7.8940   -0.1971   -1.1247 H       1  UNL1        0.0639
     48 H           4.6056    2.1585   -2.6170 H       1  UNL1        0.0844
     49 H           2.9301   -1.7327    0.1912 H       1  UNL1        0.0637
     50 H           1.0072   -2.9766   -0.7339 H       1  UNL1        0.0647
     51 H          -2.3578   -1.4533    1.8277 H       1  UNL1        0.0550
     52 H          -3.1894    0.0085    2.3930 H       1  UNL1        0.0550
@<TRIPOS>BOND
     1     1     2    1
     2     2     3    1
     3     2     4    1
     4     4     5    1
     5     4     6    2
     6     6     7    1
     7     7     8    1
     8     7     9    1
     9     9    10   ar
    10    10    11   ar
    11    11    12    1
    12    12    13    1
    13    13    14   ar
    14    14    15   ar
    15    15    16   ar
    16    16    17    1
    17    16    18   ar
    18    18    19   ar
    19    19    20   ar
    20    20    21    1
    21    20    22   ar
    22    22    23   ar
    23    23    24   ar
    24    11    25   ar
    25    25    26   ar
    26    26    27   ar
    27    27    28    1
    28     7    29    1
    29    29    30    1
    30    30    31    2
    31    30    32    2
    32    30     2    1
    33    27     9   ar
    34    24    13   ar
    35    24    18   ar
    36     1    33    1
    37     1    34    1
    38     1    35    1
    39     3    36    1
    40     3    37    1
    41     3    38    1
    42     5    39    1
    43     5    40    1
    44     8    41    1
    45     8    42    1
    46     8    43    1
    47    10    44    1
    48    12    45    1
    49    15    46    1
    50    19    47    1
    51    22    48    1
    52    25    49    1
    53    26    50    1
    54    29    51    1
    55    29    52    1
