
     RDKit          3D

 52 55  0  0  0  0  0  0  0  0999 V2000
   -5.8441   -0.6406   -1.4169 C   0  0  0  0  0  0  0  0  0  0  0  0
   -4.8627    0.0480   -0.4973 C   0  0  0  0  0  0  0  0  0  0  0  0
   -5.4442    1.3194    0.0844 C   0  0  0  0  0  0  0  0  0  0  0  0
   -3.6597    0.3258   -1.3176 C   0  0  0  0  0  0  0  0  0  0  0  0
   -3.8006    0.5316   -2.7507 N   0  0  0  0  0  0  0  0  0  0  0  0
   -2.5437    0.3795   -0.7686 N   0  0  0  0  0  0  0  0  0  0  0  0
   -2.0565    0.2369    0.5348 C   0  0  2  0  0  0  0  0  0  0  0  0
   -1.9210    1.6382    1.1364 C   0  0  0  0  0  0  0  0  0  0  0  0
   -0.6686   -0.2843    0.4523 C   0  0  0  0  0  0  0  0  0  0  0  0
    0.4264    0.3785    0.9551 C   0  0  0  0  0  0  0  0  0  0  0  0
    1.7099   -0.1306    0.8659 C   0  0  0  0  0  0  0  0  0  0  0  0
    2.8110    0.5883    1.3991 N   0  0  0  0  0  0  0  0  0  0  0  0
    4.1201    0.0588    1.3025 C   0  0  0  0  0  0  0  0  0  0  0  0
    4.6364   -0.7338    2.2521 N   0  0  0  0  0  0  0  0  0  0  0  0
    5.8810   -1.2285    2.1455 C   0  0  0  0  0  0  0  0  0  0  0  0
    6.6548   -0.9269    1.0491 C   0  0  0  0  0  0  0  0  0  0  0  0
    8.4346   -1.6058    0.8484 Br  0  0  0  0  0  0  0  0  0  0  0  0
    6.1413   -0.1187    0.0710 C   0  0  0  0  0  0  0  0  0  0  0  0
    6.8970    0.2064   -1.0516 C   0  0  0  0  0  0  0  0  0  0  0  0
    6.3328    1.0247   -2.0082 C   0  0  0  0  0  0  0  0  0  0  0  0
    7.3010    1.4286   -3.4251 Cl  0  0  0  0  0  0  0  0  0  0  0  0
    5.0517    1.5206   -1.8761 C   0  0  0  0  0  0  0  0  0  0  0  0
    4.3757    1.1708   -0.7721 N   0  0  0  0  0  0  0  0  0  0  0  0
    4.8806    0.3738    0.1934 C   0  0  0  0  0  0  0  0  0  0  0  0
    1.9143   -1.3474    0.2525 C   0  0  0  0  0  0  0  0  0  0  0  0
    0.8430   -2.0287   -0.2567 C   0  0  0  0  0  0  0  0  0  0  0  0
   -0.4296   -1.4977   -0.1545 C   0  0  0  0  0  0  0  0  0  0  0  0
   -1.4465   -2.1894   -0.6630 F   0  0  0  0  0  0  0  0  0  0  0  0
   -2.9098   -0.5566    1.4802 C   0  0  0  0  0  0  0  0  0  0  0  0
   -4.4181   -1.1094    0.7430 S   0  0  0  0  0  6  0  0  0  0  0  0
   -4.3550   -2.4768    0.1737 O   0  0  0  0  0  0  0  0  0  0  0  0
   -5.5469   -1.1202    1.7667 O   0  0  0  0  0  0  0  0  0  0  0  0
   -6.8718   -0.5351   -0.9818 H   0  0  0  0  0  0  0  0  0  0  0  0
   -5.6415   -1.7263   -1.4978 H   0  0  0  0  0  0  0  0  0  0  0  0
   -5.8893   -0.1986   -2.4176 H   0  0  0  0  0  0  0  0  0  0  0  0
   -6.5350    1.3554   -0.0408 H   0  0  0  0  0  0  0  0  0  0  0  0
   -5.2210    1.4212    1.1742 H   0  0  0  0  0  0  0  0  0  0  0  0
   -5.0008    2.1599   -0.4834 H   0  0  0  0  0  0  0  0  0  0  0  0
   -4.5197    1.1791   -3.1388 H   0  0  0  0  0  0  0  0  0  0  0  0
   -3.1892    0.0403   -3.4347 H   0  0  0  0  0  0  0  0  0  0  0  0
   -1.5818    1.4840    2.1858 H   0  0  0  0  0  0  0  0  0  0  0  0
   -1.2621    2.2773    0.5434 H   0  0  0  0  0  0  0  0  0  0  0  0
   -2.9106    2.1229    1.1810 H   0  0  0  0  0  0  0  0  0  0  0  0
    0.3044    1.3189    1.4339 H   0  0  0  0  0  0  0  0  0  0  0  0
    2.6472    1.4963    1.8555 H   0  0  0  0  0  0  0  0  0  0  0  0
    6.2767   -1.8736    2.9370 H   0  0  0  0  0  0  0  0  0  0  0  0
    7.8940   -0.1971   -1.1247 H   0  0  0  0  0  0  0  0  0  0  0  0
    4.6056    2.1585   -2.6170 H   0  0  0  0  0  0  0  0  0  0  0  0
    2.9301   -1.7327    0.1912 H   0  0  0  0  0  0  0  0  0  0  0  0
    1.0072   -2.9766   -0.7339 H   0  0  0  0  0  0  0  0  0  0  0  0
   -2.3578   -1.4533    1.8277 H   0  0  0  0  0  0  0  0  0  0  0  0
   -3.1894    0.0085    2.3930 H   0  0  0  0  0  0  0  0  0  0  0  0
  1  2  1  0
  2  3  1  0
  2  4  1  0
  4  5  1  0
  4  6  2  0
  6  7  1  0
  7  8  1  1
  7  9  1  0
  9 10  2  0
 10 11  1  0
 11 12  1  0
 12 13  1  0
 13 14  2  0
 14 15  1  0
 15 16  2  0
 16 17  1  0
 16 18  1  0
 18 19  2  0
 19 20  1  0
 20 21  1  0
 20 22  2  0
 22 23  1  0
 23 24  2  0
 11 25  2  0
 25 26  1  0
 26 27  2  0
 27 28  1  0
  7 29  1  0
 29 30  1  0
 30 31  2  0
 30 32  2  0
 30  2  1  0
 27  9  1  0
 24 13  1  0
 24 18  1  0
  1 33  1  0
  1 34  1  0
  1 35  1  0
  3 36  1  0
  3 37  1  0
  3 38  1  0
  5 39  1  0
  5 40  1  0
  8 41  1  0
  8 42  1  0
  8 43  1  0
 10 44  1  0
 12 45  1  0
 15 46  1  0
 19 47  1  0
 22 48  1  0
 25 49  1  0
 26 50  1  0
 29 51  1  0
 29 52  1  0
M  END
$$$$
