
     RDKit          3D

 43 46  0  0  0  0  0  0  0  0999 V2000
   -5.0720   -2.6075    0.3648 O   0  0  0  0  0  0  0  0  0  0  0  0
   -3.9521   -1.9659    0.9313 C   0  0  0  0  0  0  0  0  0  0  0  0
   -4.2076   -0.4718    0.8755 C   0  0  1  0  0  0  0  0  0  0  0  0
   -3.1787    0.2537    1.4020 O   0  0  0  0  0  0  0  0  0  0  0  0
   -2.6874    1.1150    0.4583 C   0  0  1  0  0  0  0  0  0  0  0  0
   -1.2630    1.3365    0.5485 N   0  0  0  0  0  0  0  0  0  0  0  0
   -0.6595    2.4454    1.0148 C   0  0  0  0  0  0  0  0  0  0  0  0
    0.6837    2.3104    0.9549 N   0  0  0  0  0  0  0  0  0  0  0  0
    0.9596    1.1098    0.4480 C   0  0  0  0  0  0  0  0  0  0  0  0
    2.1743    0.4909    0.1843 C   0  0  0  0  0  0  0  0  0  0  0  0
    3.4116    1.1378    0.4497 N   0  0  0  0  0  0  0  0  0  0  0  0
    4.6925    0.5549    0.2084 C   0  0  2  0  0  0  0  0  0  0  0  0
    4.9163    0.1449   -1.2125 C   0  0  0  0  0  0  0  0  0  0  0  0
    5.6924   -1.1316   -1.0569 C   0  0  0  0  0  0  0  0  0  0  0  0
    5.2619   -1.7253    0.1208 O   0  0  0  0  0  0  0  0  0  0  0  0
    4.7875   -0.7546    0.9501 C   0  0  0  0  0  0  0  0  0  0  0  0
    2.0818   -0.7481   -0.3380 N   0  0  0  0  0  0  0  0  0  0  0  0
    0.8975   -1.3422   -0.5859 C   0  0  0  0  0  0  0  0  0  0  0  0
   -0.2772   -0.7335   -0.3266 N   0  0  0  0  0  0  0  0  0  0  0  0
   -0.2586    0.5120    0.1985 C   0  0  0  0  0  0  0  0  0  0  0  0
   -3.0857    0.5806   -0.8959 C   0  0  2  0  0  0  0  0  0  0  0  0
   -3.2700    1.6141   -1.8259 O   0  0  0  0  0  0  0  0  0  0  0  0
   -4.4281   -0.0635   -0.5417 C   0  0  2  0  0  0  0  0  0  0  0  0
   -5.4498    0.9020   -0.5562 O   0  0  0  0  0  0  0  0  0  0  0  0
   -5.3399   -3.3470    0.9694 H   0  0  0  0  0  0  0  0  0  0  0  0
   -3.8167   -2.2887    1.9760 H   0  0  0  0  0  0  0  0  0  0  0  0
   -3.0545   -2.2617    0.3687 H   0  0  0  0  0  0  0  0  0  0  0  0
   -5.1140   -0.2918    1.5234 H   0  0  0  0  0  0  0  0  0  0  0  0
   -3.2164    2.0891    0.5805 H   0  0  0  0  0  0  0  0  0  0  0  0
   -1.1868    3.3306    1.3893 H   0  0  0  0  0  0  0  0  0  0  0  0
    3.3805    2.1015    0.8467 H   0  0  0  0  0  0  0  0  0  0  0  0
    5.5257    1.2512    0.5255 H   0  0  0  0  0  0  0  0  0  0  0  0
    3.9522   -0.0208   -1.7454 H   0  0  0  0  0  0  0  0  0  0  0  0
    5.5392    0.9092   -1.7513 H   0  0  0  0  0  0  0  0  0  0  0  0
    6.7668   -0.8582   -0.8956 H   0  0  0  0  0  0  0  0  0  0  0  0
    5.5814   -1.8037   -1.9136 H   0  0  0  0  0  0  0  0  0  0  0  0
    3.7677   -1.0567    1.2835 H   0  0  0  0  0  0  0  0  0  0  0  0
    5.4076   -0.6033    1.8644 H   0  0  0  0  0  0  0  0  0  0  0  0
    0.8254   -2.3448   -1.0086 H   0  0  0  0  0  0  0  0  0  0  0  0
   -2.4283   -0.2050   -1.2648 H   0  0  0  0  0  0  0  0  0  0  0  0
   -4.1116    2.0718   -1.5859 H   0  0  0  0  0  0  0  0  0  0  0  0
   -4.6431   -0.9025   -1.2300 H   0  0  0  0  0  0  0  0  0  0  0  0
   -5.6043    1.2669    0.3721 H   0  0  0  0  0  0  0  0  0  0  0  0
  1  2  1  0
  2  3  1  0
  3  4  1  0
  4  5  1  0
  5  6  1  0
  6  7  1  0
  7  8  2  0
  8  9  1  0
  9 10  2  0
 10 11  1  0
 11 12  1  0
 12 13  1  0
 13 14  1  0
 14 15  1  0
 15 16  1  0
 10 17  1  0
 17 18  2  0
 18 19  1  0
 19 20  2  0
  5 21  1  0
 21 22  1  0
 21 23  1  0
 23 24  1  0
 23  3  1  0
 20  6  1  0
 20  9  1  0
 16 12  1  0
  1 25  1  0
  2 26  1  0
  2 27  1  0
  3 28  1  1
  5 29  1  1
  7 30  1  0
 11 31  1  0
 12 32  1  1
 13 33  1  0
 13 34  1  0
 14 35  1  0
 14 36  1  0
 16 37  1  0
 16 38  1  0
 18 39  1  0
 21 40  1  6
 22 41  1  0
 23 42  1  6
 24 43  1  0
M  END
$$$$
