@<TRIPOS>MOLECULE
*****
 43 46 0 0 0
SMALL
GASTEIGER

@<TRIPOS>ATOM
      1 O5*        -5.0720   -2.6075    0.3648 O.3     1  UNL1       -0.3924
      2 C5*        -3.9521   -1.9659    0.9313 C.3     1  UNL1        0.0730
      3 C4*        -4.2076   -0.4718    0.8755 C.3     1  UNL1        0.1126
      4 O4*        -3.1787    0.2537    1.4020 O.3     1  UNL1       -0.3457
      5 C1*        -2.6874    1.1150    0.4583 C.3     1  UNL1        0.1667
      6 N          -1.2630    1.3365    0.5485 N.ar    1  UNL1       -0.2855
      7 C          -0.6595    2.4454    1.0148 C.ar    1  UNL1        0.1004
      8 N           0.6837    2.3104    0.9549 N.ar    1  UNL1       -0.2306
      9 C           0.9596    1.1098    0.4480 C.ar    1  UNL1        0.1475
     10 C           2.1743    0.4909    0.1843 C.ar    1  UNL1        0.1500
     11 N           3.4116    1.1378    0.4497 N.pl3   1  UNL1       -0.3221
     12 C           4.6925    0.5549    0.2084 C.3     1  UNL1        0.0474
     13 C           4.9163    0.1449   -1.2125 C.3     1  UNL1       -0.0089
     14 C           5.6924   -1.1316   -1.0569 C.3     1  UNL1        0.0495
     15 O           5.2619   -1.7253    0.1208 O.3     1  UNL1       -0.3779
     16 C           4.7875   -0.7546    0.9501 C.3     1  UNL1        0.0660
     17 N           2.0818   -0.7481   -0.3380 N.ar    1  UNL1       -0.2186
     18 C           0.8975   -1.3422   -0.5859 C.ar    1  UNL1        0.1205
     19 N          -0.2772   -0.7335   -0.3266 N.ar    1  UNL1       -0.2159
     20 C          -0.2586    0.5120    0.1985 C.ar    1  UNL1        0.1674
     21 C2*        -3.0857    0.5806   -0.8959 C.3     1  UNL1        0.1285
     22 O2*        -3.2700    1.6141   -1.8259 O.3     1  UNL1       -0.3847
     23 C3*        -4.4281   -0.0635   -0.5417 C.3     1  UNL1        0.1135
     24 O3*        -5.4498    0.9020   -0.5562 O.3     1  UNL1       -0.3864
     25 H5*        -5.3399   -3.3470    0.9694 H       1  UNL1        0.2095
     26 H5*1       -3.8167   -2.2887    1.9760 H       1  UNL1        0.0584
     27 H5*2       -3.0545   -2.2617    0.3687 H       1  UNL1        0.0584
     28 H4*        -5.1140   -0.2918    1.5234 H       1  UNL1        0.0647
     29 H1*        -3.2164    2.0891    0.5805 H       1  UNL1        0.0866
     30 H          -1.1868    3.3306    1.3893 H       1  UNL1        0.1030
     31 H           3.3805    2.1015    0.8467 H       1  UNL1        0.1479
     32 H           5.5257    1.2512    0.5255 H       1  UNL1        0.0521
     33 H           3.9522   -0.0208   -1.7454 H       1  UNL1        0.0306
     34 H           5.5392    0.9092   -1.7513 H       1  UNL1        0.0306
     35 H           6.7668   -0.8582   -0.8956 H       1  UNL1        0.0560
     36 H           5.5814   -1.8037   -1.9136 H       1  UNL1        0.0560
     37 H           3.7677   -1.0567    1.2835 H       1  UNL1        0.0578
     38 H           5.4076   -0.6033    1.8644 H       1  UNL1        0.0578
     39 H           0.8254   -2.3448   -1.0086 H       1  UNL1        0.1048
     40 H2*        -2.4283   -0.2050   -1.2648 H       1  UNL1        0.0665
     41 H2*        -4.1116    2.0718   -1.5859 H       1  UNL1        0.2101
     42 H3*        -4.6431   -0.9025   -1.2300 H       1  UNL1        0.0647
     43 H3*        -5.6043    1.2669    0.3721 H       1  UNL1        0.2100
@<TRIPOS>BOND
     1     1     2    1
     2     2     3    1
     3     3     4    1
     4     4     5    1
     5     5     6    1
     6     6     7   ar
     7     7     8   ar
     8     8     9   ar
     9     9    10   ar
    10    10    11    1
    11    11    12    1
    12    12    13    1
    13    13    14    1
    14    14    15    1
    15    15    16    1
    16    10    17   ar
    17    17    18   ar
    18    18    19   ar
    19    19    20   ar
    20     5    21    1
    21    21    22    1
    22    21    23    1
    23    23    24    1
    24    23     3    1
    25    20     6   ar
    26    20     9   ar
    27    16    12    1
    28     1    25    1
    29     2    26    1
    30     2    27    1
    31     3    28    1
    32     5    29    1
    33     7    30    1
    34    11    31    1
    35    12    32    1
    36    13    33    1
    37    13    34    1
    38    14    35    1
    39    14    36    1
    40    16    37    1
    41    16    38    1
    42    18    39    1
    43    21    40    1
    44    22    41    1
    45    23    42    1
    46    24    43    1
