@<TRIPOS>MOLECULE
*****
 64 66 0 0 0
SMALL
GASTEIGER

@<TRIPOS>ATOM
      1 C           6.3149    3.2508   -0.9224 C.3     1  UNL1       -0.0524
      2 C           6.4759    1.8526   -1.4426 C.3     1  UNL1       -0.0038
      3 N           7.3545    1.1130   -0.5800 N.3     1  UNL1       -0.2996
      4 C           7.5852   -0.2386   -1.0685 C.3     1  UNL1       -0.0038
      5 C           8.4062   -0.1354   -2.3357 C.3     1  UNL1       -0.0524
      6 C           7.0281    1.1469    0.8067 C.3     1  UNL1        0.0331
      7 C           5.7918    0.4239    1.2101 C.3     1  UNL1        0.1022
      8 O           4.6590    0.9220    0.5757 O.3     1  UNL1       -0.4907
      9 C           3.3739    0.4279    0.7789 C.ar    1  UNL1        0.1206
     10 C           3.2094   -0.6036    1.6506 C.ar    1  UNL1       -0.0194
     11 C           1.9303   -1.1254    1.8794 C.ar    1  UNL1       -0.0501
     12 C           0.8405   -0.5974    1.2248 C.ar    1  UNL1       -0.0110
     13 C          -0.5091   -1.1024    1.4335 C.ar    1  UNL1        0.0219
     14 C          -1.6965   -0.7696    0.9325 C.ar    1  UNL1       -0.0329
     15 C          -2.8095   -1.4086    1.3039 C.ar    1  UNL1        0.0661
     16 C          -4.1996   -1.1102    0.8100 C.2     1  UNL1        0.2506
     17 O          -5.1811   -1.7526    1.2369 O.2     1  UNL1       -0.2698
     18 N          -4.4476   -0.1005   -0.1477 N.am    1  UNL1       -0.2814
     19 C          -5.7193    0.2389   -0.6563 C.ar    1  UNL1        0.0340
     20 C          -6.2055   -0.3981   -1.7696 C.ar    1  UNL1       -0.0404
     21 C          -7.4534   -0.0879   -2.3071 C.ar    1  UNL1       -0.0597
     22 C          -8.2360    0.8790   -1.7226 C.ar    1  UNL1       -0.0563
     23 C          -7.7568    1.5225   -0.6066 C.ar    1  UNL1       -0.0204
     24 C          -8.5982    2.5644    0.0223 C.3     1  UNL1        0.0693
     25 O          -8.2782    3.8054   -0.5737 O.3     1  UNL1       -0.3904
     26 C          -6.5138    1.2045   -0.0820 C.ar    1  UNL1       -0.0351
     27 C          -2.6267   -2.4434    2.2508 C.ar    1  UNL1        0.0856
     28 N          -3.6250   -3.2814    2.8131 N.am    1  UNL1       -0.2633
     29 C          -3.9435   -4.5123    2.1917 C.2     1  UNL1        0.3017
     30 N          -4.9399   -5.3985    2.7139 N.am    1  UNL1       -0.3131
     31 O          -3.3015   -4.8049    1.1375 O.2     1  UNL1       -0.2527
     32 S          -0.9114   -2.4585    2.5627 S.2     1  UNL1       -0.0727
     33 C           1.0255    0.4351    0.3556 C.ar    1  UNL1       -0.0501
     34 C           2.3047    0.9583    0.1256 C.ar    1  UNL1       -0.0194
     35 H           7.2362    3.5975   -0.4050 H       1  UNL1        0.0242
     36 H           5.4791    3.3938   -0.2182 H       1  UNL1        0.0242
     37 H           6.1720    3.9231   -1.8136 H       1  UNL1        0.0242
     38 H           5.4757    1.3524   -1.5635 H       1  UNL1        0.0424
     39 H           6.9133    1.8347   -2.4705 H       1  UNL1        0.0424
     40 H           6.5665   -0.6190   -1.3678 H       1  UNL1        0.0424
     41 H           8.0753   -0.8777   -0.3380 H       1  UNL1        0.0424
     42 H           8.9144   -1.0951   -2.5951 H       1  UNL1        0.0242
     43 H           9.1667    0.6723   -2.1449 H       1  UNL1        0.0242
     44 H           7.8113    0.1676   -3.1990 H       1  UNL1        0.0242
     45 H           7.9251    0.8134    1.3734 H       1  UNL1        0.0460
     46 H           6.8889    2.2184    1.0864 H       1  UNL1        0.0460
     47 H           5.8694   -0.6635    0.9564 H       1  UNL1        0.0709
     48 H           5.6451    0.5458    2.3149 H       1  UNL1        0.0709
     49 H           4.0533   -1.0257    2.1699 H       1  UNL1        0.0654
     50 H           1.8137   -1.9351    2.5658 H       1  UNL1        0.0625
     51 H          -1.7502    0.0740    0.1763 H       1  UNL1        0.0637
     52 H          -3.6029    0.4390   -0.5066 H       1  UNL1        0.1551
     53 H          -5.6585   -1.1706   -2.2931 H       1  UNL1        0.0636
     54 H          -7.8294   -0.5913   -3.1803 H       1  UNL1        0.0618
     55 H          -9.2237    1.1337   -2.1389 H       1  UNL1        0.0621
     56 H          -8.4627    2.6222    1.1230 H       1  UNL1        0.0607
     57 H          -9.6800    2.4007   -0.1984 H       1  UNL1        0.0607
     58 H          -8.9196    4.4811   -0.2376 H       1  UNL1        0.2098
     59 H          -6.1365    1.7047    0.7900 H       1  UNL1        0.0639
     60 H          -4.1113   -2.9802    3.6753 H       1  UNL1        0.1569
     61 H          -5.5461   -6.0054    2.1229 H       1  UNL1        0.1465
     62 H          -5.0765   -5.4494    3.7448 H       1  UNL1        0.1465
     63 H           0.1843    0.8489   -0.1562 H       1  UNL1        0.0625
     64 H           2.4600    1.7741   -0.5596 H       1  UNL1        0.0654
@<TRIPOS>BOND
     1     1     2    1
     2     2     3    1
     3     3     4    1
     4     4     5    1
     5     3     6    1
     6     6     7    1
     7     7     8    1
     8     8     9    1
     9     9    10   ar
    10    10    11   ar
    11    11    12   ar
    12    12    13    1
    13    13    14   ar
    14    14    15   ar
    15    15    16    1
    16    16    17    2
    17    16    18   am
    18    18    19    1
    19    19    20   ar
    20    20    21   ar
    21    21    22   ar
    22    22    23   ar
    23    23    24    1
    24    24    25    1
    25    23    26   ar
    26    15    27   ar
    27    27    28    1
    28    28    29   am
    29    29    30   am
    30    29    31    2
    31    27    32   ar
    32    12    33   ar
    33    33    34   ar
    34    34     9   ar
    35    32    13   ar
    36    26    19   ar
    37     1    35    1
    38     1    36    1
    39     1    37    1
    40     2    38    1
    41     2    39    1
    42     4    40    1
    43     4    41    1
    44     5    42    1
    45     5    43    1
    46     5    44    1
    47     6    45    1
    48     6    46    1
    49     7    47    1
    50     7    48    1
    51    10    49    1
    52    11    50    1
    53    14    51    1
    54    18    52    1
    55    20    53    1
    56    21    54    1
    57    22    55    1
    58    24    56    1
    59    24    57    1
    60    25    58    1
    61    26    59    1
    62    28    60    1
    63    30    61    1
    64    30    62    1
    65    33    63    1
    66    34    64    1
