
     RDKit          3D

 11 10  0  0  0  0  0  0  0  0999 V2000
   -1.7396   -0.0545    0.0373 C   0  0  0  0  0  0  0  0  0  0  0  0
   -0.3399   -0.4093    0.3514 C   0  0  0  0  0  0  0  0  0  0  0  0
    0.5765    0.3113   -0.2678 C   0  0  0  0  0  0  0  0  0  0  0  0
    2.0054    0.1076   -0.0844 C   0  0  0  0  0  0  0  0  0  0  0  0
    3.0405    0.6555   -0.5535 O   0  0  0  0  0  0  0  0  0  0  0  0
   -2.3544   -0.9592    0.1441 H   0  0  0  0  0  0  0  0  0  0  0  0
   -1.8331    0.3296   -1.0055 H   0  0  0  0  0  0  0  0  0  0  0  0
   -2.0386    0.7522    0.7339 H   0  0  0  0  0  0  0  0  0  0  0  0
    0.0058   -1.1662    1.0085 H   0  0  0  0  0  0  0  0  0  0  0  0
    0.3586    1.1096   -0.9600 H   0  0  0  0  0  0  0  0  0  0  0  0
    2.3188   -0.6765    0.5960 H   0  0  0  0  0  0  0  0  0  0  0  0
  1  2  1  0
  2  3  2  0
  3  4  1  0
  4  5  2  0
  1  6  1  0
  1  7  1  0
  1  8  1  0
  2  9  1  0
  3 10  1  0
  4 11  1  0
M  END
$$$$
