@<TRIPOS>MOLECULE
*****
 11 10 0 0 0
SMALL
GASTEIGER

@<TRIPOS>ATOM
      1 C          -1.7396   -0.0545    0.0373 C.3     1  UNL1       -0.0464
      2 C          -0.3399   -0.4093    0.3514 C.2     1  UNL1       -0.0841
      3 C           0.5765    0.3113   -0.2678 C.2     1  UNL1       -0.0266
      4 C           2.0054    0.1076   -0.0844 C.2     1  UNL1        0.1428
      5 O           3.0405    0.6555   -0.5535 O.2     1  UNL1       -0.2963
      6 H          -2.3544   -0.9592    0.1441 H       1  UNL1        0.0272
      7 H          -1.8331    0.3296   -1.0055 H       1  UNL1        0.0272
      8 H          -2.0386    0.7522    0.7339 H       1  UNL1        0.0272
      9 H           0.0058   -1.1662    1.0085 H       1  UNL1        0.0570
     10 H           0.3586    1.1096   -0.9600 H       1  UNL1        0.0646
     11 H           2.3188   -0.6765    0.5960 H       1  UNL1        0.1075
@<TRIPOS>BOND
     1     1     2    1
     2     2     3    2
     3     3     4    1
     4     4     5    2
     5     1     6    1
     6     1     7    1
     7     1     8    1
     8     2     9    1
     9     3    10    1
    10     4    11    1
