@<TRIPOS>MOLECULE
*****
 49 51 0 0 0
SMALL
GASTEIGER

@<TRIPOS>ATOM
      1 C          -5.5932    0.4268   -1.0722 C.3     1  UNL1        0.0365
      2 O          -4.7436    0.4921    0.0092 O.3     1  UNL1       -0.3811
      3 C          -3.5449   -0.1549   -0.1676 C.3     1  UNL1        0.0658
      4 C          -2.7465    0.0283    1.1279 C.3     1  UNL1        0.0482
      5 C          -3.5284   -0.6730    2.2172 C.3     1  UNL1       -0.0308
      6 C          -2.4566   -1.4323    2.9512 C.3     1  UNL1       -0.0354
      7 C          -1.5541   -1.8623    1.7871 C.3     1  UNL1        0.0139
      8 N          -1.4645   -0.6105    1.0607 N.pl3   1  UNL1       -0.3098
      9 C          -0.3018   -0.1287    0.4096 C.ar    1  UNL1        0.1287
     10 C          -0.3552    1.1043   -0.2515 C.ar    1  UNL1        0.0186
     11 C           0.7182    1.6424   -0.9043 C.ar    1  UNL1        0.1320
     12 N           0.7607    2.8736   -1.5963 N.am    1  UNL1       -0.2704
     13 C          -0.3031    3.7813   -1.7428 C.2     1  UNL1        0.2152
     14 C          -0.0770    5.0518   -2.5174 C.3     1  UNL1        0.0125
     15 O          -1.4231    3.5444   -1.2406 O.2     1  UNL1       -0.2757
     16 N           1.8577    0.8999   -0.8739 N.ar    1  UNL1       -0.1954
     17 C           1.9574   -0.2842   -0.2551 C.ar    1  UNL1        0.2549
     18 N           3.2064   -0.9575   -0.2992 N.ar    1  UNL1       -0.2024
     19 N           4.1351   -0.8529   -1.2290 N.ar    1  UNL1       -0.1689
     20 C           5.1935   -1.6371   -0.9495 C.ar    1  UNL1        0.0607
     21 C           6.4465   -1.8019   -1.7505 C.3     1  UNL1       -0.0206
     22 C           4.8922   -2.2708    0.2414 C.ar    1  UNL1       -0.0178
     23 C           3.6576   -1.8328    0.6221 C.ar    1  UNL1        0.0453
     24 C           2.8669   -2.2139    1.8466 C.3     1  UNL1       -0.0221
     25 N           0.8702   -0.7785    0.3781 N.ar    1  UNL1       -0.1956
     26 H          -5.8796   -0.6057   -1.3602 H       1  UNL1        0.0523
     27 H          -5.1902    1.0026   -1.9305 H       1  UNL1        0.0523
     28 H          -6.5430    0.9377   -0.7679 H       1  UNL1        0.0523
     29 H          -2.9797    0.1362   -1.0540 H       1  UNL1        0.0578
     30 H          -3.7408   -1.2637   -0.2190 H       1  UNL1        0.0578
     31 H          -2.6733    1.1238    1.2902 H       1  UNL1        0.0523
     32 H          -4.2141   -1.4277    1.7765 H       1  UNL1        0.0284
     33 H          -4.0659    0.0445    2.8696 H       1  UNL1        0.0284
     34 H          -2.8420   -2.3088    3.4969 H       1  UNL1        0.0281
     35 H          -1.8800   -0.7368    3.5585 H       1  UNL1        0.0281
     36 H          -0.6055   -2.1733    2.2303 H       1  UNL1        0.0464
     37 H          -2.0642   -2.6529    1.2133 H       1  UNL1        0.0464
     38 H          -1.2827    1.6146   -0.2242 H       1  UNL1        0.0686
     39 H           1.6827    3.1676   -2.0642 H       1  UNL1        0.1562
     40 H          -0.9532    5.7275   -2.4055 H       1  UNL1        0.0323
     41 H           0.0323    4.8289   -3.5946 H       1  UNL1        0.0323
     42 H           0.8551    5.5625   -2.1880 H       1  UNL1        0.0323
     43 H           6.2616   -2.3677   -2.6909 H       1  UNL1        0.0293
     44 H           6.9226   -0.8031   -1.9550 H       1  UNL1        0.0293
     45 H           7.1902   -2.3387   -1.1129 H       1  UNL1        0.0293
     46 H           5.4935   -2.9847    0.7979 H       1  UNL1        0.0654
     47 H           3.4628   -2.9024    2.4788 H       1  UNL1        0.0293
     48 H           2.6707   -1.3147    2.4802 H       1  UNL1        0.0293
     49 H           1.8724   -2.6190    1.5735 H       1  UNL1        0.0293
@<TRIPOS>BOND
     1     1     2    1
     2     2     3    1
     3     3     4    1
     4     4     5    1
     5     5     6    1
     6     6     7    1
     7     7     8    1
     8     8     9    1
     9     9    10   ar
    10    10    11   ar
    11    11    12    1
    12    12    13   am
    13    13    14    1
    14    13    15    2
    15    11    16   ar
    16    16    17   ar
    17    17    18    1
    18    18    19   ar
    19    19    20   ar
    20    20    21    1
    21    20    22   ar
    22    22    23   ar
    23    23    24    1
    24    17    25   ar
    25     8     4    1
    26    25     9   ar
    27    23    18   ar
    28     1    26    1
    29     1    27    1
    30     1    28    1
    31     3    29    1
    32     3    30    1
    33     4    31    1
    34     5    32    1
    35     5    33    1
    36     6    34    1
    37     6    35    1
    38     7    36    1
    39     7    37    1
    40    10    38    1
    41    12    39    1
    42    14    40    1
    43    14    41    1
    44    14    42    1
    45    21    43    1
    46    21    44    1
    47    21    45    1
    48    22    46    1
    49    24    47    1
    50    24    48    1
    51    24    49    1
