
     RDKit          3D

 49 51  0  0  0  0  0  0  0  0999 V2000
   -5.5932    0.4268   -1.0722 C   0  0  0  0  0  0  0  0  0  0  0  0
   -4.7436    0.4921    0.0092 O   0  0  0  0  0  0  0  0  0  0  0  0
   -3.5449   -0.1549   -0.1676 C   0  0  0  0  0  0  0  0  0  0  0  0
   -2.7465    0.0283    1.1279 C   0  0  1  0  0  0  0  0  0  0  0  0
   -3.5284   -0.6730    2.2172 C   0  0  0  0  0  0  0  0  0  0  0  0
   -2.4566   -1.4323    2.9512 C   0  0  0  0  0  0  0  0  0  0  0  0
   -1.5541   -1.8623    1.7871 C   0  0  0  0  0  0  0  0  0  0  0  0
   -1.4645   -0.6105    1.0607 N   0  0  0  0  0  0  0  0  0  0  0  0
   -0.3018   -0.1287    0.4096 C   0  0  0  0  0  0  0  0  0  0  0  0
   -0.3552    1.1043   -0.2515 C   0  0  0  0  0  0  0  0  0  0  0  0
    0.7182    1.6424   -0.9043 C   0  0  0  0  0  0  0  0  0  0  0  0
    0.7607    2.8736   -1.5963 N   0  0  0  0  0  0  0  0  0  0  0  0
   -0.3031    3.7813   -1.7428 C   0  0  0  0  0  0  0  0  0  0  0  0
   -0.0770    5.0518   -2.5174 C   0  0  0  0  0  0  0  0  0  0  0  0
   -1.4231    3.5444   -1.2406 O   0  0  0  0  0  0  0  0  0  0  0  0
    1.8577    0.8999   -0.8739 N   0  0  0  0  0  0  0  0  0  0  0  0
    1.9574   -0.2842   -0.2551 C   0  0  0  0  0  0  0  0  0  0  0  0
    3.2064   -0.9575   -0.2992 N   0  0  0  0  0  0  0  0  0  0  0  0
    4.1351   -0.8529   -1.2290 N   0  0  0  0  0  0  0  0  0  0  0  0
    5.1935   -1.6371   -0.9495 C   0  0  0  0  0  0  0  0  0  0  0  0
    6.4465   -1.8019   -1.7505 C   0  0  0  0  0  0  0  0  0  0  0  0
    4.8922   -2.2708    0.2414 C   0  0  0  0  0  0  0  0  0  0  0  0
    3.6576   -1.8328    0.6221 C   0  0  0  0  0  0  0  0  0  0  0  0
    2.8669   -2.2139    1.8466 C   0  0  0  0  0  0  0  0  0  0  0  0
    0.8702   -0.7785    0.3781 N   0  0  0  0  0  0  0  0  0  0  0  0
   -5.8796   -0.6057   -1.3602 H   0  0  0  0  0  0  0  0  0  0  0  0
   -5.1902    1.0026   -1.9305 H   0  0  0  0  0  0  0  0  0  0  0  0
   -6.5430    0.9377   -0.7679 H   0  0  0  0  0  0  0  0  0  0  0  0
   -2.9797    0.1362   -1.0540 H   0  0  0  0  0  0  0  0  0  0  0  0
   -3.7408   -1.2637   -0.2190 H   0  0  0  0  0  0  0  0  0  0  0  0
   -2.6733    1.1238    1.2902 H   0  0  0  0  0  0  0  0  0  0  0  0
   -4.2141   -1.4277    1.7765 H   0  0  0  0  0  0  0  0  0  0  0  0
   -4.0659    0.0445    2.8696 H   0  0  0  0  0  0  0  0  0  0  0  0
   -2.8420   -2.3088    3.4969 H   0  0  0  0  0  0  0  0  0  0  0  0
   -1.8800   -0.7368    3.5585 H   0  0  0  0  0  0  0  0  0  0  0  0
   -0.6055   -2.1733    2.2303 H   0  0  0  0  0  0  0  0  0  0  0  0
   -2.0642   -2.6529    1.2133 H   0  0  0  0  0  0  0  0  0  0  0  0
   -1.2827    1.6146   -0.2242 H   0  0  0  0  0  0  0  0  0  0  0  0
    1.6827    3.1676   -2.0642 H   0  0  0  0  0  0  0  0  0  0  0  0
   -0.9532    5.7275   -2.4055 H   0  0  0  0  0  0  0  0  0  0  0  0
    0.0323    4.8289   -3.5946 H   0  0  0  0  0  0  0  0  0  0  0  0
    0.8551    5.5625   -2.1880 H   0  0  0  0  0  0  0  0  0  0  0  0
    6.2616   -2.3677   -2.6909 H   0  0  0  0  0  0  0  0  0  0  0  0
    6.9226   -0.8031   -1.9550 H   0  0  0  0  0  0  0  0  0  0  0  0
    7.1902   -2.3387   -1.1129 H   0  0  0  0  0  0  0  0  0  0  0  0
    5.4935   -2.9847    0.7979 H   0  0  0  0  0  0  0  0  0  0  0  0
    3.4628   -2.9024    2.4788 H   0  0  0  0  0  0  0  0  0  0  0  0
    2.6707   -1.3147    2.4802 H   0  0  0  0  0  0  0  0  0  0  0  0
    1.8724   -2.6190    1.5735 H   0  0  0  0  0  0  0  0  0  0  0  0
  1  2  1  0
  2  3  1  0
  3  4  1  0
  4  5  1  0
  5  6  1  0
  6  7  1  0
  7  8  1  0
  8  9  1  0
  9 10  2  0
 10 11  1  0
 11 12  1  0
 12 13  1  0
 13 14  1  0
 13 15  2  0
 11 16  2  0
 16 17  1  0
 17 18  1  0
 18 19  1  0
 19 20  2  0
 20 21  1  0
 20 22  1  0
 22 23  2  0
 23 24  1  0
 17 25  2  0
  8  4  1  0
 25  9  1  0
 23 18  1  0
  1 26  1  0
  1 27  1  0
  1 28  1  0
  3 29  1  0
  3 30  1  0
  4 31  1  1
  5 32  1  0
  5 33  1  0
  6 34  1  0
  6 35  1  0
  7 36  1  0
  7 37  1  0
 10 38  1  0
 12 39  1  0
 14 40  1  0
 14 41  1  0
 14 42  1  0
 21 43  1  0
 21 44  1  0
 21 45  1  0
 22 46  1  0
 24 47  1  0
 24 48  1  0
 24 49  1  0
M  END
$$$$
