
     RDKit          3D

 79 82  0  0  0  0  0  0  0  0999 V2000
   -2.2599   -4.0479    0.0654 C   0  0  0  0  0  0  0  0  0  0  0  0
   -3.2020   -3.5969    1.1329 C   0  0  0  0  0  0  0  0  0  0  0  0
   -4.5889   -3.3126    0.7173 C   0  0  0  0  0  0  0  0  0  0  0  0
   -2.6388   -2.6200    2.1141 C   0  0  1  0  0  0  0  0  0  0  0  0
   -1.5624   -3.3321    2.7883 O   0  0  0  0  0  0  0  0  0  0  0  0
   -2.0341   -1.3728    1.5967 C   0  0  0  0  0  0  0  0  0  0  0  0
   -2.8563   -0.4272    0.8011 C   0  0  2  0  0  0  0  0  0  0  0  0
   -3.3514   -0.9315   -0.3739 O   0  0  0  0  0  0  0  0  0  0  0  0
   -2.0657    0.8669    0.5603 C   0  0  2  0  0  0  0  0  0  0  0  0
   -2.8393    2.0956    0.3750 C   0  0  0  0  0  0  0  0  0  0  0  0
   -3.7988    2.1758   -0.7527 C   0  0  0  0  0  0  0  0  0  0  0  0
   -4.4936    3.5515   -0.7629 C   0  0  0  0  0  0  0  0  0  0  0  0
   -3.6417    4.5600   -1.4893 C   0  0  0  0  0  0  0  0  0  0  0  0
   -3.7094    4.2067   -2.9722 C   0  0  0  0  0  0  0  0  0  0  0  0
   -4.0130    2.7401   -3.1404 C   0  0  0  0  0  0  0  0  0  0  0  0
   -3.1785    1.9771   -2.1095 C   0  0  0  0  0  0  0  0  0  0  0  0
   -0.9883    0.6120   -0.3696 N   0  0  0  0  0  0  0  0  0  0  0  0
    0.3914    0.6773    0.0457 C   0  0  0  0  0  0  0  0  0  0  0  0
    0.6118    0.9612    1.2356 O   0  0  0  0  0  0  0  0  0  0  0  0
    1.5080    0.4079   -0.9437 C   0  0  2  0  0  0  0  0  0  0  0  0
    1.2701   -0.9027   -1.6023 C   0  0  0  0  0  0  0  0  0  0  0  0
    2.2408   -1.3259   -2.5972 C   0  0  0  0  0  0  0  0  0  0  0  0
    3.3499   -0.6840   -3.0389 C   0  0  0  0  0  0  0  0  0  0  0  0
    3.9432   -1.4594   -3.9773 N   0  0  0  0  0  0  0  0  0  0  0  0
    3.1994   -2.5541   -4.0983 C   0  0  0  0  0  0  0  0  0  0  0  0
    2.1619   -2.4909   -3.2687 N   0  0  0  0  0  0  0  0  0  0  0  0
    2.7468    0.5260   -0.2441 N   0  0  0  0  0  0  0  0  0  0  0  0
    3.0623   -0.2213    0.9182 C   0  0  0  0  0  0  0  0  0  0  0  0
    2.2525   -1.0490    1.4049 O   0  0  0  0  0  0  0  0  0  0  0  0
    4.3546   -0.0352    1.5756 C   0  0  0  0  0  0  0  0  0  0  0  0
    4.8115   -0.6776    2.7001 C   0  0  0  0  0  0  0  0  0  0  0  0
    6.0812   -0.1998    2.9758 C   0  0  0  0  0  0  0  0  0  0  0  0
    7.0073   -0.4833    3.9725 C   0  0  0  0  0  0  0  0  0  0  0  0
    8.2154    0.1674    3.9879 C   0  0  0  0  0  0  0  0  0  0  0  0
    8.5072    1.0952    3.0212 C   0  0  0  0  0  0  0  0  0  0  0  0
    7.5964    1.3814    2.0316 C   0  0  0  0  0  0  0  0  0  0  0  0
    6.3808    0.7345    2.0065 C   0  0  0  0  0  0  0  0  0  0  0  0
    5.3284    0.8159    1.1769 N   0  0  0  0  0  0  0  0  0  0  0  0
   -1.4911   -4.7174    0.4595 H   0  0  0  0  0  0  0  0  0  0  0  0
   -1.7812   -3.2052   -0.4760 H   0  0  0  0  0  0  0  0  0  0  0  0
   -2.8709   -4.5953   -0.6974 H   0  0  0  0  0  0  0  0  0  0  0  0
   -3.2897   -4.5723    1.8121 H   0  0  0  0  0  0  0  0  0  0  0  0
   -5.3077   -4.1162    1.0619 H   0  0  0  0  0  0  0  0  0  0  0  0
   -4.9561   -2.3877    1.2260 H   0  0  0  0  0  0  0  0  0  0  0  0
   -4.6836   -3.2555   -0.3931 H   0  0  0  0  0  0  0  0  0  0  0  0
   -3.3894   -2.4108    2.8884 H   0  0  0  0  0  0  0  0  0  0  0  0
   -2.0342   -4.0786    3.2299 H   0  0  0  0  0  0  0  0  0  0  0  0
   -1.0808   -1.6145    1.0128 H   0  0  0  0  0  0  0  0  0  0  0  0
   -1.6189   -0.8253    2.5013 H   0  0  0  0  0  0  0  0  0  0  0  0
   -3.7331   -0.0847    1.4483 H   0  0  0  0  0  0  0  0  0  0  0  0
   -4.3148   -0.7950   -0.4321 H   0  0  0  0  0  0  0  0  0  0  0  0
   -1.5636    1.0126    1.6079 H   0  0  0  0  0  0  0  0  0  0  0  0
   -3.4012    2.2973    1.3386 H   0  0  0  0  0  0  0  0  0  0  0  0
   -2.0905    2.9463    0.3302 H   0  0  0  0  0  0  0  0  0  0  0  0
   -4.6060    1.4293   -0.6297 H   0  0  0  0  0  0  0  0  0  0  0  0
   -4.7147    3.8660    0.2759 H   0  0  0  0  0  0  0  0  0  0  0  0
   -5.4629    3.4543   -1.2794 H   0  0  0  0  0  0  0  0  0  0  0  0
   -2.5896    4.5402   -1.1258 H   0  0  0  0  0  0  0  0  0  0  0  0
   -4.0504    5.5667   -1.2868 H   0  0  0  0  0  0  0  0  0  0  0  0
   -2.6703    4.3612   -3.3706 H   0  0  0  0  0  0  0  0  0  0  0  0
   -4.4158    4.8617   -3.5085 H   0  0  0  0  0  0  0  0  0  0  0  0
   -5.0776    2.4922   -3.0058 H   0  0  0  0  0  0  0  0  0  0  0  0
   -3.7074    2.4241   -4.1726 H   0  0  0  0  0  0  0  0  0  0  0  0
   -3.1784    0.9003   -2.3911 H   0  0  0  0  0  0  0  0  0  0  0  0
   -2.1426    2.3588   -2.1754 H   0  0  0  0  0  0  0  0  0  0  0  0
   -1.1418    0.3679   -1.3580 H   0  0  0  0  0  0  0  0  0  0  0  0
    1.4256    1.2386   -1.6972 H   0  0  0  0  0  0  0  0  0  0  0  0
    0.2437   -0.9489   -2.0512 H   0  0  0  0  0  0  0  0  0  0  0  0
    1.2776   -1.6856   -0.7817 H   0  0  0  0  0  0  0  0  0  0  0  0
    3.7454    0.2842   -2.7368 H   0  0  0  0  0  0  0  0  0  0  0  0
    3.3982   -3.3926   -4.7759 H   0  0  0  0  0  0  0  0  0  0  0  0
    1.4250   -3.2156   -3.1628 H   0  0  0  0  0  0  0  0  0  0  0  0
    3.4707    1.1923   -0.5794 H   0  0  0  0  0  0  0  0  0  0  0  0
    4.2963   -1.4262    3.2865 H   0  0  0  0  0  0  0  0  0  0  0  0
    6.7660   -1.2095    4.7198 H   0  0  0  0  0  0  0  0  0  0  0  0
    8.9277   -0.0611    4.7680 H   0  0  0  0  0  0  0  0  0  0  0  0
    9.4641    1.6275    3.0116 H   0  0  0  0  0  0  0  0  0  0  0  0
    7.8540    2.1139    1.2876 H   0  0  0  0  0  0  0  0  0  0  0  0
    5.2710    1.4342    0.3589 H   0  0  0  0  0  0  0  0  0  0  0  0
  1  2  1  0
  2  3  1  0
  2  4  1  0
  4  5  1  0
  4  6  1  0
  6  7  1  0
  7  8  1  0
  7  9  1  0
  9 10  1  0
 10 11  1  0
 11 12  1  0
 12 13  1  0
 13 14  1  0
 14 15  1  0
 15 16  1  0
  9 17  1  0
 17 18  1  0
 18 19  2  0
 18 20  1  0
 20 21  1  0
 21 22  1  0
 22 23  2  0
 23 24  1  0
 24 25  2  0
 25 26  1  0
 20 27  1  0
 27 28  1  0
 28 29  2  0
 28 30  1  0
 30 31  2  0
 31 32  1  0
 32 33  2  0
 33 34  1  0
 34 35  2  0
 35 36  1  0
 36 37  2  0
 37 38  1  0
 16 11  1  0
 26 22  1  0
 38 30  1  0
 37 32  1  0
  1 39  1  0
  1 40  1  0
  1 41  1  0
  2 42  1  0
  3 43  1  0
  3 44  1  0
  3 45  1  0
  4 46  1  1
  5 47  1  0
  6 48  1  0
  6 49  1  0
  7 50  1  1
  8 51  1  0
  9 52  1  1
 10 53  1  0
 10 54  1  0
 11 55  1  0
 12 56  1  0
 12 57  1  0
 13 58  1  0
 13 59  1  0
 14 60  1  0
 14 61  1  0
 15 62  1  0
 15 63  1  0
 16 64  1  0
 16 65  1  0
 17 66  1  0
 20 67  1  6
 21 68  1  0
 21 69  1  0
 23 70  1  0
 25 71  1  0
 26 72  1  0
 27 73  1  0
 31 74  1  0
 33 75  1  0
 34 76  1  0
 35 77  1  0
 36 78  1  0
 38 79  1  0
M  END
$$$$
