@<TRIPOS>MOLECULE
*****
 79 82 0 0 0
SMALL
GASTEIGER

@<TRIPOS>ATOM
      1 C          -2.2599   -4.0479    0.0654 C.3     1  UNL1       -0.0603
      2 C          -3.2020   -3.5969    1.1329 C.3     1  UNL1       -0.0205
      3 C          -4.5889   -3.3126    0.7173 C.3     1  UNL1       -0.0603
      4 C          -2.6388   -2.6200    2.1141 C.3     1  UNL1        0.0600
      5 O          -1.5624   -3.3321    2.7883 O.3     1  UNL1       -0.3914
      6 C          -2.0341   -1.3728    1.5967 C.3     1  UNL1        0.0012
      7 C          -2.8563   -0.4272    0.8011 C.3     1  UNL1        0.0759
      8 O          -3.3514   -0.9315   -0.3739 O.3     1  UNL1       -0.3899
      9 C          -2.0657    0.8669    0.5603 C.3     1  UNL1        0.0494
     10 C          -2.8393    2.0956    0.3750 C.3     1  UNL1       -0.0293
     11 C          -3.7988    2.1758   -0.7527 C.3     1  UNL1       -0.0393
     12 C          -4.4936    3.5515   -0.7629 C.3     1  UNL1       -0.0502
     13 C          -3.6417    4.5600   -1.4893 C.3     1  UNL1       -0.0528
     14 C          -3.7094    4.2067   -2.9722 C.3     1  UNL1       -0.0530
     15 C          -4.0130    2.7401   -3.1404 C.3     1  UNL1       -0.0528
     16 C          -3.1785    1.9771   -2.1095 C.3     1  UNL1       -0.0502
     17 N          -0.9883    0.6120   -0.3696 N.am    1  UNL1       -0.3084
     18 C           0.3914    0.6773    0.0457 C.2     1  UNL1        0.2340
     19 O           0.6118    0.9612    1.2356 O.2     1  UNL1       -0.2738
     20 C           1.5080    0.4079   -0.9437 C.3     1  UNL1        0.1050
     21 C           1.2701   -0.9027   -1.6023 C.3     1  UNL1        0.0160
     22 C           2.2408   -1.3259   -2.5972 C.ar    1  UNL1        0.0375
     23 C           3.3499   -0.6840   -3.0389 C.ar    1  UNL1        0.0485
     24 N           3.9432   -1.4594   -3.9773 N.ar    1  UNL1       -0.2440
     25 C           3.1994   -2.5541   -4.0983 C.ar    1  UNL1        0.0935
     26 N           2.1619   -2.4909   -3.2687 N.ar    1  UNL1       -0.3481
     27 N           2.7468    0.5260   -0.2441 N.am    1  UNL1       -0.2985
     28 C           3.0623   -0.2213    0.9182 C.2     1  UNL1        0.2610
     29 O           2.2525   -1.0490    1.4049 O.2     1  UNL1       -0.2686
     30 C           4.3546   -0.0352    1.5756 C.ar    1  UNL1        0.1028
     31 C           4.8115   -0.6776    2.7001 C.ar    1  UNL1       -0.0242
     32 C           6.0812   -0.1998    2.9758 C.ar    1  UNL1        0.0004
     33 C           7.0073   -0.4833    3.9725 C.ar    1  UNL1       -0.0526
     34 C           8.2154    0.1674    3.9879 C.ar    1  UNL1       -0.0611
     35 C           8.5072    1.0952    3.0212 C.ar    1  UNL1       -0.0598
     36 C           7.5964    1.3814    2.0316 C.ar    1  UNL1       -0.0378
     37 C           6.3808    0.7345    2.0065 C.ar    1  UNL1        0.0470
     38 N           5.3284    0.8159    1.1769 N.ar    1  UNL1       -0.3506
     39 H          -1.4911   -4.7174    0.4595 H       1  UNL1        0.0233
     40 H          -1.7812   -3.2052   -0.4760 H       1  UNL1        0.0233
     41 H          -2.8709   -4.5953   -0.6974 H       1  UNL1        0.0233
     42 H          -3.2897   -4.5723    1.8121 H       1  UNL1        0.0320
     43 H          -5.3077   -4.1162    1.0619 H       1  UNL1        0.0233
     44 H          -4.9561   -2.3877    1.2260 H       1  UNL1        0.0233
     45 H          -4.6836   -3.2555   -0.3931 H       1  UNL1        0.0233
     46 H          -3.3894   -2.4108    2.8884 H       1  UNL1        0.0596
     47 H          -2.0342   -4.0786    3.2299 H       1  UNL1        0.2098
     48 H          -1.0808   -1.6145    1.0128 H       1  UNL1        0.0316
     49 H          -1.6189   -0.8253    2.5013 H       1  UNL1        0.0316
     50 H          -3.7331   -0.0847    1.4483 H       1  UNL1        0.0612
     51 H          -4.3148   -0.7950   -0.4321 H       1  UNL1        0.2099
     52 H          -1.5636    1.0126    1.6079 H       1  UNL1        0.0524
     53 H          -3.4012    2.2973    1.3386 H       1  UNL1        0.0287
     54 H          -2.0905    2.9463    0.3302 H       1  UNL1        0.0287
     55 H          -4.6060    1.4293   -0.6297 H       1  UNL1        0.0301
     56 H          -4.7147    3.8660    0.2759 H       1  UNL1        0.0268
     57 H          -5.4629    3.4543   -1.2794 H       1  UNL1        0.0268
     58 H          -2.5896    4.5402   -1.1258 H       1  UNL1        0.0265
     59 H          -4.0504    5.5667   -1.2868 H       1  UNL1        0.0265
     60 H          -2.6703    4.3612   -3.3706 H       1  UNL1        0.0265
     61 H          -4.4158    4.8617   -3.5085 H       1  UNL1        0.0265
     62 H          -5.0776    2.4922   -3.0058 H       1  UNL1        0.0265
     63 H          -3.7074    2.4241   -4.1726 H       1  UNL1        0.0265
     64 H          -3.1784    0.9003   -2.3911 H       1  UNL1        0.0268
     65 H          -2.1426    2.3588   -2.1754 H       1  UNL1        0.0268
     66 H          -1.1418    0.3679   -1.3580 H       1  UNL1        0.1491
     67 H           1.4256    1.2386   -1.6972 H       1  UNL1        0.0598
     68 H           0.2437   -0.9489   -2.0512 H       1  UNL1        0.0351
     69 H           1.2776   -1.6856   -0.7817 H       1  UNL1        0.0351
     70 H           3.7454    0.2842   -2.7368 H       1  UNL1        0.0848
     71 H           3.3982   -3.3926   -4.7759 H       1  UNL1        0.1027
     72 H           1.4250   -3.2156   -3.1628 H       1  UNL1        0.1665
     73 H           3.4707    1.1923   -0.5794 H       1  UNL1        0.1498
     74 H           4.2963   -1.4262    3.2865 H       1  UNL1        0.0646
     75 H           6.7660   -1.2095    4.7198 H       1  UNL1        0.0624
     76 H           8.9277   -0.0611    4.7680 H       1  UNL1        0.0618
     77 H           9.4641    1.6275    3.0116 H       1  UNL1        0.0618
     78 H           7.8540    2.1139    1.2876 H       1  UNL1        0.0638
     79 H           5.2710    1.4342    0.3589 H       1  UNL1        0.1660
@<TRIPOS>BOND
     1     1     2    1
     2     2     3    1
     3     2     4    1
     4     4     5    1
     5     4     6    1
     6     6     7    1
     7     7     8    1
     8     7     9    1
     9     9    10    1
    10    10    11    1
    11    11    12    1
    12    12    13    1
    13    13    14    1
    14    14    15    1
    15    15    16    1
    16     9    17    1
    17    17    18   am
    18    18    19    2
    19    18    20    1
    20    20    21    1
    21    21    22    1
    22    22    23   ar
    23    23    24   ar
    24    24    25   ar
    25    25    26   ar
    26    20    27    1
    27    27    28   am
    28    28    29    2
    29    28    30    1
    30    30    31   ar
    31    31    32   ar
    32    32    33   ar
    33    33    34   ar
    34    34    35   ar
    35    35    36   ar
    36    36    37   ar
    37    37    38   ar
    38    16    11    1
    39    26    22   ar
    40    38    30   ar
    41    37    32   ar
    42     1    39    1
    43     1    40    1
    44     1    41    1
    45     2    42    1
    46     3    43    1
    47     3    44    1
    48     3    45    1
    49     4    46    1
    50     5    47    1
    51     6    48    1
    52     6    49    1
    53     7    50    1
    54     8    51    1
    55     9    52    1
    56    10    53    1
    57    10    54    1
    58    11    55    1
    59    12    56    1
    60    12    57    1
    61    13    58    1
    62    13    59    1
    63    14    60    1
    64    14    61    1
    65    15    62    1
    66    15    63    1
    67    16    64    1
    68    16    65    1
    69    17    66    1
    70    20    67    1
    71    21    68    1
    72    21    69    1
    73    23    70    1
    74    25    71    1
    75    26    72    1
    76    27    73    1
    77    31    74    1
    78    33    75    1
    79    34    76    1
    80    35    77    1
    81    36    78    1
    82    38    79    1
