@<TRIPOS>MOLECULE
*****
 21 22 0 0 0
SMALL
GASTEIGER

@<TRIPOS>ATOM
      1 C          -1.1486   -2.4351   -0.0998 C.3     1  UNL1        0.0181
      2 N          -0.5163   -1.1367   -0.0506 N.ar    1  UNL1       -0.2796
      3 C          -1.1831    0.0233   -0.0345 C.ar    1  UNL1        0.1676
      4 C          -0.5660    1.2647    0.0128 C.ar    1  UNL1        0.1488
      5 N          -1.5406    2.2209    0.0165 N.ar    1  UNL1       -0.3389
      6 C          -2.7467    1.6065   -0.0273 C.ar    1  UNL1        0.0963
      7 N          -2.5060    0.2738   -0.0577 N.ar    1  UNL1       -0.2179
      8 C           0.8110    1.2849    0.0446 C.ar    1  UNL1        0.2820
      9 O           1.3845    2.4057    0.0877 O.2     1  UNL1       -0.2652
     10 N           1.5109    0.1515    0.0299 N.ar    1  UNL1       -0.2622
     11 C           2.9635    0.1473    0.0626 C.3     1  UNL1        0.0196
     12 C           0.8399   -1.0144   -0.0166 C.ar    1  UNL1        0.3331
     13 O           1.5216   -2.0704   -0.0296 O.2     1  UNL1       -0.2462
     14 H          -1.9169   -2.4746    0.6801 H       1  UNL1        0.0458
     15 H          -0.3773   -3.2022    0.1875 H       1  UNL1        0.0458
     16 H          -1.4952   -2.7278   -1.1124 H       1  UNL1        0.0458
     17 H          -1.3660    3.2670    0.0486 H       1  UNL1        0.1670
     18 H          -3.7281    2.0606   -0.0373 H       1  UNL1        0.1027
     19 H           3.3299   -0.8892   -0.1309 H       1  UNL1        0.0458
     20 H           3.3160    0.4293    1.0932 H       1  UNL1        0.0458
     21 H           3.4132    0.8150   -0.6666 H       1  UNL1        0.0458
@<TRIPOS>BOND
     1     1     2    1
     2     2     3   ar
     3     3     4   ar
     4     4     5   ar
     5     5     6   ar
     6     6     7   ar
     7     4     8   ar
     8     8     9    2
     9     8    10   ar
    10    10    11    1
    11    10    12   ar
    12    12    13    2
    13    12     2   ar
    14     7     3   ar
    15     1    14    1
    16     1    15    1
    17     1    16    1
    18     5    17    1
    19     6    18    1
    20    11    19    1
    21    11    20    1
    22    11    21    1
