@<TRIPOS>MOLECULE
*****
 14 14 0 0 0
SMALL
GASTEIGER

@<TRIPOS>ATOM
      1 O          -2.3144    1.2042    0.8743 O.3     1  UNL1       -0.4771
      2 C          -1.8707    0.2740   -0.0663 C.2     1  UNL1        0.3383
      3 O          -2.7370   -0.2345   -0.7926 O.2     1  UNL1       -0.2451
      4 C          -0.4556   -0.0572   -0.1608 C.ar    1  UNL1        0.0769
      5 C          -0.0348   -0.9754   -1.0925 C.ar    1  UNL1        0.0415
      6 N           1.2786   -1.2759   -1.1727 N.ar    1  UNL1       -0.2624
      7 C           2.2027   -0.7099   -0.3720 C.ar    1  UNL1        0.0276
      8 C           1.7804    0.2262    0.5793 C.ar    1  UNL1       -0.0428
      9 C           0.4451    0.5529    0.6840 C.ar    1  UNL1       -0.0449
     10 H          -3.3175    1.3721    1.0161 H       1  UNL1        0.2954
     11 H          -0.7151   -1.4688   -1.7665 H       1  UNL1        0.0838
     12 H           3.2613   -0.9168   -0.3976 H       1  UNL1        0.0829
     13 H           2.4139    0.7541    1.2824 H       1  UNL1        0.0633
     14 H           0.0632    1.2548    1.3848 H       1  UNL1        0.0627
@<TRIPOS>BOND
     1     1     2    1
     2     2     3    2
     3     2     4    1
     4     4     5   ar
     5     5     6   ar
     6     6     7   ar
     7     7     8   ar
     8     8     9   ar
     9     9     4   ar
    10     1    10    1
    11     5    11    1
    12     7    12    1
    13     8    13    1
    14     9    14    1
