
     RDKit          3D

 14 14  0  0  0  0  0  0  0  0999 V2000
   -2.3144    1.2042    0.8743 O   0  0  0  0  0  0  0  0  0  0  0  0
   -1.8707    0.2740   -0.0663 C   0  0  0  0  0  0  0  0  0  0  0  0
   -2.7370   -0.2345   -0.7926 O   0  0  0  0  0  0  0  0  0  0  0  0
   -0.4556   -0.0572   -0.1608 C   0  0  0  0  0  0  0  0  0  0  0  0
   -0.0348   -0.9754   -1.0925 C   0  0  0  0  0  0  0  0  0  0  0  0
    1.2786   -1.2759   -1.1727 N   0  0  0  0  0  0  0  0  0  0  0  0
    2.2027   -0.7099   -0.3720 C   0  0  0  0  0  0  0  0  0  0  0  0
    1.7804    0.2262    0.5793 C   0  0  0  0  0  0  0  0  0  0  0  0
    0.4451    0.5529    0.6840 C   0  0  0  0  0  0  0  0  0  0  0  0
   -3.3175    1.3721    1.0161 H   0  0  0  0  0  0  0  0  0  0  0  0
   -0.7151   -1.4688   -1.7665 H   0  0  0  0  0  0  0  0  0  0  0  0
    3.2613   -0.9168   -0.3976 H   0  0  0  0  0  0  0  0  0  0  0  0
    2.4139    0.7541    1.2824 H   0  0  0  0  0  0  0  0  0  0  0  0
    0.0632    1.2548    1.3848 H   0  0  0  0  0  0  0  0  0  0  0  0
  1  2  1  0
  2  3  2  0
  2  4  1  0
  4  5  2  0
  5  6  1  0
  6  7  2  0
  7  8  1  0
  8  9  2  0
  9  4  1  0
  1 10  1  0
  5 11  1  0
  7 12  1  0
  8 13  1  0
  9 14  1  0
M  END
$$$$
