@<TRIPOS>MOLECULE
*****
 42 44 0 0 0
SMALL
GASTEIGER

@<TRIPOS>ATOM
      1 C          -4.2231   -2.4864    0.5085 C.3     1  UNL1       -0.0652
      2 C          -3.7766   -1.1090   -0.0021 C.3     1  UNL1       -0.0530
      3 C          -2.2898   -1.0517    0.2289 C.3     1  UNL1       -0.0188
      4 C          -1.6573    0.2462   -0.2207 C.3     1  UNL1        0.1107
      5 C          -2.2691    1.4200    0.5381 C.3     1  UNL1        0.0784
      6 C          -1.6886    2.7099    0.1430 C.2     1  UNL1        0.3078
      7 O          -2.0578    3.3352   -0.8849 O.2     1  UNL1       -0.2509
      8 O          -0.6909    3.2843    0.9170 O.3     1  UNL1       -0.4805
      9 O          -1.8885    0.4503   -1.5364 O.3     1  UNL1       -0.3674
     10 C          -0.8142    0.7425   -2.3177 C.3     1  UNL1        0.0529
     11 C           0.1610   -0.4474   -2.1681 C.3     1  UNL1       -0.0026
     12 C           0.7834   -0.1829   -0.7943 C.ar    1  UNL1       -0.0232
     13 C          -0.2134    0.1726    0.0996 C.ar    1  UNL1        0.0263
     14 S           0.6537    0.4712    1.6107 S.2     1  UNL1       -0.0897
     15 C           2.2773    0.1047    0.9612 C.ar    1  UNL1        0.0243
     16 C           3.5119    0.1231    1.5998 C.ar    1  UNL1       -0.0334
     17 C           3.5142    0.5017    3.0224 C.3     1  UNL1       -0.0386
     18 C           4.6464   -0.2053    0.8939 C.ar    1  UNL1       -0.0212
     19 C           4.4634   -0.5361   -0.4258 C.ar    1  UNL1        0.1416
     20 F           5.5757   -0.8677   -1.1521 F       1  UNL1       -0.2041
     21 C           3.2297   -0.5485   -1.0407 C.ar    1  UNL1        0.0953
     22 C           3.2210   -0.9475   -2.4396 C.1     1  UNL1        0.1027
     23 N           3.2332   -1.2640   -3.5770 N.1     1  UNL1       -0.1908
     24 C           2.0547   -0.2149   -0.3399 C.ar    1  UNL1        0.0132
     25 H          -3.7586   -2.6493    1.4971 H       1  UNL1        0.0230
     26 H          -5.3080   -2.5902    0.5511 H       1  UNL1        0.0230
     27 H          -3.7894   -3.2634   -0.1773 H       1  UNL1        0.0230
     28 H          -3.9667   -1.1020   -1.0959 H       1  UNL1        0.0264
     29 H          -4.3041   -0.3113    0.5376 H       1  UNL1        0.0264
     30 H          -1.7546   -1.9070   -0.1777 H       1  UNL1        0.0296
     31 H          -2.1235   -1.0927    1.3481 H       1  UNL1        0.0296
     32 H          -3.3449    1.4473    0.2676 H       1  UNL1        0.0410
     33 H          -2.1879    1.2048    1.6045 H       1  UNL1        0.0410
     34 H          -0.4828    4.2752    0.9167 H       1  UNL1        0.2951
     35 H          -1.1637    0.8186   -3.3746 H       1  UNL1        0.0563
     36 H          -0.2302    1.6267   -2.0055 H       1  UNL1        0.0563
     37 H           0.8747   -0.4519   -2.9696 H       1  UNL1        0.0336
     38 H          -0.4715   -1.3434   -2.1031 H       1  UNL1        0.0336
     39 H           3.7059    1.5882    3.1095 H       1  UNL1        0.0278
     40 H           2.5766    0.2490    3.5452 H       1  UNL1        0.0278
     41 H           4.3972   -0.0168    3.4959 H       1  UNL1        0.0278
     42 H           5.5754   -0.1819    1.4067 H       1  UNL1        0.0649
@<TRIPOS>BOND
     1     1     2    1
     2     2     3    1
     3     4     3    1
     4     4     5    1
     5     5     6    1
     6     6     7    2
     7     6     8    1
     8     4     9    1
     9     9    10    1
    10    10    11    1
    11    11    12    1
    12    12    13   ar
    13    13    14   ar
    14    14    15   ar
    15    15    16   ar
    16    16    17    1
    17    16    18   ar
    18    18    19   ar
    19    19    20    1
    20    19    21   ar
    21    21    22    1
    22    22    23    3
    23    21    24   ar
    24    13     4    1
    25    24    15   ar
    26    24    12   ar
    27     1    25    1
    28     1    26    1
    29     1    27    1
    30     2    28    1
    31     2    29    1
    32     3    30    1
    33     3    31    1
    34     5    32    1
    35     5    33    1
    36     8    34    1
    37    10    35    1
    38    10    36    1
    39    11    37    1
    40    11    38    1
    41    17    39    1
    42    17    40    1
    43    17    41    1
    44    18    42    1
