@<TRIPOS>MOLECULE
*****
 63 67 0 0 0
SMALL
GASTEIGER

@<TRIPOS>ATOM
      1 C          -0.2264   -2.5254    1.0738 C.3     1  UNL1       -0.0409
      2 C           0.1329   -1.0524    0.9736 C.3     1  UNL1        0.0845
      3 C          -0.8913   -0.3760    0.1283 C.2     1  UNL1        0.2302
      4 O          -0.5747    0.2439   -0.9136 O.2     1  UNL1       -0.2741
      5 N          -2.2726   -0.4019    0.4632 N.am    1  UNL1       -0.3106
      6 C          -3.2772    0.2619   -0.3665 C.3     1  UNL1        0.0290
      7 C          -4.3195   -0.6937   -0.8563 C.3     1  UNL1       -0.0195
      8 C          -5.2009   -1.2115    0.2604 C.3     1  UNL1       -0.0455
      9 C          -5.8837   -0.0612    0.9547 C.3     1  UNL1       -0.0378
     10 C          -4.7809    0.8169    1.5386 C.3     1  UNL1       -0.0455
     11 C          -3.9658    1.3697    0.4146 C.3     1  UNL1       -0.0195
     12 C          -4.7787    2.1753   -0.5613 C.3     1  UNL1       -0.0195
     13 C          -5.8384    1.2568   -1.1350 C.3     1  UNL1        0.0670
     14 O          -6.5858    1.9737   -2.0373 O.3     1  UNL1       -0.3885
     15 C          -6.6933    0.7832    0.0234 C.3     1  UNL1       -0.0211
     16 C          -5.2176    0.0555   -1.8175 C.3     1  UNL1       -0.0195
     17 N           1.4663   -0.8498    0.5151 N.3     1  UNL1       -0.2887
     18 C           1.8696    0.5234    0.5043 C.3     1  UNL1        0.0154
     19 C           3.0829    0.6053   -0.4093 C.3     1  UNL1        0.0263
     20 N           4.0924   -0.2596    0.2085 N.pl3   1  UNL1       -0.3127
     21 C           5.4493    0.0162   -0.1155 C.ar    1  UNL1        0.1213
     22 C           6.4901   -0.7362    0.4091 C.ar    1  UNL1       -0.0212
     23 C           7.8154   -0.4946    0.1150 C.ar    1  UNL1       -0.0454
     24 C           8.1459    0.5381   -0.7381 C.ar    1  UNL1        0.0730
     25 C           9.5711    0.8298   -1.0798 C.3     1  UNL1        0.4188
     26 F           9.9815    0.0448   -2.1151 F       1  UNL1       -0.1658
     27 F          10.3496    0.7065    0.0527 F       1  UNL1       -0.1658
     28 F           9.6226    2.1597   -1.4584 F       1  UNL1       -0.1658
     29 C           7.1013    1.2767   -1.2512 C.ar    1  UNL1        0.0413
     30 N           5.8164    1.0184   -0.9469 N.ar    1  UNL1       -0.2398
     31 C           3.8078   -1.3358    1.0941 C.3     1  UNL1        0.0263
     32 C           2.3689   -1.5719    1.3802 C.3     1  UNL1        0.0154
     33 H          -1.3226   -2.5620    1.2913 H       1  UNL1        0.0249
     34 H           0.0121   -3.0931    0.1753 H       1  UNL1        0.0249
     35 H           0.2507   -2.9770    1.9924 H       1  UNL1        0.0249
     36 H           0.0387   -0.6301    1.9913 H       1  UNL1        0.0556
     37 H          -2.5330   -0.9210    1.3350 H       1  UNL1        0.1490
     38 H          -2.7732    0.7297   -1.2116 H       1  UNL1        0.0504
     39 H          -3.8967   -1.5499   -1.4006 H       1  UNL1        0.0320
     40 H          -4.6696   -1.8153    0.9978 H       1  UNL1        0.0271
     41 H          -6.0146   -1.8052   -0.2479 H       1  UNL1        0.0271
     42 H          -6.5413   -0.4427    1.7448 H       1  UNL1        0.0302
     43 H          -5.1998    1.6413    2.1261 H       1  UNL1        0.0271
     44 H          -4.1440    0.1472    2.1404 H       1  UNL1        0.0271
     45 H          -3.1363    1.9767    0.8651 H       1  UNL1        0.0320
     46 H          -4.1057    2.5800   -1.3349 H       1  UNL1        0.0296
     47 H          -5.2906    2.9705   -0.0132 H       1  UNL1        0.0296
     48 H          -6.7435    2.8945   -1.6871 H       1  UNL1        0.2102
     49 H          -6.9728    1.7165    0.5950 H       1  UNL1        0.0296
     50 H          -7.6153    0.3139   -0.3315 H       1  UNL1        0.0296
     51 H          -6.0789   -0.6184   -2.0833 H       1  UNL1        0.0296
     52 H          -4.6820    0.3333   -2.7293 H       1  UNL1        0.0296
     53 H           1.1254    1.2636    0.2468 H       1  UNL1        0.0442
     54 H           2.2291    0.7751    1.5275 H       1  UNL1        0.0442
     55 H           3.4329    1.6516   -0.4733 H       1  UNL1        0.0477
     56 H           2.8265    0.2204   -1.4358 H       1  UNL1        0.0477
     57 H           6.2414   -1.5423    1.0742 H       1  UNL1        0.0652
     58 H           8.6226   -1.0971    0.5370 H       1  UNL1        0.0625
     59 H           7.3293    2.0829   -1.9150 H       1  UNL1        0.0836
     60 H           4.2660   -2.2666    0.6546 H       1  UNL1        0.0477
     61 H           4.3954   -1.1638    2.0413 H       1  UNL1        0.0477
     62 H           2.1603   -1.2290    2.4233 H       1  UNL1        0.0442
     63 H           2.1324   -2.6693    1.2673 H       1  UNL1        0.0442
@<TRIPOS>BOND
     1     1     2    1
     2     2     3    1
     3     3     4    2
     4     3     5   am
     5     5     6    1
     6     6     7    1
     7     7     8    1
     8     8     9    1
     9     9    10    1
    10    10    11    1
    11    11    12    1
    12    12    13    1
    13    13    14    1
    14    13    15    1
    15    13    16    1
    16     2    17    1
    17    17    18    1
    18    18    19    1
    19    19    20    1
    20    20    21    1
    21    21    22   ar
    22    22    23   ar
    23    23    24   ar
    24    24    25    1
    25    25    26    1
    26    25    27    1
    27    25    28    1
    28    24    29   ar
    29    29    30   ar
    30    20    31    1
    31    31    32    1
    32    11     6    1
    33    32    17    1
    34    16     7    1
    35    30    21   ar
    36    15     9    1
    37     1    33    1
    38     1    34    1
    39     1    35    1
    40     2    36    1
    41     5    37    1
    42     6    38    1
    43     7    39    1
    44     8    40    1
    45     8    41    1
    46     9    42    1
    47    10    43    1
    48    10    44    1
    49    11    45    1
    50    12    46    1
    51    12    47    1
    52    14    48    1
    53    15    49    1
    54    15    50    1
    55    16    51    1
    56    16    52    1
    57    18    53    1
    58    18    54    1
    59    19    55    1
    60    19    56    1
    61    22    57    1
    62    23    58    1
    63    29    59    1
    64    31    60    1
    65    31    61    1
    66    32    62    1
    67    32    63    1
