@<TRIPOS>MOLECULE
*****
 55 58 0 0 0
SMALL
GASTEIGER

@<TRIPOS>ATOM
      1 C          -2.8139    3.7833   -1.0945 C.3     1  UNL1       -0.0598
      2 C          -2.4624    3.3979    0.3402 C.3     1  UNL1       -0.0132
      3 C          -2.4485    1.9122    0.3803 C.ar    1  UNL1        0.0417
      4 C          -1.3287    1.1622    0.1287 C.ar    1  UNL1       -0.0327
      5 C          -1.3633   -0.1969    0.1768 C.ar    1  UNL1        0.0140
      6 C          -0.1346   -0.9907   -0.1036 C.3     1  UNL1        0.2647
      7 C           0.9509   -0.6195    0.8580 C.ar    1  UNL1        0.0112
      8 C           0.8036   -0.8902    2.1967 C.ar    1  UNL1       -0.0540
      9 C           1.7848   -0.5632    3.1287 C.ar    1  UNL1       -0.0608
     10 C           2.9251    0.0482    2.6662 C.ar    1  UNL1       -0.0539
     11 C           3.0666    0.3196    1.3045 C.ar    1  UNL1       -0.0132
     12 C           4.2715    0.9675    0.8131 C.ar    1  UNL1        0.0365
     13 C           4.8149    2.0570    1.4326 C.ar    1  UNL1       -0.0483
     14 C           5.9555    2.6448    0.9389 C.ar    1  UNL1       -0.0428
     15 C           6.5299    2.1146   -0.1820 C.ar    1  UNL1        0.0307
     16 N           6.0003    1.0375   -0.8017 N.ar    1  UNL1       -0.2271
     17 C           4.8905    0.4727   -0.3138 C.ar    1  UNL1        0.2209
     18 F           4.3429   -0.6231   -0.9336 F       1  UNL1       -0.1832
     19 C           2.0854   -0.0101    0.3920 C.ar    1  UNL1       -0.0462
     20 N           0.3507   -0.7703   -1.4330 N.2     1  UNL1       -0.0891
     21 C           0.3858   -1.8341   -2.1358 C.2     1  UNL1        0.3731
     22 N           0.8210   -1.9579   -3.5130 N.pl3   1  UNL1       -0.2512
     23 N          -0.0651   -2.9331   -1.3537 N.am    1  UNL1       -0.1614
     24 C          -0.1804   -4.3354   -1.7848 C.3     1  UNL1        0.0573
     25 C          -0.3922   -2.4468   -0.0642 C.2     1  UNL1        0.3303
     26 O          -0.8115   -3.1922    0.8648 O.2     1  UNL1       -0.2520
     27 C          -2.5509   -0.8164    0.4847 C.ar    1  UNL1       -0.0327
     28 C          -3.6869   -0.0401    0.7396 C.ar    1  UNL1        0.0417
     29 C          -4.9610   -0.7271    1.0709 C.3     1  UNL1       -0.0132
     30 C          -5.6945   -0.9767   -0.2524 C.3     1  UNL1       -0.0598
     31 N          -3.6057    1.3003    0.6807 N.ar    1  UNL1       -0.2565
     32 H          -3.2983    4.7761   -1.1470 H       1  UNL1        0.0233
     33 H          -1.8782    3.7312   -1.6733 H       1  UNL1        0.0233
     34 H          -3.5051    3.0278   -1.5338 H       1  UNL1        0.0233
     35 H          -3.2810    3.7976    0.9787 H       1  UNL1        0.0326
     36 H          -1.5228    3.8430    0.6701 H       1  UNL1        0.0326
     37 H          -0.4146    1.6992   -0.1101 H       1  UNL1        0.0640
     38 H          -0.1126   -1.3739    2.5190 H       1  UNL1        0.0622
     39 H           1.6182   -0.7982    4.1662 H       1  UNL1        0.0618
     40 H           3.7132    0.3169    3.3726 H       1  UNL1        0.0624
     41 H           4.3406    2.4677    2.3294 H       1  UNL1        0.0625
     42 H           6.3840    3.5146    1.4386 H       1  UNL1        0.0633
     43 H           7.4328    2.5481   -0.6064 H       1  UNL1        0.0830
     44 H           2.2296    0.2195   -0.6770 H       1  UNL1        0.0628
     45 H           0.3713   -1.4406   -4.2812 H       1  UNL1        0.2412
     46 H           1.6222   -2.6095   -3.6643 H       1  UNL1        0.2412
     47 H           0.3503   -4.4896   -2.7251 H       1  UNL1        0.0602
     48 H          -1.2576   -4.5799   -1.8371 H       1  UNL1        0.0602
     49 H           0.2587   -5.0141   -1.0135 H       1  UNL1        0.0602
     50 H          -2.6738   -1.8781    0.5433 H       1  UNL1        0.0640
     51 H          -4.7239   -1.7281    1.4713 H       1  UNL1        0.0326
     52 H          -5.5927   -0.1312    1.7544 H       1  UNL1        0.0326
     53 H          -6.3828   -1.8461   -0.1612 H       1  UNL1        0.0233
     54 H          -6.2340   -0.0836   -0.5953 H       1  UNL1        0.0233
     55 H          -4.9231   -1.2631   -1.0166 H       1  UNL1        0.0233
@<TRIPOS>BOND
     1     1     2    1
     2     2     3    1
     3     3     4   ar
     4     4     5   ar
     5     6     5    1
     6     6     7    1
     7     7     8   ar
     8     8     9   ar
     9     9    10   ar
    10    10    11   ar
    11    11    12    1
    12    12    13   ar
    13    13    14   ar
    14    14    15   ar
    15    15    16   ar
    16    16    17   ar
    17    17    18    1
    18    11    19   ar
    19     6    20    1
    20    20    21    2
    21    21    22    1
    22    21    23    1
    23    23    24    1
    24    23    25   am
    25    25    26    2
    26     5    27   ar
    27    27    28   ar
    28    28    29    1
    29    29    30    1
    30    28    31   ar
    31    31     3   ar
    32    25     6    1
    33    19     7   ar
    34    17    12   ar
    35     1    32    1
    36     1    33    1
    37     1    34    1
    38     2    35    1
    39     2    36    1
    40     4    37    1
    41     8    38    1
    42     9    39    1
    43    10    40    1
    44    13    41    1
    45    14    42    1
    46    15    43    1
    47    19    44    1
    48    22    45    1
    49    22    46    1
    50    24    47    1
    51    24    48    1
    52    24    49    1
    53    27    50    1
    54    29    51    1
    55    29    52    1
    56    30    53    1
    57    30    54    1
    58    30    55    1
