@<TRIPOS>MOLECULE
*****
 61 65 0 0 0
SMALL
GASTEIGER

@<TRIPOS>ATOM
      1 C           7.7520   -2.0781   -1.0375 C.3     1  UNL1       -0.0223
      2 C           6.6565   -1.3297   -0.3328 C.ar    1  UNL1        0.0403
      3 C           5.3457   -1.5128   -0.7001 C.ar    1  UNL1       -0.0194
      4 C           4.2803   -0.8429   -0.0807 C.ar    1  UNL1        0.0358
      5 N           2.9792   -1.1217   -0.5291 N.pl3   1  UNL1       -0.2993
      6 C           1.8922   -0.2242   -0.3114 C.ar    1  UNL1        0.1246
      7 C           0.6126   -0.5651   -0.7080 C.ar    1  UNL1       -0.0000
      8 C          -0.4859    0.2981   -0.5246 C.ar    1  UNL1        0.0420
      9 N          -1.7587   -0.1247   -0.9425 N.pl3   1  UNL1       -0.3378
     10 C          -1.8575   -1.5021   -1.4909 C.3     1  UNL1        0.0494
     11 C          -3.2501   -1.7377   -2.0324 C.3     1  UNL1       -0.0247
     12 C          -3.6660   -3.0340   -1.3858 C.3     1  UNL1        0.0124
     13 C          -5.1702   -3.1682   -1.3403 C.3     1  UNL1        0.0495
     14 O          -5.4981   -4.3667   -0.7408 O.3     1  UNL1       -0.3946
     15 C          -3.0895   -2.8526    0.0153 C.3     1  UNL1        0.0877
     16 O          -3.1362   -4.0025    0.7603 O.3     1  UNL1       -0.3888
     17 C          -1.6431   -2.5089   -0.3954 C.3     1  UNL1        0.0995
     18 O          -1.1368   -3.6797   -0.9938 O.3     1  UNL1       -0.3874
     19 C          -0.2584    1.4773    0.0524 C.ar    1  UNL1        0.0462
     20 C          -1.3086    2.4759    0.3203 C.ar    1  UNL1        0.1127
     21 N          -1.2399    3.6084    0.8463 N.ar    1  UNL1       -0.2389
     22 C          -2.2323    4.4142    1.0441 C.ar    1  UNL1        0.0789
     23 C          -2.2195    5.6968    1.6290 C.ar    1  UNL1       -0.0352
     24 C          -3.3602    6.4309    1.7693 C.ar    1  UNL1       -0.0597
     25 C          -4.5908    5.9833    1.3575 C.ar    1  UNL1       -0.0606
     26 C          -4.6486    4.7114    0.7699 C.ar    1  UNL1       -0.0459
     27 C          -3.4676    3.9975    0.6455 C.ar    1  UNL1        0.0395
     28 S          -3.0641    2.3679   -0.0262 S.2     1  UNL1       -0.0671
     29 C           1.0530    1.8299    0.4598 C.ar    1  UNL1        0.0411
     30 N           2.0405    0.9700    0.2573 N.ar    1  UNL1       -0.2394
     31 C           4.6355    0.0144    0.9251 C.ar    1  UNL1       -0.0194
     32 C           5.9620    0.1869    1.2820 C.ar    1  UNL1        0.0403
     33 C           6.2914    1.1412    2.3916 C.3     1  UNL1       -0.0223
     34 N           6.9368   -0.4688    0.6672 N.ar    1  UNL1       -0.2569
     35 H           7.5427   -3.1820   -1.0314 H       1  UNL1        0.0292
     36 H           8.6937   -1.9501   -0.4624 H       1  UNL1        0.0292
     37 H           7.8686   -1.6902   -2.0678 H       1  UNL1        0.0292
     38 H           5.1360   -2.2086   -1.5062 H       1  UNL1        0.0654
     39 H           2.8105   -2.0319   -1.0431 H       1  UNL1        0.1536
     40 H           0.4765   -1.5085   -1.1723 H       1  UNL1        0.0671
     41 H          -2.6411    0.4048   -0.9224 H       1  UNL1        0.1465
     42 H          -1.1545   -1.5711   -2.3326 H       1  UNL1        0.0524
     43 H          -3.2648   -1.7810   -3.1423 H       1  UNL1        0.0288
     44 H          -3.9013   -0.9315   -1.6277 H       1  UNL1        0.0288
     45 H          -3.1672   -3.9147   -1.8136 H       1  UNL1        0.0349
     46 H          -5.5278   -3.1957   -2.3824 H       1  UNL1        0.0561
     47 H          -5.5708   -2.2824   -0.8214 H       1  UNL1        0.0561
     48 H          -6.1035   -4.2609    0.0368 H       1  UNL1        0.2094
     49 H          -3.5600   -1.9797    0.4748 H       1  UNL1        0.0623
     50 H          -3.5142   -3.7633    1.6645 H       1  UNL1        0.2099
     51 H          -1.0744   -2.1672    0.4646 H       1  UNL1        0.0638
     52 H          -0.9743   -4.3916   -0.3211 H       1  UNL1        0.2100
     53 H          -1.2921    6.1286    1.9825 H       1  UNL1        0.0639
     54 H          -3.2823    7.4422    2.2420 H       1  UNL1        0.0618
     55 H          -5.4742    6.5532    1.4668 H       1  UNL1        0.0618
     56 H          -5.5697    4.2723    0.4145 H       1  UNL1        0.0629
     57 H           1.1939    2.7881    0.9200 H       1  UNL1        0.0838
     58 H           3.9001    0.5600    1.4626 H       1  UNL1        0.0654
     59 H           5.4423    1.1511    3.1044 H       1  UNL1        0.0292
     60 H           7.2487    0.8829    2.8631 H       1  UNL1        0.0292
     61 H           6.4035    2.1439    1.9293 H       1  UNL1        0.0292
@<TRIPOS>BOND
     1     1     2    1
     2     2     3   ar
     3     3     4   ar
     4     4     5    1
     5     5     6    1
     6     6     7   ar
     7     7     8   ar
     8     8     9    1
     9     9    10    1
    10    10    11    1
    11    11    12    1
    12    12    13    1
    13    13    14    1
    14    12    15    1
    15    15    16    1
    16    15    17    1
    17    17    18    1
    18     8    19   ar
    19    19    20    1
    20    20    21   ar
    21    21    22   ar
    22    22    23   ar
    23    23    24   ar
    24    24    25   ar
    25    25    26   ar
    26    26    27   ar
    27    27    28   ar
    28    19    29   ar
    29    29    30   ar
    30     4    31   ar
    31    31    32   ar
    32    32    33    1
    33    32    34   ar
    34    34     2   ar
    35    30     6   ar
    36    17    10    1
    37    28    20   ar
    38    27    22   ar
    39     1    35    1
    40     1    36    1
    41     1    37    1
    42     3    38    1
    43     5    39    1
    44     7    40    1
    45     9    41    1
    46    10    42    1
    47    11    43    1
    48    11    44    1
    49    12    45    1
    50    13    46    1
    51    13    47    1
    52    14    48    1
    53    15    49    1
    54    16    50    1
    55    17    51    1
    56    18    52    1
    57    23    53    1
    58    24    54    1
    59    25    55    1
    60    26    56    1
    61    29    57    1
    62    31    58    1
    63    33    59    1
    64    33    60    1
    65    33    61    1
