
     RDKit          3D

 61 65  0  0  0  0  0  0  0  0999 V2000
    7.7520   -2.0781   -1.0375 C   0  0  0  0  0  0  0  0  0  0  0  0
    6.6565   -1.3297   -0.3328 C   0  0  0  0  0  0  0  0  0  0  0  0
    5.3457   -1.5128   -0.7001 C   0  0  0  0  0  0  0  0  0  0  0  0
    4.2803   -0.8429   -0.0807 C   0  0  0  0  0  0  0  0  0  0  0  0
    2.9792   -1.1217   -0.5291 N   0  0  0  0  0  0  0  0  0  0  0  0
    1.8922   -0.2242   -0.3114 C   0  0  0  0  0  0  0  0  0  0  0  0
    0.6126   -0.5651   -0.7080 C   0  0  0  0  0  0  0  0  0  0  0  0
   -0.4859    0.2981   -0.5246 C   0  0  0  0  0  0  0  0  0  0  0  0
   -1.7587   -0.1247   -0.9425 N   0  0  0  0  0  0  0  0  0  0  0  0
   -1.8575   -1.5021   -1.4909 C   0  0  2  0  0  0  0  0  0  0  0  0
   -3.2501   -1.7377   -2.0324 C   0  0  0  0  0  0  0  0  0  0  0  0
   -3.6660   -3.0340   -1.3858 C   0  0  2  0  0  0  0  0  0  0  0  0
   -5.1702   -3.1682   -1.3403 C   0  0  0  0  0  0  0  0  0  0  0  0
   -5.4981   -4.3667   -0.7408 O   0  0  0  0  0  0  0  0  0  0  0  0
   -3.0895   -2.8526    0.0153 C   0  0  1  0  0  0  0  0  0  0  0  0
   -3.1362   -4.0025    0.7603 O   0  0  0  0  0  0  0  0  0  0  0  0
   -1.6431   -2.5089   -0.3954 C   0  0  1  0  0  0  0  0  0  0  0  0
   -1.1368   -3.6797   -0.9938 O   0  0  0  0  0  0  0  0  0  0  0  0
   -0.2584    1.4773    0.0524 C   0  0  0  0  0  0  0  0  0  0  0  0
   -1.3086    2.4759    0.3203 C   0  0  0  0  0  0  0  0  0  0  0  0
   -1.2399    3.6084    0.8463 N   0  0  0  0  0  0  0  0  0  0  0  0
   -2.2323    4.4142    1.0441 C   0  0  0  0  0  0  0  0  0  0  0  0
   -2.2195    5.6968    1.6290 C   0  0  0  0  0  0  0  0  0  0  0  0
   -3.3602    6.4309    1.7693 C   0  0  0  0  0  0  0  0  0  0  0  0
   -4.5908    5.9833    1.3575 C   0  0  0  0  0  0  0  0  0  0  0  0
   -4.6486    4.7114    0.7699 C   0  0  0  0  0  0  0  0  0  0  0  0
   -3.4676    3.9975    0.6455 C   0  0  0  0  0  0  0  0  0  0  0  0
   -3.0641    2.3679   -0.0262 S   0  0  0  0  0  0  0  0  0  0  0  0
    1.0530    1.8299    0.4598 C   0  0  0  0  0  0  0  0  0  0  0  0
    2.0405    0.9700    0.2573 N   0  0  0  0  0  0  0  0  0  0  0  0
    4.6355    0.0144    0.9251 C   0  0  0  0  0  0  0  0  0  0  0  0
    5.9620    0.1869    1.2820 C   0  0  0  0  0  0  0  0  0  0  0  0
    6.2914    1.1412    2.3916 C   0  0  0  0  0  0  0  0  0  0  0  0
    6.9368   -0.4688    0.6672 N   0  0  0  0  0  0  0  0  0  0  0  0
    7.5427   -3.1820   -1.0314 H   0  0  0  0  0  0  0  0  0  0  0  0
    8.6937   -1.9501   -0.4624 H   0  0  0  0  0  0  0  0  0  0  0  0
    7.8686   -1.6902   -2.0678 H   0  0  0  0  0  0  0  0  0  0  0  0
    5.1360   -2.2086   -1.5062 H   0  0  0  0  0  0  0  0  0  0  0  0
    2.8105   -2.0319   -1.0431 H   0  0  0  0  0  0  0  0  0  0  0  0
    0.4765   -1.5085   -1.1723 H   0  0  0  0  0  0  0  0  0  0  0  0
   -2.6411    0.4048   -0.9224 H   0  0  0  0  0  0  0  0  0  0  0  0
   -1.1545   -1.5711   -2.3326 H   0  0  0  0  0  0  0  0  0  0  0  0
   -3.2648   -1.7810   -3.1423 H   0  0  0  0  0  0  0  0  0  0  0  0
   -3.9013   -0.9315   -1.6277 H   0  0  0  0  0  0  0  0  0  0  0  0
   -3.1672   -3.9147   -1.8136 H   0  0  0  0  0  0  0  0  0  0  0  0
   -5.5278   -3.1957   -2.3824 H   0  0  0  0  0  0  0  0  0  0  0  0
   -5.5708   -2.2824   -0.8214 H   0  0  0  0  0  0  0  0  0  0  0  0
   -6.1035   -4.2609    0.0368 H   0  0  0  0  0  0  0  0  0  0  0  0
   -3.5600   -1.9797    0.4748 H   0  0  0  0  0  0  0  0  0  0  0  0
   -3.5142   -3.7633    1.6645 H   0  0  0  0  0  0  0  0  0  0  0  0
   -1.0744   -2.1672    0.4646 H   0  0  0  0  0  0  0  0  0  0  0  0
   -0.9743   -4.3916   -0.3211 H   0  0  0  0  0  0  0  0  0  0  0  0
   -1.2921    6.1286    1.9825 H   0  0  0  0  0  0  0  0  0  0  0  0
   -3.2823    7.4422    2.2420 H   0  0  0  0  0  0  0  0  0  0  0  0
   -5.4742    6.5532    1.4668 H   0  0  0  0  0  0  0  0  0  0  0  0
   -5.5697    4.2723    0.4145 H   0  0  0  0  0  0  0  0  0  0  0  0
    1.1939    2.7881    0.9200 H   0  0  0  0  0  0  0  0  0  0  0  0
    3.9001    0.5600    1.4626 H   0  0  0  0  0  0  0  0  0  0  0  0
    5.4423    1.1511    3.1044 H   0  0  0  0  0  0  0  0  0  0  0  0
    7.2487    0.8829    2.8631 H   0  0  0  0  0  0  0  0  0  0  0  0
    6.4035    2.1439    1.9293 H   0  0  0  0  0  0  0  0  0  0  0  0
  1  2  1  0
  2  3  2  0
  3  4  1  0
  4  5  1  0
  5  6  1  0
  6  7  2  0
  7  8  1  0
  8  9  1  0
  9 10  1  0
 10 11  1  0
 11 12  1  0
 12 13  1  0
 13 14  1  0
 12 15  1  0
 15 16  1  0
 15 17  1  0
 17 18  1  0
  8 19  2  0
 19 20  1  0
 20 21  2  0
 21 22  1  0
 22 23  2  0
 23 24  1  0
 24 25  2  0
 25 26  1  0
 26 27  2  0
 27 28  1  0
 19 29  1  0
 29 30  2  0
  4 31  2  0
 31 32  1  0
 32 33  1  0
 32 34  2  0
 34  2  1  0
 30  6  1  0
 17 10  1  0
 28 20  1  0
 27 22  1  0
  1 35  1  0
  1 36  1  0
  1 37  1  0
  3 38  1  0
  5 39  1  0
  7 40  1  0
  9 41  1  0
 10 42  1  6
 11 43  1  0
 11 44  1  0
 12 45  1  6
 13 46  1  0
 13 47  1  0
 14 48  1  0
 15 49  1  1
 16 50  1  0
 17 51  1  1
 18 52  1  0
 23 53  1  0
 24 54  1  0
 25 55  1  0
 26 56  1  0
 29 57  1  0
 31 58  1  0
 33 59  1  0
 33 60  1  0
 33 61  1  0
M  END
$$$$
