@<TRIPOS>MOLECULE
*****
 53 53 0 0 0
SMALL
GASTEIGER

@<TRIPOS>ATOM
      1 C           5.4942    0.7025    0.4493 C.3     1  UNL1       -0.0653
      2 C           5.5812   -0.6546    1.0335 C.3     1  UNL1       -0.0559
      3 C           4.8709   -1.7478    0.3602 C.3     1  UNL1       -0.0533
      4 C           3.3939   -1.6851    0.3298 C.3     1  UNL1       -0.0525
      5 C           2.8368   -0.5046   -0.3508 C.3     1  UNL1       -0.0421
      6 C           1.2916   -0.5674   -0.4195 C.3     1  UNL1        0.0496
      7 P           0.6706   -0.6327    1.2514 P.3     1  UNL1        0.3306
      8 O           0.7764   -2.2255    1.8157 O.3     1  UNL1       -0.3239
      9 O           1.6541    0.1813    2.1109 O.2     1  UNL1       -0.2586
     10 O          -0.8594   -0.0055    1.4761 O.3     1  UNL1       -0.3044
     11 C          -1.4941    0.4659    0.3557 C.3     1  UNL1        0.0712
     12 C          -1.4311    2.0069    0.5017 C.3     1  UNL1       -0.0232
     13 C          -1.9869    2.5354   -0.8030 C.3     1  UNL1       -0.0415
     14 C          -1.5886    3.9362   -1.1163 C.3     1  UNL1       -0.0623
     15 C          -3.4914    2.3573   -0.6691 C.3     1  UNL1       -0.0500
     16 C          -3.8204    0.9185   -0.5473 C.3     1  UNL1       -0.0474
     17 C          -2.9255    0.0796    0.2927 C.3     1  UNL1       -0.0119
     18 C          -3.0331   -1.3722   -0.1401 C.3     1  UNL1       -0.0415
     19 C          -4.4995   -1.7940   -0.2207 C.3     1  UNL1       -0.0623
     20 C          -2.3657   -2.3320    0.8009 C.3     1  UNL1       -0.0623
     21 H           4.8884    1.4357    1.0128 H       1  UNL1        0.0230
     22 H           5.1725    0.6756   -0.5938 H       1  UNL1        0.0230
     23 H           6.5312    1.1871    0.4716 H       1  UNL1        0.0230
     24 H           5.3230   -0.6039    2.1359 H       1  UNL1        0.0263
     25 H           6.6805   -0.9366    1.0523 H       1  UNL1        0.0263
     26 H           5.2353   -2.7679    0.7093 H       1  UNL1        0.0265
     27 H           5.1884   -1.7191   -0.7498 H       1  UNL1        0.0265
     28 H           2.9772   -2.6189   -0.1491 H       1  UNL1        0.0265
     29 H           2.9949   -1.6836    1.4030 H       1  UNL1        0.0265
     30 H           3.0558    0.4568    0.1598 H       1  UNL1        0.0271
     31 H           3.1964   -0.4457   -1.3822 H       1  UNL1        0.0271
     32 H           1.0325    0.3535   -0.9869 H       1  UNL1        0.0387
     33 H           0.9816   -1.4496   -0.9763 H       1  UNL1        0.0387
     34 H           0.8395   -2.8127    1.0247 H       1  UNL1        0.2198
     35 H          -0.9372    0.2277   -0.5876 H       1  UNL1        0.0604
     36 H          -0.4000    2.3425    0.6880 H       1  UNL1        0.0293
     37 H          -2.1217    2.2583    1.3187 H       1  UNL1        0.0293
     38 H          -1.6616    1.8486   -1.6232 H       1  UNL1        0.0299
     39 H          -2.0651    4.6433   -0.4363 H       1  UNL1        0.0232
     40 H          -0.4963    4.0101   -1.0144 H       1  UNL1        0.0232
     41 H          -1.8197    4.1109   -2.1878 H       1  UNL1        0.0232
     42 H          -4.0163    2.7733   -1.5351 H       1  UNL1        0.0268
     43 H          -3.7767    2.9210    0.2511 H       1  UNL1        0.0268
     44 H          -4.8548    0.8710   -0.1093 H       1  UNL1        0.0269
     45 H          -3.9608    0.5189   -1.5808 H       1  UNL1        0.0269
     46 H          -3.3356    0.0839    1.3455 H       1  UNL1        0.0328
     47 H          -2.6286   -1.5478   -1.1567 H       1  UNL1        0.0299
     48 H          -5.0693   -1.4743    0.6726 H       1  UNL1        0.0232
     49 H          -4.9489   -1.4651   -1.1800 H       1  UNL1        0.0232
     50 H          -4.5010   -2.9037   -0.2330 H       1  UNL1        0.0232
     51 H          -1.4433   -2.7605    0.3089 H       1  UNL1        0.0232
     52 H          -3.0029   -3.2567    0.9494 H       1  UNL1        0.0232
     53 H          -2.1315   -1.9342    1.7928 H       1  UNL1        0.0232
@<TRIPOS>BOND
     1     1     2    1
     2     2     3    1
     3     3     4    1
     4     4     5    1
     5     5     6    1
     6     6     7    1
     7     7     8    1
     8     7     9    2
     9     7    10    1
    10    10    11    1
    11    11    12    1
    12    12    13    1
    13    13    14    1
    14    13    15    1
    15    15    16    1
    16    16    17    1
    17    17    18    1
    18    18    19    1
    19    18    20    1
    20    17    11    1
    21     1    21    1
    22     1    22    1
    23     1    23    1
    24     2    24    1
    25     2    25    1
    26     3    26    1
    27     3    27    1
    28     4    28    1
    29     4    29    1
    30     5    30    1
    31     5    31    1
    32     6    32    1
    33     6    33    1
    34     8    34    1
    35    11    35    1
    36    12    36    1
    37    12    37    1
    38    13    38    1
    39    14    39    1
    40    14    40    1
    41    14    41    1
    42    15    42    1
    43    15    43    1
    44    16    44    1
    45    16    45    1
    46    17    46    1
    47    18    47    1
    48    19    48    1
    49    19    49    1
    50    19    50    1
    51    20    51    1
    52    20    52    1
    53    20    53    1
