@<TRIPOS>MOLECULE
*****
 64 67 0 0 0
SMALL
GASTEIGER

@<TRIPOS>ATOM
      1 C          -8.2470   -1.2784    3.1393 C.3     1  UNL1        0.0790
      2 O          -8.4693   -1.1432    1.7567 O.3     1  UNL1       -0.4913
      3 C          -7.4575   -0.8572    0.8508 C.ar    1  UNL1        0.1669
      4 C          -6.1340   -0.6861    1.2862 C.ar    1  UNL1        0.0052
      5 C          -5.0930   -0.4043    0.4533 C.ar    1  UNL1        0.0408
      6 N          -3.7394   -0.2212    0.8335 N.am    1  UNL1       -0.2813
      7 C          -3.2041   -0.2915    2.1239 C.2     1  UNL1        0.2483
      8 O          -3.9972   -0.5477    3.0900 O.2     1  UNL1       -0.2699
      9 C          -1.7746   -0.0864    2.4315 C.ar    1  UNL1        0.0390
     10 C          -1.3157   -0.1698    3.7241 C.ar    1  UNL1       -0.0495
     11 C           0.0012    0.0126    4.0602 C.ar    1  UNL1       -0.0590
     12 C           0.8801    0.2904    3.0363 C.ar    1  UNL1       -0.0362
     13 C           0.4491    0.3796    1.7361 C.ar    1  UNL1        0.0661
     14 N           1.4026    0.6708    0.7060 N.ar    1  UNL1       -0.2380
     15 C           2.4088   -0.1756    0.3720 C.ar    1  UNL1        0.0525
     16 C           3.1342    0.3948   -0.6394 C.ar    1  UNL1        0.0729
     17 N           4.2663   -0.1436   -1.2854 N.am    1  UNL1       -0.2665
     18 C           5.5973    0.0795   -0.8447 C.2     1  UNL1        0.3082
     19 O           5.7883    0.7912    0.1718 O.2     1  UNL1       -0.2522
     20 N           6.7092   -0.4874   -1.5325 N.am    1  UNL1       -0.2692
     21 C           8.0420   -0.2761   -1.1081 C.ar    1  UNL1        0.0350
     22 C           8.6017   -1.1538   -0.2117 C.ar    1  UNL1       -0.0404
     23 C           9.9112   -0.9384    0.1994 C.ar    1  UNL1       -0.0598
     24 C          10.6584    0.1213   -0.2621 C.ar    1  UNL1       -0.0587
     25 C          10.0990    0.9915   -1.1526 C.ar    1  UNL1       -0.0487
     26 C          10.9078    2.1260   -1.6428 C.3     1  UNL1       -0.0397
     27 C           8.7831    0.7807   -1.5700 C.ar    1  UNL1       -0.0375
     28 C           2.5526    1.6035   -0.9160 C.ar    1  UNL1        0.0710
     29 N           1.4947    1.7272   -0.0647 N.ar    1  UNL1       -0.1729
     30 C          -0.9044    0.1876    1.4268 C.ar    1  UNL1       -0.0241
     31 C          -5.4370   -0.2925   -0.9083 C.ar    1  UNL1        0.0052
     32 C          -6.7275   -0.4589   -1.3370 C.ar    1  UNL1        0.1669
     33 O          -7.0624   -0.3468   -2.6886 O.3     1  UNL1       -0.4913
     34 C          -6.0217   -0.0554   -3.5992 C.3     1  UNL1        0.0790
     35 C          -7.7685   -0.7435   -0.4808 C.ar    1  UNL1        0.2036
     36 O          -9.0608   -0.9046   -0.9538 O.3     1  UNL1       -0.4885
     37 C          -9.9984    0.1218   -1.0870 C.3     1  UNL1        0.0791
     38 H          -7.7205   -2.2482    3.2881 H       1  UNL1        0.0660
     39 H          -9.2139   -1.3289    3.6607 H       1  UNL1        0.0660
     40 H          -7.6744   -0.4368    3.5732 H       1  UNL1        0.0660
     41 H          -5.9588   -0.7884    2.3415 H       1  UNL1        0.0674
     42 H          -3.0446   -0.0046    0.0497 H       1  UNL1        0.1551
     43 H          -2.0750   -0.3950    4.4903 H       1  UNL1        0.0625
     44 H           0.2870   -0.0673    5.0888 H       1  UNL1        0.0618
     45 H           1.9229    0.4347    3.3036 H       1  UNL1        0.0639
     46 H           2.5894   -1.1401    0.8425 H       1  UNL1        0.0850
     47 H           4.1460   -0.7445   -2.1397 H       1  UNL1        0.1565
     48 H           6.4815   -1.0787   -2.3837 H       1  UNL1        0.1564
     49 H           8.0621   -2.0047    0.1851 H       1  UNL1        0.0636
     50 H          10.3325   -1.6401    0.9045 H       1  UNL1        0.0618
     51 H          11.6918    0.2863    0.0662 H       1  UNL1        0.0620
     52 H          10.4675    2.5713   -2.5708 H       1  UNL1        0.0278
     53 H          11.0196    2.9188   -0.8747 H       1  UNL1        0.0278
     54 H          11.9225    1.7306   -1.8605 H       1  UNL1        0.0278
     55 H           8.3910    1.4970   -2.2733 H       1  UNL1        0.0639
     56 H           2.9060    2.2845   -1.6718 H       1  UNL1        0.0867
     57 H          -1.1404    0.2772    0.3884 H       1  UNL1        0.0646
     58 H          -4.6465   -0.0699   -1.6098 H       1  UNL1        0.0674
     59 H          -6.3794   -0.1205   -4.6502 H       1  UNL1        0.0660
     60 H          -5.6813    0.9967   -3.4111 H       1  UNL1        0.0660
     61 H          -5.1426   -0.7342   -3.4734 H       1  UNL1        0.0660
     62 H         -11.0053   -0.3559   -1.1575 H       1  UNL1        0.0660
     63 H         -10.0006    0.8482   -0.2587 H       1  UNL1        0.0660
     64 H          -9.8115    0.6966   -2.0181 H       1  UNL1        0.0660
@<TRIPOS>BOND
     1     1     2    1
     2     2     3    1
     3     3     4   ar
     4     4     5   ar
     5     5     6    1
     6     6     7   am
     7     7     8    2
     8     7     9    1
     9     9    10   ar
    10    10    11   ar
    11    11    12   ar
    12    12    13   ar
    13    13    14    1
    14    14    15   ar
    15    15    16   ar
    16    16    17    1
    17    17    18   am
    18    18    19    2
    19    18    20   am
    20    20    21    1
    21    21    22   ar
    22    22    23   ar
    23    23    24   ar
    24    24    25   ar
    25    25    26    1
    26    25    27   ar
    27    16    28   ar
    28    28    29   ar
    29    13    30   ar
    30     5    31   ar
    31    31    32   ar
    32    32    33    1
    33    33    34    1
    34    32    35   ar
    35    35    36    1
    36    36    37    1
    37    35     3   ar
    38    30     9   ar
    39    29    14   ar
    40    27    21   ar
    41     1    38    1
    42     1    39    1
    43     1    40    1
    44     4    41    1
    45     6    42    1
    46    10    43    1
    47    11    44    1
    48    12    45    1
    49    15    46    1
    50    17    47    1
    51    20    48    1
    52    22    49    1
    53    23    50    1
    54    24    51    1
    55    26    52    1
    56    26    53    1
    57    26    54    1
    58    27    55    1
    59    28    56    1
    60    30    57    1
    61    31    58    1
    62    34    59    1
    63    34    60    1
    64    34    61    1
    65    37    62    1
    66    37    63    1
    67    37    64    1
