
     RDKit          3D

 64 67  0  0  0  0  0  0  0  0999 V2000
   -8.2470   -1.2784    3.1393 C   0  0  0  0  0  0  0  0  0  0  0  0
   -8.4693   -1.1432    1.7567 O   0  0  0  0  0  0  0  0  0  0  0  0
   -7.4575   -0.8572    0.8508 C   0  0  0  0  0  0  0  0  0  0  0  0
   -6.1340   -0.6861    1.2862 C   0  0  0  0  0  0  0  0  0  0  0  0
   -5.0930   -0.4043    0.4533 C   0  0  0  0  0  0  0  0  0  0  0  0
   -3.7394   -0.2212    0.8335 N   0  0  0  0  0  0  0  0  0  0  0  0
   -3.2041   -0.2915    2.1239 C   0  0  0  0  0  0  0  0  0  0  0  0
   -3.9972   -0.5477    3.0900 O   0  0  0  0  0  0  0  0  0  0  0  0
   -1.7746   -0.0864    2.4315 C   0  0  0  0  0  0  0  0  0  0  0  0
   -1.3157   -0.1698    3.7241 C   0  0  0  0  0  0  0  0  0  0  0  0
    0.0012    0.0126    4.0602 C   0  0  0  0  0  0  0  0  0  0  0  0
    0.8801    0.2904    3.0363 C   0  0  0  0  0  0  0  0  0  0  0  0
    0.4491    0.3796    1.7361 C   0  0  0  0  0  0  0  0  0  0  0  0
    1.4026    0.6708    0.7060 N   0  0  0  0  0  0  0  0  0  0  0  0
    2.4088   -0.1756    0.3720 C   0  0  0  0  0  0  0  0  0  0  0  0
    3.1342    0.3948   -0.6394 C   0  0  0  0  0  0  0  0  0  0  0  0
    4.2663   -0.1436   -1.2854 N   0  0  0  0  0  0  0  0  0  0  0  0
    5.5973    0.0795   -0.8447 C   0  0  0  0  0  0  0  0  0  0  0  0
    5.7883    0.7912    0.1718 O   0  0  0  0  0  0  0  0  0  0  0  0
    6.7092   -0.4874   -1.5325 N   0  0  0  0  0  0  0  0  0  0  0  0
    8.0420   -0.2761   -1.1081 C   0  0  0  0  0  0  0  0  0  0  0  0
    8.6017   -1.1538   -0.2117 C   0  0  0  0  0  0  0  0  0  0  0  0
    9.9112   -0.9384    0.1994 C   0  0  0  0  0  0  0  0  0  0  0  0
   10.6584    0.1213   -0.2621 C   0  0  0  0  0  0  0  0  0  0  0  0
   10.0990    0.9915   -1.1526 C   0  0  0  0  0  0  0  0  0  0  0  0
   10.9078    2.1260   -1.6428 C   0  0  0  0  0  0  0  0  0  0  0  0
    8.7831    0.7807   -1.5700 C   0  0  0  0  0  0  0  0  0  0  0  0
    2.5526    1.6035   -0.9160 C   0  0  0  0  0  0  0  0  0  0  0  0
    1.4947    1.7272   -0.0647 N   0  0  0  0  0  0  0  0  0  0  0  0
   -0.9044    0.1876    1.4268 C   0  0  0  0  0  0  0  0  0  0  0  0
   -5.4370   -0.2925   -0.9083 C   0  0  0  0  0  0  0  0  0  0  0  0
   -6.7275   -0.4589   -1.3370 C   0  0  0  0  0  0  0  0  0  0  0  0
   -7.0624   -0.3468   -2.6886 O   0  0  0  0  0  0  0  0  0  0  0  0
   -6.0217   -0.0554   -3.5992 C   0  0  0  0  0  0  0  0  0  0  0  0
   -7.7685   -0.7435   -0.4808 C   0  0  0  0  0  0  0  0  0  0  0  0
   -9.0608   -0.9046   -0.9538 O   0  0  0  0  0  0  0  0  0  0  0  0
   -9.9984    0.1218   -1.0870 C   0  0  0  0  0  0  0  0  0  0  0  0
   -7.7205   -2.2482    3.2881 H   0  0  0  0  0  0  0  0  0  0  0  0
   -9.2139   -1.3289    3.6607 H   0  0  0  0  0  0  0  0  0  0  0  0
   -7.6744   -0.4368    3.5732 H   0  0  0  0  0  0  0  0  0  0  0  0
   -5.9588   -0.7884    2.3415 H   0  0  0  0  0  0  0  0  0  0  0  0
   -3.0446   -0.0046    0.0497 H   0  0  0  0  0  0  0  0  0  0  0  0
   -2.0750   -0.3950    4.4903 H   0  0  0  0  0  0  0  0  0  0  0  0
    0.2870   -0.0673    5.0888 H   0  0  0  0  0  0  0  0  0  0  0  0
    1.9229    0.4347    3.3036 H   0  0  0  0  0  0  0  0  0  0  0  0
    2.5894   -1.1401    0.8425 H   0  0  0  0  0  0  0  0  0  0  0  0
    4.1460   -0.7445   -2.1397 H   0  0  0  0  0  0  0  0  0  0  0  0
    6.4815   -1.0787   -2.3837 H   0  0  0  0  0  0  0  0  0  0  0  0
    8.0621   -2.0047    0.1851 H   0  0  0  0  0  0  0  0  0  0  0  0
   10.3325   -1.6401    0.9045 H   0  0  0  0  0  0  0  0  0  0  0  0
   11.6918    0.2863    0.0662 H   0  0  0  0  0  0  0  0  0  0  0  0
   10.4675    2.5713   -2.5708 H   0  0  0  0  0  0  0  0  0  0  0  0
   11.0196    2.9188   -0.8747 H   0  0  0  0  0  0  0  0  0  0  0  0
   11.9225    1.7306   -1.8605 H   0  0  0  0  0  0  0  0  0  0  0  0
    8.3910    1.4970   -2.2733 H   0  0  0  0  0  0  0  0  0  0  0  0
    2.9060    2.2845   -1.6718 H   0  0  0  0  0  0  0  0  0  0  0  0
   -1.1404    0.2772    0.3884 H   0  0  0  0  0  0  0  0  0  0  0  0
   -4.6465   -0.0699   -1.6098 H   0  0  0  0  0  0  0  0  0  0  0  0
   -6.3794   -0.1205   -4.6502 H   0  0  0  0  0  0  0  0  0  0  0  0
   -5.6813    0.9967   -3.4111 H   0  0  0  0  0  0  0  0  0  0  0  0
   -5.1426   -0.7342   -3.4734 H   0  0  0  0  0  0  0  0  0  0  0  0
  -11.0053   -0.3559   -1.1575 H   0  0  0  0  0  0  0  0  0  0  0  0
  -10.0006    0.8482   -0.2587 H   0  0  0  0  0  0  0  0  0  0  0  0
   -9.8115    0.6966   -2.0181 H   0  0  0  0  0  0  0  0  0  0  0  0
  1  2  1  0
  2  3  1  0
  3  4  2  0
  4  5  1  0
  5  6  1  0
  6  7  1  0
  7  8  2  0
  7  9  1  0
  9 10  2  0
 10 11  1  0
 11 12  2  0
 12 13  1  0
 13 14  1  0
 14 15  1  0
 15 16  2  0
 16 17  1  0
 17 18  1  0
 18 19  2  0
 18 20  1  0
 20 21  1  0
 21 22  2  0
 22 23  1  0
 23 24  2  0
 24 25  1  0
 25 26  1  0
 25 27  2  0
 16 28  1  0
 28 29  2  0
 13 30  2  0
  5 31  2  0
 31 32  1  0
 32 33  1  0
 33 34  1  0
 32 35  2  0
 35 36  1  0
 36 37  1  0
 35  3  1  0
 30  9  1  0
 29 14  1  0
 27 21  1  0
  1 38  1  0
  1 39  1  0
  1 40  1  0
  4 41  1  0
  6 42  1  0
 10 43  1  0
 11 44  1  0
 12 45  1  0
 15 46  1  0
 17 47  1  0
 20 48  1  0
 22 49  1  0
 23 50  1  0
 24 51  1  0
 26 52  1  0
 26 53  1  0
 26 54  1  0
 27 55  1  0
 28 56  1  0
 30 57  1  0
 31 58  1  0
 34 59  1  0
 34 60  1  0
 34 61  1  0
 37 62  1  0
 37 63  1  0
 37 64  1  0
M  END
$$$$
