
     RDKit          3D

 19 19  0  0  0  0  0  0  0  0999 V2000
    3.5655    0.1892    0.0599 C   0  0  0  0  0  0  0  0  0  0  0  0
    2.4888   -0.6231   -0.2324 O   0  0  0  0  0  0  0  0  0  0  0  0
    1.1638   -0.3736   -0.1088 C   0  0  0  0  0  0  0  0  0  0  0  0
    0.5955    0.7953    0.3551 C   0  0  0  0  0  0  0  0  0  0  0  0
   -0.7909    0.9405    0.4396 C   0  0  0  0  0  0  0  0  0  0  0  0
   -1.6379   -0.0923    0.0573 C   0  0  0  0  0  0  0  0  0  0  0  0
   -1.0859   -1.2685   -0.4091 C   0  0  0  0  0  0  0  0  0  0  0  0
    0.2785   -1.3685   -0.4756 C   0  0  0  0  0  0  0  0  0  0  0  0
   -3.0732    0.0507    0.1420 C   0  0  0  0  0  0  0  0  0  0  0  0
   -3.6918    1.1855    0.5937 O   0  0  0  0  0  0  0  0  0  0  0  0
   -3.8556   -0.8859   -0.2044 O   0  0  0  0  0  0  0  0  0  0  0  0
    3.7571    0.3730    1.1352 H   0  0  0  0  0  0  0  0  0  0  0  0
    4.4999   -0.2868   -0.3529 H   0  0  0  0  0  0  0  0  0  0  0  0
    3.4700    1.1302   -0.5034 H   0  0  0  0  0  0  0  0  0  0  0  0
    1.2623    1.5909    0.6493 H   0  0  0  0  0  0  0  0  0  0  0  0
   -1.2216    1.8579    0.8034 H   0  0  0  0  0  0  0  0  0  0  0  0
   -1.7337   -2.0982   -0.7169 H   0  0  0  0  0  0  0  0  0  0  0  0
    0.6541   -2.3118   -0.8483 H   0  0  0  0  0  0  0  0  0  0  0  0
   -4.6450    1.1955    0.9458 H   0  0  0  0  0  0  0  0  0  0  0  0
  1  2  1  0
  2  3  1  0
  3  4  2  0
  4  5  1  0
  5  6  2  0
  6  7  1  0
  7  8  2  0
  6  9  1  0
  9 10  1  0
  9 11  2  0
  8  3  1  0
  1 12  1  0
  1 13  1  0
  1 14  1  0
  4 15  1  0
  5 16  1  0
  7 17  1  0
  8 18  1  0
 10 19  1  0
M  END
$$$$
