@<TRIPOS>MOLECULE
*****
 19 19 0 0 0
SMALL
GASTEIGER

@<TRIPOS>ATOM
      1 C           3.5655    0.1892    0.0599 C.3     1  UNL1        0.0788
      2 O           2.4888   -0.6231   -0.2324 O.3     1  UNL1       -0.4951
      3 C           1.1638   -0.3736   -0.1088 C.ar    1  UNL1        0.1201
      4 C           0.5955    0.7953    0.3551 C.ar    1  UNL1       -0.0192
      5 C          -0.7909    0.9405    0.4396 C.ar    1  UNL1       -0.0443
      6 C          -1.6379   -0.0923    0.0573 C.ar    1  UNL1        0.0591
      7 C          -1.0859   -1.2685   -0.4091 C.ar    1  UNL1       -0.0443
      8 C           0.2785   -1.3685   -0.4756 C.ar    1  UNL1       -0.0192
      9 C          -3.0732    0.0507    0.1420 C.2     1  UNL1        0.3368
     10 O          -3.6918    1.1855    0.5937 O.3     1  UNL1       -0.4771
     11 O          -3.8556   -0.8859   -0.2044 O.2     1  UNL1       -0.2451
     12 H           3.7571    0.3730    1.1352 H       1  UNL1        0.0660
     13 H           4.4999   -0.2868   -0.3529 H       1  UNL1        0.0660
     14 H           3.4700    1.1302   -0.5034 H       1  UNL1        0.0660
     15 H           1.2623    1.5909    0.6493 H       1  UNL1        0.0654
     16 H          -1.2216    1.8579    0.8034 H       1  UNL1        0.0627
     17 H          -1.7337   -2.0982   -0.7169 H       1  UNL1        0.0627
     18 H           0.6541   -2.3118   -0.8483 H       1  UNL1        0.0654
     19 H          -4.6450    1.1955    0.9458 H       1  UNL1        0.2954
@<TRIPOS>BOND
     1     1     2    1
     2     2     3    1
     3     3     4   ar
     4     4     5   ar
     5     5     6   ar
     6     6     7   ar
     7     7     8   ar
     8     6     9    1
     9     9    10    1
    10     9    11    2
    11     8     3   ar
    12     1    12    1
    13     1    13    1
    14     1    14    1
    15     4    15    1
    16     5    16    1
    17     7    17    1
    18     8    18    1
    19    10    19    1
