
     RDKit          3D

 44 47  0  0  0  0  0  0  0  0999 V2000
    3.5632   -0.8566   -3.4003 O   0  0  0  0  0  0  0  0  0  0  0  0
    2.2219   -1.1267   -3.2057 C   0  0  0  0  0  0  0  0  0  0  0  0
    2.0347   -1.9591   -1.9300 C   0  0  0  0  0  0  0  0  0  0  0  0
    2.5512   -1.2122   -0.7537 C   0  0  0  0  0  0  0  0  0  0  0  0
    3.8294   -1.2517   -0.2529 C   0  0  0  0  0  0  0  0  0  0  0  0
    3.8958   -0.4397    0.8127 N   0  0  0  0  0  0  0  0  0  0  0  0
    2.6861    0.1302    1.0189 C   0  0  0  0  0  0  0  0  0  0  0  0
    2.2273    1.0232    1.9621 C   0  0  0  0  0  0  0  0  0  0  0  0
    0.9070    1.3990    1.8731 C   0  0  0  0  0  0  0  0  0  0  0  0
    0.0637    0.9106    0.8858 C   0  0  0  0  0  0  0  0  0  0  0  0
   -1.3067    1.3118    0.8080 C   0  0  0  0  0  0  0  0  0  0  0  0
   -2.3687    0.4040    0.9329 C   0  0  0  0  0  0  0  0  0  0  0  0
   -2.2421   -1.0419    1.1537 C   0  0  0  0  0  0  0  0  0  0  0  0
   -1.6538   -1.5637    2.2908 C   0  0  0  0  0  0  0  0  0  0  0  0
   -1.5641   -2.9326    2.4405 C   0  0  0  0  0  0  0  0  0  0  0  0
   -2.0585   -3.7855    1.4611 C   0  0  0  0  0  0  0  0  0  0  0  0
   -1.9346   -5.1032    1.6780 F   0  0  0  0  0  0  0  0  0  0  0  0
   -2.6444   -3.2795    0.3289 C   0  0  0  0  0  0  0  0  0  0  0  0
   -2.7286   -1.9064    0.1899 C   0  0  0  0  0  0  0  0  0  0  0  0
   -3.5310    1.0726    0.8174 N   0  0  0  0  0  0  0  0  0  0  0  0
   -3.2067    2.3651    0.6253 C   0  0  0  0  0  0  0  0  0  0  0  0
   -1.8605    2.5042    0.6205 N   0  0  0  0  0  0  0  0  0  0  0  0
   -1.1182    3.7286    0.4437 C   0  0  0  0  0  0  0  0  0  0  0  0
   -0.8690    3.8897   -1.0559 C   0  0  0  0  0  0  0  0  0  0  0  0
   -0.1476    2.8016   -1.4884 F   0  0  0  0  0  0  0  0  0  0  0  0
   -0.1867    5.0810   -1.2365 F   0  0  0  0  0  0  0  0  0  0  0  0
    0.6131    0.0338    0.0023 N   0  0  0  0  0  0  0  0  0  0  0  0
    1.8791   -0.3559    0.0500 N   0  0  0  0  0  0  0  0  0  0  0  0
    3.9648   -0.3645   -2.6538 H   0  0  0  0  0  0  0  0  0  0  0  0
    1.8381   -1.6916   -4.0759 H   0  0  0  0  0  0  0  0  0  0  0  0
    1.6641   -0.1728   -3.1526 H   0  0  0  0  0  0  0  0  0  0  0  0
    1.0007   -2.2684   -1.7981 H   0  0  0  0  0  0  0  0  0  0  0  0
    2.6987   -2.8472   -2.0670 H   0  0  0  0  0  0  0  0  0  0  0  0
    4.6498   -1.8272   -0.6344 H   0  0  0  0  0  0  0  0  0  0  0  0
    2.8381    1.4311    2.7463 H   0  0  0  0  0  0  0  0  0  0  0  0
    0.4520    2.0916    2.5623 H   0  0  0  0  0  0  0  0  0  0  0  0
   -1.2738   -0.8724    3.0439 H   0  0  0  0  0  0  0  0  0  0  0  0
   -1.1027   -3.3433    3.3321 H   0  0  0  0  0  0  0  0  0  0  0  0
   -3.0197   -3.9675   -0.4152 H   0  0  0  0  0  0  0  0  0  0  0  0
   -3.1959   -1.5349   -0.7135 H   0  0  0  0  0  0  0  0  0  0  0  0
   -3.9002    3.2062    0.4892 H   0  0  0  0  0  0  0  0  0  0  0  0
   -0.1263    3.7182    0.8968 H   0  0  0  0  0  0  0  0  0  0  0  0
   -1.7226    4.6304    0.7139 H   0  0  0  0  0  0  0  0  0  0  0  0
   -1.8163    3.9721   -1.6107 H   0  0  0  0  0  0  0  0  0  0  0  0
  1  2  1  0
  2  3  1  0
  3  4  1  0
  4  5  2  0
  5  6  1  0
  6  7  2  0
  7  8  1  0
  8  9  2  0
  9 10  1  0
 10 11  1  0
 11 12  2  0
 12 13  1  0
 13 14  2  0
 14 15  1  0
 15 16  2  0
 16 17  1  0
 16 18  1  0
 18 19  2  0
 12 20  1  0
 20 21  2  0
 21 22  1  0
 22 23  1  0
 23 24  1  0
 24 25  1  0
 24 26  1  0
 10 27  2  0
 27 28  1  0
 28  4  1  0
 28  7  1  0
 22 11  1  0
 19 13  1  0
  1 29  1  0
  2 30  1  0
  2 31  1  0
  3 32  1  0
  3 33  1  0
  5 34  1  0
  8 35  1  0
  9 36  1  0
 14 37  1  0
 15 38  1  0
 18 39  1  0
 19 40  1  0
 21 41  1  0
 23 42  1  0
 23 43  1  0
 24 44  1  0
M  END
$$$$
