@<TRIPOS>MOLECULE
*****
 44 47 0 0 0
SMALL
GASTEIGER

@<TRIPOS>ATOM
      1 O           3.5632   -0.8566   -3.4003 O.3     1  UNL1       -0.3946
      2 C           2.2219   -1.1267   -3.2057 C.3     1  UNL1        0.0496
      3 C           2.0347   -1.9591   -1.9300 C.3     1  UNL1        0.0144
      4 C           2.5512   -1.2122   -0.7537 C.ar    1  UNL1        0.0653
      5 C           3.8294   -1.2517   -0.2529 C.ar    1  UNL1        0.0514
      6 N           3.8958   -0.4397    0.8127 N.ar    1  UNL1       -0.2344
      7 C           2.6861    0.1302    1.0189 C.ar    1  UNL1        0.1544
      8 C           2.2273    1.0232    1.9621 C.ar    1  UNL1       -0.0153
      9 C           0.9070    1.3990    1.8731 C.ar    1  UNL1       -0.0290
     10 C           0.0637    0.9106    0.8858 C.ar    1  UNL1        0.1103
     11 C          -1.3067    1.3118    0.8080 C.ar    1  UNL1        0.0968
     12 C          -2.3687    0.4040    0.9329 C.ar    1  UNL1        0.0982
     13 C          -2.2421   -1.0419    1.1537 C.ar    1  UNL1        0.0027
     14 C          -1.6538   -1.5637    2.2908 C.ar    1  UNL1       -0.0498
     15 C          -1.5641   -2.9326    2.4405 C.ar    1  UNL1       -0.0258
     16 C          -2.0585   -3.7855    1.4611 C.ar    1  UNL1        0.1234
     17 F          -1.9346   -5.1032    1.6780 F       1  UNL1       -0.2055
     18 C          -2.6444   -3.2795    0.3289 C.ar    1  UNL1       -0.0258
     19 C          -2.7286   -1.9064    0.1899 C.ar    1  UNL1       -0.0498
     20 N          -3.5310    1.0726    0.8174 N.ar    1  UNL1       -0.2351
     21 C          -3.2067    2.3651    0.6253 C.ar    1  UNL1        0.0973
     22 N          -1.8605    2.5042    0.6205 N.ar    1  UNL1       -0.3229
     23 C          -1.1182    3.7286    0.4437 C.3     1  UNL1        0.0852
     24 C          -0.8690    3.8897   -1.0559 C.3     1  UNL1        0.2569
     25 F          -0.1476    2.8016   -1.4884 F       1  UNL1       -0.2073
     26 F          -0.1867    5.0810   -1.2365 F       1  UNL1       -0.2073
     27 N           0.6131    0.0338    0.0023 N.ar    1  UNL1       -0.1632
     28 N           1.8791   -0.3559    0.0500 N.ar    1  UNL1       -0.2166
     29 H           3.9648   -0.3645   -2.6538 H       1  UNL1        0.2094
     30 H           1.8381   -1.6916   -4.0759 H       1  UNL1        0.0561
     31 H           1.6641   -0.1728   -3.1526 H       1  UNL1        0.0561
     32 H           1.0007   -2.2684   -1.7981 H       1  UNL1        0.0351
     33 H           2.6987   -2.8472   -2.0670 H       1  UNL1        0.0351
     34 H           4.6498   -1.8272   -0.6344 H       1  UNL1        0.0848
     35 H           2.8381    1.4311    2.7463 H       1  UNL1        0.0655
     36 H           0.4520    2.0916    2.5623 H       1  UNL1        0.0641
     37 H          -1.2738   -0.8724    3.0439 H       1  UNL1        0.0625
     38 H          -1.1027   -3.3433    3.3321 H       1  UNL1        0.0646
     39 H          -3.0197   -3.9675   -0.4152 H       1  UNL1        0.0646
     40 H          -3.1959   -1.5349   -0.7135 H       1  UNL1        0.0625
     41 H          -3.9002    3.2062    0.4892 H       1  UNL1        0.1029
     42 H          -0.1263    3.7182    0.8968 H       1  UNL1        0.0548
     43 H          -1.7226    4.6304    0.7139 H       1  UNL1        0.0548
     44 H          -1.8163    3.9721   -1.6107 H       1  UNL1        0.1037
@<TRIPOS>BOND
     1     1     2    1
     2     2     3    1
     3     3     4    1
     4     4     5   ar
     5     5     6   ar
     6     6     7   ar
     7     7     8   ar
     8     8     9   ar
     9     9    10   ar
    10    10    11    1
    11    11    12   ar
    12    12    13    1
    13    13    14   ar
    14    14    15   ar
    15    15    16   ar
    16    16    17    1
    17    16    18   ar
    18    18    19   ar
    19    12    20   ar
    20    20    21   ar
    21    21    22   ar
    22    22    23    1
    23    23    24    1
    24    24    25    1
    25    24    26    1
    26    10    27   ar
    27    27    28   ar
    28    28     4   ar
    29    28     7   ar
    30    22    11   ar
    31    19    13   ar
    32     1    29    1
    33     2    30    1
    34     2    31    1
    35     3    32    1
    36     3    33    1
    37     5    34    1
    38     8    35    1
    39     9    36    1
    40    14    37    1
    41    15    38    1
    42    18    39    1
    43    19    40    1
    44    21    41    1
    45    23    42    1
    46    23    43    1
    47    24    44    1
