@<TRIPOS>MOLECULE
*****
 51 56 0 0 0
SMALL
GASTEIGER

@<TRIPOS>ATOM
      1 C          -4.2076    0.8135    1.0774 C.3     1  UNL1       -0.0203
      2 C          -3.4648   -0.3680    0.5465 C.ar    1  UNL1        0.0660
      3 N          -3.8914   -1.5064    0.0362 N.ar    1  UNL1       -0.1752
      4 N          -2.8928   -2.2943   -0.3183 N.ar    1  UNL1       -0.2556
      5 C          -2.9457   -3.6171   -0.9118 C.3     1  UNL1        0.0537
      6 C          -4.3793   -4.1537   -1.0520 C.3     1  UNL1       -0.0285
      7 C          -3.5148   -3.8436   -2.2426 C.3     1  UNL1       -0.0285
      8 C          -1.7397   -1.6189   -0.0164 C.ar    1  UNL1        0.1297
      9 C          -2.0746   -0.4104    0.5261 C.ar    1  UNL1        0.0305
     10 C          -0.8317    0.3166    0.8511 C.3     1  UNL1        0.0867
     11 C          -0.7941    1.6635    0.2368 C.ar    1  UNL1       -0.0220
     12 C          -0.5282    1.8612   -1.0966 C.ar    1  UNL1       -0.0551
     13 C          -0.5070    3.1393   -1.6152 C.ar    1  UNL1       -0.0431
     14 C          -0.7465    4.2593   -0.8381 C.ar    1  UNL1        0.0410
     15 CL         -0.7162    5.8753   -1.5102 Cl      1  UNL1       -0.0835
     16 C          -1.0151    4.0676    0.5063 C.ar    1  UNL1       -0.0431
     17 C          -1.0322    2.7819    1.0074 C.ar    1  UNL1       -0.0551
     18 N           0.2308   -0.5294    0.4704 N.am    1  UNL1       -0.2389
     19 C           1.6521   -0.3074    0.5686 C.ar    1  UNL1        0.1313
     20 C           2.2707   -0.7103    1.7242 C.ar    1  UNL1       -0.0161
     21 C           3.6418   -0.5098    1.8494 C.ar    1  UNL1       -0.0164
     22 C           4.3087   -0.9438    3.0944 C.3     1  UNL1       -0.0374
     23 C           4.3772    0.0798    0.8428 C.ar    1  UNL1        0.1345
     24 N           5.6751    0.3940    0.6842 N.ar    1  UNL1       -0.1276
     25 N           5.7892    0.9508   -0.5086 N.ar    1  UNL1       -0.0635
     26 N           4.6309    1.0092   -1.1218 N.ar    1  UNL1       -0.2297
     27 C           4.3858    1.5603   -2.4516 C.3     1  UNL1        0.0341
     28 C           3.7031    0.4649   -0.2961 C.ar    1  UNL1        0.1803
     29 N           2.3550    0.2646   -0.4124 N.ar    1  UNL1       -0.2108
     30 C          -0.2898   -1.7293   -0.0674 C.2     1  UNL1        0.2711
     31 O           0.3182   -2.7357   -0.5196 O.2     1  UNL1       -0.2679
     32 H          -3.8914    0.9984    2.1449 H       1  UNL1        0.0293
     33 H          -3.9261    1.6987    0.4717 H       1  UNL1        0.0293
     34 H          -5.2931    0.6839    1.0050 H       1  UNL1        0.0293
     35 H          -2.1854   -4.3720   -0.5582 H       1  UNL1        0.0545
     36 H          -5.2091   -3.4552   -0.9003 H       1  UNL1        0.0286
     37 H          -4.5345   -5.1946   -0.7289 H       1  UNL1        0.0286
     38 H          -3.7754   -2.9679   -2.8755 H       1  UNL1        0.0286
     39 H          -3.1828   -4.7124   -2.8179 H       1  UNL1        0.0286
     40 H          -0.7407    0.4614    1.9674 H       1  UNL1        0.0606
     41 H          -0.3388    0.9810   -1.7130 H       1  UNL1        0.0621
     42 H          -0.2956    3.2829   -2.6708 H       1  UNL1        0.0632
     43 H          -1.2118    4.9278    1.1640 H       1  UNL1        0.0632
     44 H          -1.2510    2.6864    2.0827 H       1  UNL1        0.0621
     45 H           1.7400   -1.1822    2.5538 H       1  UNL1        0.0655
     46 H           4.3889   -2.0406    3.0775 H       1  UNL1        0.0278
     47 H           3.7113   -0.6316    3.9899 H       1  UNL1        0.0278
     48 H           5.2798   -0.4309    3.1826 H       1  UNL1        0.0278
     49 H           3.2962    1.5762   -2.6525 H       1  UNL1        0.0474
     50 H           4.8071    2.5656   -2.5263 H       1  UNL1        0.0474
     51 H           4.8454    0.9013   -3.2390 H       1  UNL1        0.0474
@<TRIPOS>BOND
     1     1     2    1
     2     2     3   ar
     3     3     4   ar
     4     4     5    1
     5     5     6    1
     6     6     7    1
     7     4     8   ar
     8     8     9   ar
     9     9    10    1
    10    10    11    1
    11    11    12   ar
    12    12    13   ar
    13    13    14   ar
    14    14    15    1
    15    14    16   ar
    16    16    17   ar
    17    10    18    1
    18    18    19    1
    19    19    20   ar
    20    20    21   ar
    21    21    22    1
    22    21    23   ar
    23    23    24   ar
    24    24    25   ar
    25    25    26   ar
    26    26    27    1
    27    26    28   ar
    28    28    29   ar
    29    18    30   am
    30    30    31    2
    31     9     2   ar
    32    17    11   ar
    33    29    19   ar
    34     7     5    1
    35    30     8    1
    36    28    23   ar
    37     1    32    1
    38     1    33    1
    39     1    34    1
    40     5    35    1
    41     6    36    1
    42     6    37    1
    43     7    38    1
    44     7    39    1
    45    10    40    1
    46    12    41    1
    47    13    42    1
    48    16    43    1
    49    17    44    1
    50    20    45    1
    51    22    46    1
    52    22    47    1
    53    22    48    1
    54    27    49    1
    55    27    50    1
    56    27    51    1
