@<TRIPOS>MOLECULE
*****
 26 27 0 0 0
SMALL
GASTEIGER

@<TRIPOS>ATOM
      1 C          -0.8812   -1.8289    1.1930 C.3     1  UNL1       -0.0379
      2 C          -0.7992   -0.6438    0.2590 C.3     1  UNL1        0.1130
      3 C          -2.2052   -0.3452   -0.2363 C.3     1  UNL1       -0.0379
      4 C          -0.1168    0.5330    0.8386 C.3     1  UNL1        0.1488
      5 C          -0.9271    1.7517    0.6059 C.2     1  UNL1        0.3277
      6 O          -2.1118    1.9011    1.0139 O.2     1  UNL1       -0.2488
      7 O          -0.3878    2.8132   -0.0977 O.3     1  UNL1       -0.4793
      8 N           1.1673    0.7001    0.2846 N.am    1  UNL1       -0.2633
      9 C           2.5194    1.0687    0.1827 C.2     1  UNL1        0.2211
     10 O           3.2098    2.0010    0.6129 O.2     1  UNL1       -0.2754
     11 C           2.7284   -0.1332   -0.6491 C.3     1  UNL1        0.0629
     12 C           1.3105    0.1946   -1.0666 C.3     1  UNL1        0.1535
     13 S           0.1919   -1.1725   -1.1505 S.O2    1  UNL1       -0.0042
     14 O           0.8374   -2.4808   -0.9011 O.2     1  UNL1       -0.1720
     15 O          -0.6111   -1.1130   -2.3922 O.2     1  UNL1       -0.1720
     16 H          -1.4675   -1.5235    2.1057 H       1  UNL1        0.0251
     17 H          -1.4786   -2.6141    0.6625 H       1  UNL1        0.0251
     18 H           0.1068   -2.2123    1.4503 H       1  UNL1        0.0251
     19 H          -2.1734    0.5454   -0.8778 H       1  UNL1        0.0251
     20 H          -2.5863   -1.1745   -0.8774 H       1  UNL1        0.0251
     21 H          -2.9248   -0.2393    0.5806 H       1  UNL1        0.0251
     22 H          -0.1135    0.3849    1.9597 H       1  UNL1        0.0639
     23 H          -0.8131    3.7170   -0.1897 H       1  UNL1        0.2951
     24 H           3.4849   -0.0396   -1.4497 H       1  UNL1        0.0393
     25 H           2.8004   -1.0315   -0.0095 H       1  UNL1        0.0393
     26 H           1.2405    0.9418   -1.8517 H       1  UNL1        0.0750
@<TRIPOS>BOND
     1     1     2    1
     2     2     3    1
     3     2     4    1
     4     4     5    1
     5     5     6    2
     6     5     7    1
     7     4     8    1
     8     8     9   am
     9     9    10    2
    10     9    11    1
    11    11    12    1
    12    12    13    1
    13    13    14    2
    14    13    15    2
    15    13     2    1
    16    12     8    1
    17     1    16    1
    18     1    17    1
    19     1    18    1
    20     3    19    1
    21     3    20    1
    22     3    21    1
    23     4    22    1
    24     7    23    1
    25    11    24    1
    26    11    25    1
    27    12    26    1
