@<TRIPOS>MOLECULE
*****
 25 27 0 0 0
SMALL
GASTEIGER

@<TRIPOS>ATOM
      1 O           0.0252    1.4900   -1.1364 O.2     1  UNL1        0.0000
      2 C          -0.4800    0.5411   -0.3829 C.ar    1  UNL1        0.0000
      3 C          -1.8134    0.4862   -0.1976 C.ar    1  UNL1        0.0000
      4 C          -2.7972    1.3698   -0.7412 C.ar    1  UNL1        0.0000
      5 C          -4.1050    1.2004   -0.4745 C.ar    1  UNL1        0.0000
      6 C          -4.5825    0.1879    0.3228 C.ar    1  UNL1        0.0000
      7 C          -3.6584   -0.7162    0.8881 C.ar    1  UNL1        0.0000
      8 C          -2.3559   -0.4773    0.5706 C.ar    1  UNL1        0.0000
      9 SE         -0.7065   -1.4900    1.1370 Se      1  UNL1        0.0000
     10 N           0.3509   -0.3032    0.1484 N.ar    1  UNL1        0.0000
     11 C           1.7737   -0.4127    0.0744 C.ar    1  UNL1        0.0000
     12 C           2.4094   -1.6008   -0.1929 C.ar    1  UNL1        0.0000
     13 C           3.7823   -1.6113   -0.2447 C.ar    1  UNL1        0.0000
     14 C           4.5457   -0.4775   -0.0393 C.ar    1  UNL1        0.0000
     15 C           3.8687    0.7048    0.2283 C.ar    1  UNL1        0.0000
     16 C           2.4942    0.7431    0.2859 C.ar    1  UNL1        0.0000
     17 H          -2.4314    2.1566   -1.3603 H       1  UNL1        0.0000
     18 H          -4.8587    1.9146   -0.9184 H       1  UNL1        0.0000
     19 H          -5.6144    0.0817    0.5132 H       1  UNL1        0.0000
     20 H          -3.9626   -1.5318    1.5216 H       1  UNL1        0.0000
     21 H           1.8081   -2.4767   -0.3512 H       1  UNL1        0.0000
     22 H           4.2550   -2.5794   -0.4609 H       1  UNL1        0.0000
     23 H           5.6146   -0.5013   -0.0828 H       1  UNL1        0.0000
     24 H           4.4178    1.6120    0.3949 H       1  UNL1        0.0000
     25 H           2.0204    1.6900    0.4978 H       1  UNL1        0.0000
@<TRIPOS>BOND
     1     1     2    2
     2     2     3   ar
     3     3     4   ar
     4     4     5   ar
     5     5     6   ar
     6     6     7   ar
     7     7     8   ar
     8     8     9   ar
     9     9    10   ar
    10    10    11    1
    11    11    12   ar
    12    12    13   ar
    13    13    14   ar
    14    14    15   ar
    15    15    16   ar
    16    10     2   ar
    17    16    11   ar
    18     8     3   ar
    19     4    17    1
    20     5    18    1
    21     6    19    1
    22     7    20    1
    23    12    21    1
    24    13    22    1
    25    14    23    1
    26    15    24    1
    27    16    25    1
