
     RDKit          3D

 25 27  0  0  0  0  0  0  0  0999 V2000
    0.0252    1.4900   -1.1364 O   0  0  0  0  0  0  0  0  0  0  0  0
   -0.4800    0.5411   -0.3829 C   0  0  0  0  0  0  0  0  0  0  0  0
   -1.8134    0.4862   -0.1976 C   0  0  0  0  0  0  0  0  0  0  0  0
   -2.7972    1.3698   -0.7412 C   0  0  0  0  0  0  0  0  0  0  0  0
   -4.1050    1.2004   -0.4745 C   0  0  0  0  0  0  0  0  0  0  0  0
   -4.5825    0.1879    0.3228 C   0  0  0  0  0  0  0  0  0  0  0  0
   -3.6584   -0.7162    0.8881 C   0  0  0  0  0  0  0  0  0  0  0  0
   -2.3559   -0.4773    0.5706 C   0  0  0  0  0  0  0  0  0  0  0  0
   -0.7065   -1.4900    1.1370 Se  0  0  0  0  0  2  0  0  0  0  0  0
    0.3509   -0.3032    0.1484 N   0  0  0  0  0  0  0  0  0  0  0  0
    1.7737   -0.4127    0.0744 C   0  0  0  0  0  0  0  0  0  0  0  0
    2.4094   -1.6008   -0.1929 C   0  0  0  0  0  0  0  0  0  0  0  0
    3.7823   -1.6113   -0.2447 C   0  0  0  0  0  0  0  0  0  0  0  0
    4.5457   -0.4775   -0.0393 C   0  0  0  0  0  0  0  0  0  0  0  0
    3.8687    0.7048    0.2283 C   0  0  0  0  0  0  0  0  0  0  0  0
    2.4942    0.7431    0.2859 C   0  0  0  0  0  0  0  0  0  0  0  0
   -2.4314    2.1566   -1.3603 H   0  0  0  0  0  0  0  0  0  0  0  0
   -4.8587    1.9146   -0.9184 H   0  0  0  0  0  0  0  0  0  0  0  0
   -5.6144    0.0817    0.5132 H   0  0  0  0  0  0  0  0  0  0  0  0
   -3.9626   -1.5318    1.5216 H   0  0  0  0  0  0  0  0  0  0  0  0
    1.8081   -2.4767   -0.3512 H   0  0  0  0  0  0  0  0  0  0  0  0
    4.2550   -2.5794   -0.4609 H   0  0  0  0  0  0  0  0  0  0  0  0
    5.6146   -0.5013   -0.0828 H   0  0  0  0  0  0  0  0  0  0  0  0
    4.4178    1.6120    0.3949 H   0  0  0  0  0  0  0  0  0  0  0  0
    2.0204    1.6900    0.4978 H   0  0  0  0  0  0  0  0  0  0  0  0
  1  2  2  0
  2  3  1  0
  3  4  2  0
  4  5  1  0
  5  6  2  0
  6  7  1  0
  7  8  2  0
  8  9  1  0
  9 10  1  0
 10 11  1  0
 11 12  2  0
 12 13  1  0
 13 14  2  0
 14 15  1  0
 15 16  2  0
 10  2  1  0
 16 11  1  0
  8  3  1  0
  4 17  1  0
  5 18  1  0
  6 19  1  0
  7 20  1  0
 12 21  1  0
 13 22  1  0
 14 23  1  0
 15 24  1  0
 16 25  1  0
M  END
$$$$
