
     RDKit          3D

 44 47  0  0  0  0  0  0  0  0999 V2000
    5.6946    0.9778    1.1082 O   0  0  0  0  0  0  0  0  0  0  0  0
    5.0232   -0.3201    1.5023 S   0  0  0  0  0  6  0  0  0  0  0  0
    5.2790   -0.5277    2.9459 O   0  0  0  0  0  0  0  0  0  0  0  0
    5.7214   -1.5728    0.5819 N   0  0  0  0  0  0  0  0  0  0  0  0
    5.7618   -1.5794   -0.8431 C   0  0  0  0  0  0  0  0  0  0  0  0
    6.1213   -2.2168   -1.7595 N   0  0  0  0  0  0  0  0  0  0  0  0
    6.0269   -1.9401   -3.0075 N   0  0  0  0  0  0  0  0  0  0  0  0
    5.4957   -0.8696   -3.4076 C   0  0  0  0  0  0  0  0  0  0  0  0
    5.0404   -0.0973   -1.7723 S   0  0  0  0  0  0  0  0  0  0  0  0
    3.3036   -0.1515    1.1763 C   0  0  0  0  0  0  0  0  0  0  0  0
    2.6678   -1.0227    0.3127 C   0  0  0  0  0  0  0  0  0  0  0  0
    1.3330   -0.8955    0.0720 C   0  0  0  0  0  0  0  0  0  0  0  0
    0.5687   -2.0385   -0.9998 Cl  0  0  0  0  0  0  0  0  0  0  0  0
    0.5157    0.0998    0.6613 C   0  0  0  0  0  0  0  0  0  0  0  0
   -0.7637    0.1176    0.3545 O   0  0  0  0  0  0  0  0  0  0  0  0
   -1.8964    0.6892    0.6951 C   0  0  0  0  0  0  0  0  0  0  0  0
   -2.1599    1.5249    1.7581 C   0  0  0  0  0  0  0  0  0  0  0  0
   -3.3962    2.0875    2.0412 C   0  0  0  0  0  0  0  0  0  0  0  0
   -4.4496    1.8082    1.2219 C   0  0  0  0  0  0  0  0  0  0  0  0
   -5.7986    2.4042    1.5080 C   0  0  0  0  0  0  0  0  0  0  0  0
   -6.5367    2.2786    0.3556 F   0  0  0  0  0  0  0  0  0  0  0  0
   -6.3709    1.6683    2.5315 F   0  0  0  0  0  0  0  0  0  0  0  0
   -5.6746    3.7431    1.8457 F   0  0  0  0  0  0  0  0  0  0  0  0
   -4.2478    0.9820    0.1473 C   0  0  0  0  0  0  0  0  0  0  0  0
   -3.0175    0.4347   -0.1194 C   0  0  0  0  0  0  0  0  0  0  0  0
   -2.8288   -0.3894   -1.2963 C   0  0  0  0  0  0  0  0  0  0  0  0
   -3.6700   -1.4929   -1.4391 C   0  0  0  0  0  0  0  0  0  0  0  0
   -3.5961   -2.3210   -2.5375 C   0  0  0  0  0  0  0  0  0  0  0  0
   -2.6693   -2.0049   -3.4605 N   0  0  0  0  0  0  0  0  0  0  0  0
   -1.8684   -0.9652   -3.3376 N   0  0  0  0  0  0  0  0  0  0  0  0
   -1.9223   -0.1446   -2.2764 C   0  0  0  0  0  0  0  0  0  0  0  0
    1.2011    0.9366    1.5096 C   0  0  0  0  0  0  0  0  0  0  0  0
    2.5662    0.8288    1.7748 C   0  0  0  0  0  0  0  0  0  0  0  0
    3.1404    1.6907    2.6160 F   0  0  0  0  0  0  0  0  0  0  0  0
    6.1418   -2.3762    1.0514 H   0  0  0  0  0  0  0  0  0  0  0  0
    5.2706   -0.3591   -4.3499 H   0  0  0  0  0  0  0  0  0  0  0  0
    3.2457   -1.8254   -0.1746 H   0  0  0  0  0  0  0  0  0  0  0  0
   -1.3610    1.7671    2.4674 H   0  0  0  0  0  0  0  0  0  0  0  0
   -3.5165    2.7404    2.9051 H   0  0  0  0  0  0  0  0  0  0  0  0
   -5.1144    0.7693   -0.5020 H   0  0  0  0  0  0  0  0  0  0  0  0
   -4.4045   -1.7244   -0.6850 H   0  0  0  0  0  0  0  0  0  0  0  0
   -4.2588   -3.1764   -2.6332 H   0  0  0  0  0  0  0  0  0  0  0  0
   -1.2611    0.7240   -2.1627 H   0  0  0  0  0  0  0  0  0  0  0  0
    0.6643    1.7388    1.9832 H   0  0  0  0  0  0  0  0  0  0  0  0
  1  2  2  0
  2  3  2  0
  2  4  1  0
  4  5  1  0
  5  6  2  0
  6  7  1  0
  7  8  2  0
  8  9  1  0
  2 10  1  0
 10 11  2  0
 11 12  1  0
 12 13  1  0
 12 14  2  0
 14 15  1  0
 15 16  1  0
 16 17  2  0
 17 18  1  0
 18 19  2  0
 19 20  1  0
 20 21  1  0
 20 22  1  0
 20 23  1  0
 19 24  1  0
 24 25  2  0
 25 26  1  0
 26 27  2  0
 27 28  1  0
 28 29  2  0
 29 30  1  0
 30 31  2  0
 14 32  1  0
 32 33  2  0
 33 34  1  0
  9  5  1  0
 33 10  1  0
 25 16  1  0
 31 26  1  0
  4 35  1  0
  8 36  1  0
 11 37  1  0
 17 38  1  0
 18 39  1  0
 24 40  1  0
 27 41  1  0
 28 42  1  0
 31 43  1  0
 32 44  1  0
M  END
$$$$
