@<TRIPOS>MOLECULE
*****
 44 47 0 0 0
SMALL
GASTEIGER

@<TRIPOS>ATOM
      1 O           5.6946    0.9778    1.1082 O.2     1  UNL1       -0.1498
      2 S           5.0232   -0.3201    1.5023 S.O2    1  UNL1        0.0767
      3 O           5.2790   -0.5277    2.9459 O.2     1  UNL1       -0.1498
      4 N           5.7214   -1.5728    0.5819 N.pl3   1  UNL1       -0.1923
      5 C           5.7618   -1.5794   -0.8431 C.ar    1  UNL1        0.2004
      6 N           6.1213   -2.2168   -1.7595 N.ar    1  UNL1       -0.1248
      7 N           6.0269   -1.9401   -3.0075 N.ar    1  UNL1       -0.1481
      8 C           5.4957   -0.8696   -3.4076 C.ar    1  UNL1        0.0902
      9 S           5.0404   -0.0973   -1.7723 S.2     1  UNL1       -0.0376
     10 C           3.3036   -0.1515    1.1763 C.ar    1  UNL1        0.1452
     11 C           2.6678   -1.0227    0.3127 C.ar    1  UNL1       -0.0103
     12 C           1.3330   -0.8955    0.0720 C.ar    1  UNL1        0.0852
     13 CL          0.5687   -2.0385   -0.9998 Cl      1  UNL1       -0.0797
     14 C           0.5157    0.0998    0.6613 C.ar    1  UNL1        0.1495
     15 O          -0.7637    0.1176    0.3545 O.3     1  UNL1       -0.4539
     16 C          -1.8964    0.6892    0.6951 C.ar    1  UNL1        0.1362
     17 C          -2.1599    1.5249    1.7581 C.ar    1  UNL1       -0.0182
     18 C          -3.3962    2.0875    2.0412 C.ar    1  UNL1       -0.0466
     19 C          -4.4496    1.8082    1.2219 C.ar    1  UNL1        0.0556
     20 C          -5.7986    2.4042    1.5080 C.3     1  UNL1        0.4174
     21 F          -6.5367    2.2786    0.3556 F       1  UNL1       -0.1659
     22 F          -6.3709    1.6683    2.5315 F       1  UNL1       -0.1659
     23 F          -5.6746    3.7431    1.8457 F       1  UNL1       -0.1659
     24 C          -4.2478    0.9820    0.1473 C.ar    1  UNL1       -0.0388
     25 C          -3.0175    0.4347   -0.1194 C.ar    1  UNL1        0.0265
     26 C          -2.8288   -0.3894   -1.2963 C.ar    1  UNL1        0.0069
     27 C          -3.6700   -1.4929   -1.4391 C.ar    1  UNL1       -0.0325
     28 C          -3.5961   -2.3210   -2.5375 C.ar    1  UNL1        0.0505
     29 N          -2.6693   -2.0049   -3.4605 N.ar    1  UNL1       -0.1577
     30 N          -1.8684   -0.9652   -3.3376 N.ar    1  UNL1       -0.1571
     31 C          -1.9223   -0.1446   -2.2764 C.ar    1  UNL1        0.0578
     32 C           1.2011    0.9366    1.5096 C.ar    1  UNL1        0.0193
     33 C           2.5662    0.8288    1.7748 C.ar    1  UNL1        0.1535
     34 F           3.1404    1.6907    2.6160 F       1  UNL1       -0.2033
     35 H           6.1418   -2.3762    1.0514 H       1  UNL1        0.1758
     36 H           5.2706   -0.3591   -4.3499 H       1  UNL1        0.0927
     37 H           3.2457   -1.8254   -0.1746 H       1  UNL1        0.0654
     38 H          -1.3610    1.7671    2.4674 H       1  UNL1        0.0655
     39 H          -3.5165    2.7404    2.9051 H       1  UNL1        0.0624
     40 H          -5.1144    0.7693   -0.5020 H       1  UNL1        0.0630
     41 H          -4.4045   -1.7244   -0.6850 H       1  UNL1        0.0640
     42 H          -4.2588   -3.1764   -2.6332 H       1  UNL1        0.0848
     43 H          -1.2611    0.7240   -2.1627 H       1  UNL1        0.0854
     44 H           0.6643    1.7388    1.9832 H       1  UNL1        0.0684
@<TRIPOS>BOND
     1     1     2    2
     2     2     3    2
     3     2     4    1
     4     4     5    1
     5     5     6   ar
     6     6     7   ar
     7     7     8   ar
     8     8     9   ar
     9     2    10    1
    10    10    11   ar
    11    11    12   ar
    12    12    13    1
    13    12    14   ar
    14    14    15    1
    15    15    16    1
    16    16    17   ar
    17    17    18   ar
    18    18    19   ar
    19    19    20    1
    20    20    21    1
    21    20    22    1
    22    20    23    1
    23    19    24   ar
    24    24    25   ar
    25    25    26    1
    26    26    27   ar
    27    27    28   ar
    28    28    29   ar
    29    29    30   ar
    30    30    31   ar
    31    14    32   ar
    32    32    33   ar
    33    33    34    1
    34     9     5   ar
    35    33    10   ar
    36    25    16   ar
    37    31    26   ar
    38     4    35    1
    39     8    36    1
    40    11    37    1
    41    17    38    1
    42    18    39    1
    43    24    40    1
    44    27    41    1
    45    28    42    1
    46    31    43    1
    47    32    44    1
