@<TRIPOS>MOLECULE
*****
 32 33 0 0 0
SMALL
GASTEIGER

@<TRIPOS>ATOM
      1 O          -0.7273   -1.8435    0.4410 O.2     1  UNL1       -0.2451
      2 C          -1.8595   -1.4053    0.5863 C.2     1  UNL1        0.3386
      3 O          -2.7399   -2.1627    1.3883 O.3     1  UNL1       -0.4771
      4 C          -2.3108   -0.1666   -0.0234 C.ar    1  UNL1        0.0799
      5 C          -3.6509    0.2106    0.1939 C.ar    1  UNL1       -0.0460
      6 C          -4.1887    1.3345   -0.3392 C.ar    1  UNL1       -0.0609
      7 C          -3.3704    2.1214   -1.1207 C.ar    1  UNL1       -0.0600
      8 C          -2.0719    1.7593   -1.3329 C.ar    1  UNL1       -0.0397
      9 C          -1.4850    0.5912   -0.7879 C.ar    1  UNL1        0.0456
     10 N          -0.1474    0.3854   -1.1088 N.pl3   1  UNL1       -0.3086
     11 C           1.0298    0.2092   -0.3807 C.ar    1  UNL1        0.1101
     12 C           1.8005   -0.9371   -0.6839 C.ar    1  UNL1       -0.0223
     13 C           2.9630   -1.2623   -0.0484 C.ar    1  UNL1        0.0570
     14 C           3.7551   -2.4731   -0.3851 C.3     1  UNL1        0.4175
     15 F           4.9802   -2.1354   -0.9489 F       1  UNL1       -0.1659
     16 F           3.1017   -3.2626   -1.3104 F       1  UNL1       -0.1659
     17 F           3.9664   -3.2636    0.7363 F       1  UNL1       -0.1659
     18 C           3.3679   -0.3887    0.9414 C.ar    1  UNL1       -0.0436
     19 C           2.6484    0.7295    1.2607 C.ar    1  UNL1        0.0180
     20 C           1.4523    1.0564    0.5995 C.ar    1  UNL1        0.2940
     21 N           0.7763    2.2541    1.0092 N.pl3   1  UNL1        0.0815
     22 O           0.1577    3.0286    0.3109 O.2     1  UNL1        0.0415
     23 O           0.8821    2.5716    2.3545 O.co2   1  UNL1       -0.5760
     24 H          -2.4394   -3.0714    1.7154 H       1  UNL1        0.2954
     25 H          -4.2476   -0.4309    0.8069 H       1  UNL1        0.0626
     26 H          -5.2143    1.6541   -0.1927 H       1  UNL1        0.0618
     27 H          -3.7949    3.0273   -1.5538 H       1  UNL1        0.0618
     28 H          -1.4248    2.3758   -1.9474 H       1  UNL1        0.0636
     29 H           0.0506    0.3497   -2.2039 H       1  UNL1        0.1524
     30 H           1.4523   -1.6112   -1.4749 H       1  UNL1        0.0644
     31 H           4.3051   -0.6448    1.4593 H       1  UNL1        0.0625
     32 H           2.9835    1.4004    2.0393 H       1  UNL1        0.0686
@<TRIPOS>UNITY_ATOM_ATTR
21 1
charge 1
23 1
charge -1
@<TRIPOS>BOND
     1     1     2    2
     2     2     3    1
     3     2     4    1
     4     4     5   ar
     5     5     6   ar
     6     6     7   ar
     7     7     8   ar
     8     8     9   ar
     9     9    10    1
    10    10    11    1
    11    11    12   ar
    12    12    13   ar
    13    13    14    1
    14    14    15    1
    15    14    16    1
    16    14    17    1
    17    13    18   ar
    18    18    19   ar
    19    19    20   ar
    20    20    21    1
    21    21    22    2
    22    21    23    1
    23     9     4   ar
    24    20    11   ar
    25     3    24    1
    26     5    25    1
    27     6    26    1
    28     7    27    1
    29     8    28    1
    30    10    29    1
    31    12    30    1
    32    18    31    1
    33    19    32    1
