@<TRIPOS>MOLECULE
*****
 82 85 0 0 0
SMALL
GASTEIGER

@<TRIPOS>ATOM
      1 C          -9.2232   -1.8000   -0.8113 C.3     1  UNL1       -0.0625
      2 C          -8.5102   -1.4705    0.4790 C.3     1  UNL1       -0.0431
      3 C          -9.2563   -2.2771    1.5520 C.3     1  UNL1       -0.0625
      4 C          -8.6275   -0.0202    0.8273 C.3     1  UNL1       -0.0083
      5 C          -8.0793    0.9492   -0.1695 C.3     1  UNL1        0.1515
      6 N          -8.3094    2.3078    0.4023 N.pl3   1  UNL1       -0.2649
      7 C          -7.9424    3.4117   -0.4039 C.cat   1  UNL1        0.3768
      8 N          -8.2705    4.7006    0.1420 N.pl3   1  UNL1       -0.2892
      9 N          -7.3649    3.3610   -1.5424 N.pl3   1  UNL1       -0.1298
     10 C          -6.6367    0.8131   -0.4440 C.2     1  UNL1        0.2504
     11 O          -5.8899    1.7593   -0.0476 O.2     1  UNL1       -0.2720
     12 N          -5.9246   -0.2165   -1.0917 N.am    1  UNL1       -0.3039
     13 C          -4.5216   -0.3478   -1.3588 C.3     1  UNL1        0.0884
     14 C          -3.7055   -0.3216   -0.1152 C.2     1  UNL1        0.2327
     15 O          -3.9753   -0.1950    1.1055 O.2     1  UNL1       -0.2739
     16 N          -2.2752   -0.4560   -0.1157 N.am    1  UNL1       -0.3002
     17 C          -1.7516   -0.3458    1.2473 C.3     1  UNL1        0.0153
     18 C          -0.3764   -1.0259    1.2293 C.3     1  UNL1       -0.0288
     19 C           0.3451   -0.6590   -0.0157 C.3     1  UNL1        0.0039
     20 C          -0.3016   -1.2863   -1.2518 C.3     1  UNL1       -0.0288
     21 C          -1.6785   -0.6800   -1.4458 C.3     1  UNL1        0.0153
     22 C           1.7578   -1.0119    0.0636 C.ar    1  UNL1        0.0427
     23 C           2.7431   -0.2569   -0.5725 C.ar    1  UNL1       -0.0128
     24 C           4.0023   -0.7545   -0.3574 C.ar    1  UNL1        0.0944
     25 N           3.7579   -1.8362    0.4301 N.ar    1  UNL1       -0.1712
     26 N           2.4683   -1.9773    0.6681 N.ar    1  UNL1       -0.2705
     27 C           1.8541   -3.0219    1.4655 C.3     1  UNL1        0.0305
     28 C           5.3575   -0.4003   -0.7450 C.ar    1  UNL1        0.0221
     29 C           6.3917   -1.0950   -0.1241 C.ar    1  UNL1       -0.0476
     30 C           7.7188   -0.8862   -0.4214 C.ar    1  UNL1       -0.0178
     31 C           8.0531    0.0465   -1.3730 C.ar    1  UNL1        0.1408
     32 O           9.2574    0.4038   -1.8175 O.3     1  UNL1       -0.4828
     33 C          10.5531    0.0570   -1.5458 C.3     1  UNL1        0.1470
     34 C          10.9052    0.3783   -0.1471 C.ar    1  UNL1        0.1433
     35 C          10.9296   -0.2546    1.0727 C.ar    1  UNL1       -0.0164
     36 C          11.3712    0.5880    2.0769 C.ar    1  UNL1       -0.0089
     37 C          11.6072    1.7535    1.3880 C.ar    1  UNL1        0.2116
     38 O          11.3323    1.6104    0.1036 O.2     1  UNL1       -0.4497
     39 C          12.0982    2.9853    1.9984 C.2     1  UNL1        0.3725
     40 O          12.3855    4.2149    1.4751 O.3     1  UNL1       -0.4750
     41 O          12.3407    3.0536    3.2281 O.2     1  UNL1       -0.2417
     42 C           7.0328    0.7398   -1.9933 C.ar    1  UNL1        0.1014
     43 CL          7.3161    1.9616   -3.2223 Cl      1  UNL1       -0.0782
     44 C           5.6764    0.5401   -1.7015 C.ar    1  UNL1        0.0720
     45 CL          4.4256    1.4300   -2.5131 Cl      1  UNL1       -0.0812
     46 H          -9.1003   -1.0216   -1.5801 H       1  UNL1        0.0232
     47 H         -10.2952   -2.0345   -0.6610 H       1  UNL1        0.0232
     48 H          -8.7559   -2.7384   -1.2191 H       1  UNL1        0.0232
     49 H          -7.4706   -1.7960    0.5082 H       1  UNL1        0.0297
     50 H         -10.3340   -2.1327    1.4115 H       1  UNL1        0.0232
     51 H          -8.9673   -3.3378    1.3732 H       1  UNL1        0.0232
     52 H          -8.9511   -2.0011    2.5616 H       1  UNL1        0.0232
     53 H          -8.1871    0.1907    1.8425 H       1  UNL1        0.0306
     54 H          -9.7252    0.1781    0.9698 H       1  UNL1        0.0306
     55 H          -8.6418    0.8858   -1.1150 H       1  UNL1        0.0790
     56 H          -8.7177    2.4433    1.3440 H       1  UNL1        0.2587
     57 H          -9.2104    5.0539   -0.1485 H       1  UNL1        0.2546
     58 H          -8.9520    5.5030    0.2308 H       1  UNL1        0.2546
     59 H          -7.1225    4.1984   -2.0820 H       1  UNL1        0.3062
     60 H          -6.5341   -0.9995   -1.4451 H       1  UNL1        0.1493
     61 H          -4.2370    0.5542   -1.9839 H       1  UNL1        0.0558
     62 H          -4.3180   -1.2037   -2.0001 H       1  UNL1        0.0558
     63 H          -2.3858   -0.9488    1.9158 H       1  UNL1        0.0465
     64 H          -1.6426    0.7132    1.5596 H       1  UNL1        0.0465
     65 H          -0.5988   -2.1142    1.3059 H       1  UNL1        0.0287
     66 H           0.1650   -0.6167    2.1004 H       1  UNL1        0.0287
     67 H           0.2912    0.4506   -0.2383 H       1  UNL1        0.0365
     68 H          -0.3300   -2.3823   -1.2103 H       1  UNL1        0.0287
     69 H           0.3192   -0.9768   -2.1147 H       1  UNL1        0.0287
     70 H          -2.2937   -1.4560   -1.9500 H       1  UNL1        0.0465
     71 H          -1.6974    0.2090   -2.0710 H       1  UNL1        0.0465
     72 H           2.5830    0.6111   -1.1611 H       1  UNL1        0.0657
     73 H           1.1542   -3.6593    0.8820 H       1  UNL1        0.0473
     74 H           2.6917   -3.7232    1.7572 H       1  UNL1        0.0473
     75 H           1.4495   -2.6103    2.3924 H       1  UNL1        0.0473
     76 H           6.2581   -1.8578    0.6456 H       1  UNL1        0.0626
     77 H           8.5189   -1.4122    0.0436 H       1  UNL1        0.0655
     78 H          10.7207   -1.0756   -1.6105 H       1  UNL1        0.0779
     79 H          11.2960    0.5558   -2.2182 H       1  UNL1        0.0779
     80 H          10.6228   -1.2883    1.1292 H       1  UNL1        0.0653
     81 H          11.4796    0.3306    3.1211 H       1  UNL1        0.0658
     82 H          11.8583    5.0402    1.7364 H       1  UNL1        0.2955
@<TRIPOS>BOND
     1     1     2    1
     2     2     3    1
     3     2     4    1
     4     4     5    1
     5     5     6    1
     6     6     7    1
     7     7     8    1
     8     7     9    2
     9     5    10    1
    10    10    11    2
    11    10    12   am
    12    12    13    1
    13    13    14    1
    14    14    15    2
    15    14    16   am
    16    16    17    1
    17    17    18    1
    18    18    19    1
    19    19    20    1
    20    20    21    1
    21    19    22    1
    22    22    23   ar
    23    23    24   ar
    24    24    25   ar
    25    25    26   ar
    26    26    27    1
    27    24    28    1
    28    28    29   ar
    29    29    30   ar
    30    30    31   ar
    31    31    32    1
    32    32    33    1
    33    33    34    1
    34    34    35   ar
    35    35    36   ar
    36    36    37   ar
    37    37    38   ar
    38    37    39    1
    39    39    40    1
    40    39    41    2
    41    31    42   ar
    42    42    43    1
    43    42    44   ar
    44    44    45    1
    45    21    16    1
    46    26    22   ar
    47    44    28   ar
    48    38    34   ar
    49     1    46    1
    50     1    47    1
    51     1    48    1
    52     2    49    1
    53     3    50    1
    54     3    51    1
    55     3    52    1
    56     4    53    1
    57     4    54    1
    58     5    55    1
    59     6    56    1
    60     8    57    1
    61     8    58    1
    62     9    59    1
    63    12    60    1
    64    13    61    1
    65    13    62    1
    66    17    63    1
    67    17    64    1
    68    18    65    1
    69    18    66    1
    70    19    67    1
    71    20    68    1
    72    20    69    1
    73    21    70    1
    74    21    71    1
    75    23    72    1
    76    27    73    1
    77    27    74    1
    78    27    75    1
    79    29    76    1
    80    30    77    1
    81    33    78    1
    82    33    79    1
    83    35    80    1
    84    36    81    1
    85    40    82    1
