@<TRIPOS>MOLECULE
*****
 50 54 0 0 0
SMALL
GASTEIGER

@<TRIPOS>ATOM
      1 O           2.7328   -3.9687   -1.4013 O.2     1  UNL1       -0.2446
      2 C           1.7787   -3.4936   -0.6965 C.ar    1  UNL1        0.3489
      3 N           0.7577   -4.2008   -0.2254 N.ar    1  UNL1       -0.2260
      4 N          -0.0229   -3.3979    0.4477 N.ar    1  UNL1       -0.1509
      5 C           0.5224   -2.1471    0.3995 C.ar    1  UNL1        0.1693
      6 C           0.0030   -0.9434    1.0033 C.ar    1  UNL1        0.0243
      7 C           0.8239   -0.0652    1.6347 C.ar    1  UNL1       -0.0327
      8 C           0.3213    1.0812    2.2086 C.ar    1  UNL1        0.0304
      9 N          -1.0133    1.3215    2.1332 N.ar    1  UNL1       -0.2405
     10 C          -1.8726    0.4880    1.5210 C.ar    1  UNL1        0.1195
     11 N          -3.2538    0.8066    1.4983 N.pl3   1  UNL1       -0.3261
     12 C          -4.2537   -0.0143    0.8239 C.3     1  UNL1        0.0261
     13 C          -4.1037   -0.0183   -0.6709 C.3     1  UNL1       -0.0109
     14 C          -4.9809    0.9912   -1.3665 C.3     1  UNL1        0.0493
     15 O          -6.2874    0.9630   -0.9349 O.3     1  UNL1       -0.3796
     16 C          -6.2675    1.4073    0.3958 C.3     1  UNL1        0.0493
     17 C          -5.6482    0.3291    1.2261 C.3     1  UNL1       -0.0109
     18 C          -1.3424   -0.6738    0.9432 C.ar    1  UNL1       -0.0112
     19 N           1.6717   -2.2063   -0.3299 N.ar    1  UNL1       -0.2437
     20 C           2.5258   -1.1069   -0.6057 C.ar    1  UNL1        0.0536
     21 C           2.0408    0.0500   -1.1866 C.ar    1  UNL1       -0.0370
     22 C           2.8667    1.1397   -1.4642 C.ar    1  UNL1       -0.0520
     23 C           4.2100    1.0847   -1.1592 C.ar    1  UNL1       -0.0150
     24 C           5.0472    2.1565   -1.4271 C.ar    1  UNL1       -0.0539
     25 C           6.3971    2.1284   -1.1317 C.ar    1  UNL1       -0.0585
     26 C           6.9127    0.9731   -0.5450 C.ar    1  UNL1       -0.0258
     27 C           6.0575   -0.0776   -0.2897 C.ar    1  UNL1        0.1311
     28 F           6.5660   -1.1882    0.2771 F       1  UNL1       -0.2049
     29 C           4.7092   -0.0628   -0.5791 C.ar    1  UNL1        0.0193
     30 C           3.8782   -1.1356   -0.3096 C.ar    1  UNL1       -0.0272
     31 H           0.6351   -5.2288   -0.3886 H       1  UNL1        0.1937
     32 H           1.8735   -0.2473    1.6977 H       1  UNL1        0.0640
     33 H           0.9484    1.8023    2.7197 H       1  UNL1        0.0830
     34 H          -3.5737    1.6644    1.9840 H       1  UNL1        0.1477
     35 H          -4.0961   -1.0933    1.1361 H       1  UNL1        0.0499
     36 H          -3.0554    0.2476   -0.9381 H       1  UNL1        0.0305
     37 H          -4.2664   -1.0294   -1.1008 H       1  UNL1        0.0305
     38 H          -4.5735    1.9978   -1.1224 H       1  UNL1        0.0560
     39 H          -4.9249    0.7731   -2.4527 H       1  UNL1        0.0560
     40 H          -7.3321    1.5104    0.7087 H       1  UNL1        0.0560
     41 H          -5.7297    2.3621    0.4156 H       1  UNL1        0.0560
     42 H          -6.2855   -0.5842    1.0960 H       1  UNL1        0.0305
     43 H          -5.7127    0.5691    2.3154 H       1  UNL1        0.0305
     44 H          -2.0384   -1.3282    0.4694 H       1  UNL1        0.0659
     45 H           0.9927    0.0773   -1.4182 H       1  UNL1        0.0638
     46 H           2.4647    2.0377   -1.9206 H       1  UNL1        0.0624
     47 H           4.6190    3.0396   -1.8827 H       1  UNL1        0.0624
     48 H           7.0184    2.9775   -1.3527 H       1  UNL1        0.0619
     49 H           7.9739    0.9383   -0.3076 H       1  UNL1        0.0646
     50 H           4.2867   -2.0439    0.1524 H       1  UNL1        0.0645
@<TRIPOS>BOND
     1     1     2    2
     2     2     3   ar
     3     3     4   ar
     4     4     5   ar
     5     5     6    1
     6     6     7   ar
     7     7     8   ar
     8     8     9   ar
     9     9    10   ar
    10    10    11    1
    11    11    12    1
    12    12    13    1
    13    13    14    1
    14    14    15    1
    15    15    16    1
    16    16    17    1
    17    10    18   ar
    18     5    19   ar
    19    19    20    1
    20    20    21   ar
    21    21    22   ar
    22    22    23   ar
    23    23    24   ar
    24    24    25   ar
    25    25    26   ar
    26    26    27   ar
    27    27    28    1
    28    27    29   ar
    29    29    30   ar
    30    19     2   ar
    31    30    20   ar
    32    18     6   ar
    33    29    23   ar
    34    17    12    1
    35     3    31    1
    36     7    32    1
    37     8    33    1
    38    11    34    1
    39    12    35    1
    40    13    36    1
    41    13    37    1
    42    14    38    1
    43    14    39    1
    44    16    40    1
    45    16    41    1
    46    17    42    1
    47    17    43    1
    48    18    44    1
    49    21    45    1
    50    22    46    1
    51    24    47    1
    52    25    48    1
    53    26    49    1
    54    30    50    1
