@<TRIPOS>MOLECULE
*****
 49 51 0 0 0
SMALL
GASTEIGER

@<TRIPOS>ATOM
      1 C           3.6821   -2.8414    0.1002 C.3     1  UNL1        0.0789
      2 O           3.4808   -1.4519    0.2035 O.3     1  UNL1       -0.4928
      3 C           4.5433   -0.5859    0.3312 C.ar    1  UNL1        0.1517
      4 C           5.8358   -1.1432    0.3548 C.ar    1  UNL1        0.0012
      5 C           6.9413   -0.3426    0.4791 C.ar    1  UNL1        0.0733
      6 C           8.2827   -0.8628    0.5089 C.1     1  UNL1        0.1008
      7 N           9.3638   -1.2887    0.5168 N.1     1  UNL1       -0.1908
      8 C           6.7172    1.0083    0.5774 C.ar    1  UNL1        0.0460
      9 N           5.4807    1.5148    0.5528 N.ar    1  UNL1       -0.2455
     10 C           4.3486    0.7625    0.4311 C.ar    1  UNL1        0.1672
     11 C           3.0548    1.4120    0.4212 C.2     1  UNL1        0.2702
     12 O           3.1001    2.6895    0.5056 O.2     1  UNL1       -0.2680
     13 N           1.7897    0.8530    0.3351 N.am    1  UNL1       -0.2800
     14 C           0.5228    1.5059    0.3290 C.ar    1  UNL1        0.0369
     15 C           0.3098    2.8515    0.4458 C.ar    1  UNL1       -0.0023
     16 C          -0.9383    3.4416    0.4283 C.ar    1  UNL1        0.1605
     17 F          -1.0921    4.7937    0.5486 F       1  UNL1       -0.2024
     18 C          -2.0352    2.6370    0.2858 C.ar    1  UNL1        0.1640
     19 F          -3.2891    3.1572    0.2620 F       1  UNL1       -0.2021
     20 C          -1.9006    1.2468    0.1601 C.ar    1  UNL1        0.0197
     21 C          -3.1576    0.4503    0.0134 C.3     1  UNL1        0.0952
     22 C          -4.1137    0.8046    1.1493 C.3     1  UNL1       -0.0352
     23 C          -2.9779   -1.0129   -0.0797 C.3     1  UNL1        0.0223
     24 C          -4.0254   -1.7359   -0.8992 C.3     1  UNL1        0.1997
     25 C          -4.6700   -2.8772   -0.1435 C.3     1  UNL1        0.4266
     26 F          -3.6942   -3.7900    0.2168 F       1  UNL1       -0.1669
     27 F          -5.4108   -2.4472    0.9271 F       1  UNL1       -0.1669
     28 F          -5.5203   -3.5597   -1.0107 F       1  UNL1       -0.1669
     29 O          -5.0460   -0.8957   -1.3758 O.2     1  UNL1       -0.4534
     30 C          -4.6730    0.3604   -1.8658 C.2     1  UNL1        0.2765
     31 N          -5.2264    0.9405   -3.0208 N.pl3   1  UNL1       -0.3134
     32 N          -3.7842    0.9716   -1.1960 N.2     1  UNL1       -0.2257
     33 C          -0.6435    0.7321    0.1856 C.ar    1  UNL1       -0.0321
     34 H           4.2331   -3.0858   -0.8121 H       1  UNL1        0.0660
     35 H           2.6635   -3.3243    0.0989 H       1  UNL1        0.0660
     36 H           4.2999   -3.1502    0.9684 H       1  UNL1        0.0660
     37 H           5.9690   -2.2253    0.2744 H       1  UNL1        0.0668
     38 H           7.6063    1.6365    0.6764 H       1  UNL1        0.0843
     39 H           1.7539   -0.2028    0.2668 H       1  UNL1        0.1552
     40 H           1.1477    3.5141    0.5611 H       1  UNL1        0.0666
     41 H          -3.5837    1.4735    1.8779 H       1  UNL1        0.0256
     42 H          -4.3443   -0.1294    1.6888 H       1  UNL1        0.0256
     43 H          -5.0313    1.2567    0.7824 H       1  UNL1        0.0256
     44 H          -3.0655   -1.4412    0.9502 H       1  UNL1        0.0330
     45 H          -1.9991   -1.3710   -0.4551 H       1  UNL1        0.0330
     46 H          -3.5442   -2.2242   -1.7941 H       1  UNL1        0.0826
     47 H          -6.0626    0.5186   -3.4593 H       1  UNL1        0.1466
     48 H          -4.8010    1.7857   -3.4321 H       1  UNL1        0.1466
     49 H          -0.4969   -0.3288    0.0978 H       1  UNL1        0.0640
@<TRIPOS>BOND
     1     1     2    1
     2     2     3    1
     3     3     4   ar
     4     4     5   ar
     5     5     6    1
     6     6     7    3
     7     5     8   ar
     8     8     9   ar
     9     9    10   ar
    10    10    11    1
    11    11    12    2
    12    11    13   am
    13    13    14    1
    14    14    15   ar
    15    15    16   ar
    16    16    17    1
    17    16    18   ar
    18    18    19    1
    19    18    20   ar
    20    20    21    1
    21    21    22    1
    22    21    23    1
    23    23    24    1
    24    24    25    1
    25    25    26    1
    26    25    27    1
    27    25    28    1
    28    24    29    1
    29    29    30    1
    30    30    31    1
    31    30    32    2
    32    20    33   ar
    33    10     3   ar
    34    33    14   ar
    35    32    21    1
    36     1    34    1
    37     1    35    1
    38     1    36    1
    39     4    37    1
    40     8    38    1
    41    13    39    1
    42    15    40    1
    43    22    41    1
    44    22    42    1
    45    22    43    1
    46    23    44    1
    47    23    45    1
    48    24    46    1
    49    31    47    1
    50    31    48    1
    51    33    49    1
