
     RDKit          3D

 49 51  0  0  0  0  0  0  0  0999 V2000
    3.6821   -2.8414    0.1002 C   0  0  0  0  0  0  0  0  0  0  0  0
    3.4808   -1.4519    0.2035 O   0  0  0  0  0  0  0  0  0  0  0  0
    4.5433   -0.5859    0.3312 C   0  0  0  0  0  0  0  0  0  0  0  0
    5.8358   -1.1432    0.3548 C   0  0  0  0  0  0  0  0  0  0  0  0
    6.9413   -0.3426    0.4791 C   0  0  0  0  0  0  0  0  0  0  0  0
    8.2827   -0.8628    0.5089 C   0  0  0  0  0  0  0  0  0  0  0  0
    9.3638   -1.2887    0.5168 N   0  0  0  0  0  0  0  0  0  0  0  0
    6.7172    1.0083    0.5774 C   0  0  0  0  0  0  0  0  0  0  0  0
    5.4807    1.5148    0.5528 N   0  0  0  0  0  0  0  0  0  0  0  0
    4.3486    0.7625    0.4311 C   0  0  0  0  0  0  0  0  0  0  0  0
    3.0548    1.4120    0.4212 C   0  0  0  0  0  0  0  0  0  0  0  0
    3.1001    2.6895    0.5056 O   0  0  0  0  0  0  0  0  0  0  0  0
    1.7897    0.8530    0.3351 N   0  0  0  0  0  0  0  0  0  0  0  0
    0.5228    1.5059    0.3290 C   0  0  0  0  0  0  0  0  0  0  0  0
    0.3098    2.8515    0.4458 C   0  0  0  0  0  0  0  0  0  0  0  0
   -0.9383    3.4416    0.4283 C   0  0  0  0  0  0  0  0  0  0  0  0
   -1.0921    4.7937    0.5486 F   0  0  0  0  0  0  0  0  0  0  0  0
   -2.0352    2.6370    0.2858 C   0  0  0  0  0  0  0  0  0  0  0  0
   -3.2891    3.1572    0.2620 F   0  0  0  0  0  0  0  0  0  0  0  0
   -1.9006    1.2468    0.1601 C   0  0  0  0  0  0  0  0  0  0  0  0
   -3.1576    0.4503    0.0134 C   0  0  2  0  0  0  0  0  0  0  0  0
   -4.1137    0.8046    1.1493 C   0  0  0  0  0  0  0  0  0  0  0  0
   -2.9779   -1.0129   -0.0797 C   0  0  0  0  0  0  0  0  0  0  0  0
   -4.0254   -1.7359   -0.8992 C   0  0  1  0  0  0  0  0  0  0  0  0
   -4.6700   -2.8772   -0.1435 C   0  0  0  0  0  0  0  0  0  0  0  0
   -3.6942   -3.7900    0.2168 F   0  0  0  0  0  0  0  0  0  0  0  0
   -5.4108   -2.4472    0.9271 F   0  0  0  0  0  0  0  0  0  0  0  0
   -5.5203   -3.5597   -1.0107 F   0  0  0  0  0  0  0  0  0  0  0  0
   -5.0460   -0.8957   -1.3758 O   0  0  0  0  0  0  0  0  0  0  0  0
   -4.6730    0.3604   -1.8658 C   0  0  0  0  0  0  0  0  0  0  0  0
   -5.2264    0.9405   -3.0208 N   0  0  0  0  0  0  0  0  0  0  0  0
   -3.7842    0.9716   -1.1960 N   0  0  0  0  0  0  0  0  0  0  0  0
   -0.6435    0.7321    0.1856 C   0  0  0  0  0  0  0  0  0  0  0  0
    4.2331   -3.0858   -0.8121 H   0  0  0  0  0  0  0  0  0  0  0  0
    2.6635   -3.3243    0.0989 H   0  0  0  0  0  0  0  0  0  0  0  0
    4.2999   -3.1502    0.9684 H   0  0  0  0  0  0  0  0  0  0  0  0
    5.9690   -2.2253    0.2744 H   0  0  0  0  0  0  0  0  0  0  0  0
    7.6063    1.6365    0.6764 H   0  0  0  0  0  0  0  0  0  0  0  0
    1.7539   -0.2028    0.2668 H   0  0  0  0  0  0  0  0  0  0  0  0
    1.1477    3.5141    0.5611 H   0  0  0  0  0  0  0  0  0  0  0  0
   -3.5837    1.4735    1.8779 H   0  0  0  0  0  0  0  0  0  0  0  0
   -4.3443   -0.1294    1.6888 H   0  0  0  0  0  0  0  0  0  0  0  0
   -5.0313    1.2567    0.7824 H   0  0  0  0  0  0  0  0  0  0  0  0
   -3.0655   -1.4412    0.9502 H   0  0  0  0  0  0  0  0  0  0  0  0
   -1.9991   -1.3710   -0.4551 H   0  0  0  0  0  0  0  0  0  0  0  0
   -3.5442   -2.2242   -1.7941 H   0  0  0  0  0  0  0  0  0  0  0  0
   -6.0626    0.5186   -3.4593 H   0  0  0  0  0  0  0  0  0  0  0  0
   -4.8010    1.7857   -3.4321 H   0  0  0  0  0  0  0  0  0  0  0  0
   -0.4969   -0.3288    0.0978 H   0  0  0  0  0  0  0  0  0  0  0  0
  1  2  1  0
  2  3  1  0
  3  4  2  0
  4  5  1  0
  5  6  1  0
  6  7  3  0
  5  8  2  0
  8  9  1  0
  9 10  2  0
 10 11  1  0
 11 12  2  0
 11 13  1  0
 13 14  1  0
 14 15  2  0
 15 16  1  0
 16 17  1  0
 16 18  2  0
 18 19  1  0
 18 20  1  0
 20 21  1  0
 21 22  1  1
 21 23  1  0
 23 24  1  0
 24 25  1  0
 25 26  1  0
 25 27  1  0
 25 28  1  0
 24 29  1  0
 29 30  1  0
 30 31  1  0
 30 32  2  0
 20 33  2  0
 10  3  1  0
 33 14  1  0
 32 21  1  0
  1 34  1  0
  1 35  1  0
  1 36  1  0
  4 37  1  0
  8 38  1  0
 13 39  1  0
 15 40  1  0
 22 41  1  0
 22 42  1  0
 22 43  1  0
 23 44  1  0
 23 45  1  0
 24 46  1  6
 31 47  1  0
 31 48  1  0
 33 49  1  0
M  END
$$$$
