@<TRIPOS>MOLECULE
*****
 60 63 0 0 0
SMALL
GASTEIGER

@<TRIPOS>ATOM
      1 C          -3.7370    0.1493   -0.8386 C.3     1  UNL1       -0.0298
      2 C          -4.7145    1.2486   -1.1274 C.3     1  UNL1       -0.0470
      3 C          -6.0258    0.4631   -1.1820 C.3     1  UNL1       -0.0261
      4 C          -5.7980   -0.7840   -0.3323 C.3     1  UNL1        0.0609
      5 O          -6.7969   -0.8143    0.6426 O.3     1  UNL1       -0.3912
      6 C          -4.4347   -0.5794    0.2787 C.3     1  UNL1       -0.0030
      7 C          -4.5869    0.2097    1.5347 C.3     1  UNL1       -0.0569
      8 C          -3.6737   -1.8676    0.4805 C.3     1  UNL1       -0.0445
      9 C          -2.2916   -1.5109    0.9177 C.3     1  UNL1       -0.0454
     10 C          -1.5935   -0.6692   -0.0975 C.3     1  UNL1       -0.0125
     11 C          -0.2262   -0.3125    0.3255 C.ar    1  UNL1       -0.0406
     12 C           0.3891   -0.6902    1.5053 C.ar    1  UNL1       -0.0546
     13 C           1.6847   -0.2621    1.7405 C.ar    1  UNL1       -0.0189
     14 C           2.3275    0.5269    0.7975 C.ar    1  UNL1        0.1335
     15 O           3.6206    0.8988    1.1340 O.3     1  UNL1       -0.4114
     16 C           4.6226    0.0315    0.7204 C.2     1  UNL1        0.4082
     17 O           3.5675   -0.5114    0.3061 O.2     1  UNL1       -0.2258
     18 N           6.0436   -0.2516    0.6865 N.am    1  UNL1       -0.2649
     19 C           6.7315    0.8137    1.3715 C.3     1  UNL1        0.0313
     20 C           7.0395    1.9288    0.4347 C.3     1  UNL1        0.0385
     21 CL          5.4932    2.5319   -0.2552 Cl      1  UNL1       -0.1238
     22 C           6.1575   -1.5101    0.0112 C.3     1  UNL1        0.0313
     23 C           6.2703   -1.4700   -1.4697 C.3     1  UNL1        0.0385
     24 CL          7.7047   -0.6265   -2.0606 Cl      1  UNL1       -0.1238
     25 C           1.7358    0.9169   -0.3863 C.ar    1  UNL1       -0.0157
     26 C           0.4439    0.4746   -0.5924 C.ar    1  UNL1       -0.0404
     27 C          -0.2978    0.8306   -1.8320 C.3     1  UNL1       -0.0270
     28 C          -1.6895    1.3399   -1.5385 C.3     1  UNL1       -0.0454
     29 C          -2.3858    0.5961   -0.4314 C.3     1  UNL1       -0.0305
     30 H          -3.6691   -0.5094   -1.7005 H       1  UNL1        0.0310
     31 H          -4.8092    1.9534   -0.2859 H       1  UNL1        0.0269
     32 H          -4.5214    1.8346   -2.0254 H       1  UNL1        0.0269
     33 H          -6.8391    1.0850   -0.7785 H       1  UNL1        0.0290
     34 H          -6.1814    0.1775   -2.2419 H       1  UNL1        0.0290
     35 H          -5.8830   -1.7109   -0.9216 H       1  UNL1        0.0599
     36 H          -7.3286    0.0041    0.6966 H       1  UNL1        0.2098
     37 H          -4.1616    1.2165    1.5232 H       1  UNL1        0.0236
     38 H          -5.6679    0.3282    1.8361 H       1  UNL1        0.0236
     39 H          -4.1283   -0.2905    2.4354 H       1  UNL1        0.0236
     40 H          -3.6281   -2.3517   -0.5232 H       1  UNL1        0.0272
     41 H          -4.1416   -2.5656    1.1882 H       1  UNL1        0.0272
     42 H          -2.3127   -1.0690    1.9186 H       1  UNL1        0.0271
     43 H          -1.7215   -2.4579    1.0016 H       1  UNL1        0.0271
     44 H          -1.5355   -1.2323   -1.0525 H       1  UNL1        0.0352
     45 H          -0.1963   -1.3033    2.1702 H       1  UNL1        0.0622
     46 H           2.1038   -0.5851    2.6649 H       1  UNL1        0.0654
     47 H           7.7038    0.4213    1.8196 H       1  UNL1        0.0477
     48 H           6.1307    1.2353    2.2054 H       1  UNL1        0.0477
     49 H           7.7104    1.7315   -0.3905 H       1  UNL1        0.0445
     50 H           7.4954    2.7448    1.0769 H       1  UNL1        0.0445
     51 H           5.3634   -2.2502    0.3204 H       1  UNL1        0.0477
     52 H           7.1021   -2.0249    0.4183 H       1  UNL1        0.0477
     53 H           6.2785   -2.5087   -1.9070 H       1  UNL1        0.0445
     54 H           5.3872   -0.9931   -1.9615 H       1  UNL1        0.0445
     55 H           2.2535    1.5237   -1.0931 H       1  UNL1        0.0657
     56 H           0.2133    1.6064   -2.4279 H       1  UNL1        0.0313
     57 H          -0.3938   -0.0672   -2.4722 H       1  UNL1        0.0313
     58 H          -1.5788    2.4317   -1.2837 H       1  UNL1        0.0271
     59 H          -2.2659    1.2976   -2.4791 H       1  UNL1        0.0271
     60 H          -2.3587    1.2277    0.4708 H       1  UNL1        0.0310
@<TRIPOS>BOND
     1     1     2    1
     2     2     3    1
     3     3     4    1
     4     4     5    1
     5     4     6    1
     6     6     7    1
     7     6     8    1
     8     8     9    1
     9     9    10    1
    10    10    11    1
    11    11    12   ar
    12    12    13   ar
    13    13    14   ar
    14    14    15    1
    15    15    16    1
    16    16    17    2
    17    16    18   am
    18    18    19    1
    19    19    20    1
    20    20    21    1
    21    18    22    1
    22    22    23    1
    23    23    24    1
    24    14    25   ar
    25    25    26   ar
    26    26    27    1
    27    27    28    1
    28    28    29    1
    29     6     1    1
    30    29    10    1
    31    29     1    1
    32    26    11   ar
    33     1    30    1
    34     2    31    1
    35     2    32    1
    36     3    33    1
    37     3    34    1
    38     4    35    1
    39     5    36    1
    40     7    37    1
    41     7    38    1
    42     7    39    1
    43     8    40    1
    44     8    41    1
    45     9    42    1
    46     9    43    1
    47    10    44    1
    48    12    45    1
    49    13    46    1
    50    19    47    1
    51    19    48    1
    52    20    49    1
    53    20    50    1
    54    22    51    1
    55    22    52    1
    56    23    53    1
    57    23    54    1
    58    25    55    1
    59    27    56    1
    60    27    57    1
    61    28    58    1
    62    28    59    1
    63    29    60    1
