
     RDKit          3D

 60 63  0  0  0  0  0  0  0  0999 V2000
   -3.7370    0.1493   -0.8386 C   0  0  2  0  0  0  0  0  0  0  0  0
   -4.7145    1.2486   -1.1274 C   0  0  0  0  0  0  0  0  0  0  0  0
   -6.0258    0.4631   -1.1820 C   0  0  0  0  0  0  0  0  0  0  0  0
   -5.7980   -0.7840   -0.3323 C   0  0  2  0  0  0  0  0  0  0  0  0
   -6.7969   -0.8143    0.6426 O   0  0  0  0  0  0  0  0  0  0  0  0
   -4.4347   -0.5794    0.2787 C   0  0  2  0  0  0  0  0  0  0  0  0
   -4.5869    0.2097    1.5347 C   0  0  0  0  0  0  0  0  0  0  0  0
   -3.6737   -1.8676    0.4805 C   0  0  0  0  0  0  0  0  0  0  0  0
   -2.2916   -1.5109    0.9177 C   0  0  0  0  0  0  0  0  0  0  0  0
   -1.5935   -0.6692   -0.0975 C   0  0  2  0  0  0  0  0  0  0  0  0
   -0.2262   -0.3125    0.3255 C   0  0  0  0  0  0  0  0  0  0  0  0
    0.3891   -0.6902    1.5053 C   0  0  0  0  0  0  0  0  0  0  0  0
    1.6847   -0.2621    1.7405 C   0  0  0  0  0  0  0  0  0  0  0  0
    2.3275    0.5269    0.7975 C   0  0  0  0  0  0  0  0  0  0  0  0
    3.6206    0.8988    1.1340 O   0  0  0  0  0  0  0  0  0  0  0  0
    4.6226    0.0315    0.7204 C   0  0  0  0  0  0  0  0  0  0  0  0
    3.5675   -0.5114    0.3061 O   0  0  0  0  0  0  0  0  0  0  0  0
    6.0436   -0.2516    0.6865 N   0  0  0  0  0  0  0  0  0  0  0  0
    6.7315    0.8137    1.3715 C   0  0  0  0  0  0  0  0  0  0  0  0
    7.0395    1.9288    0.4347 C   0  0  0  0  0  0  0  0  0  0  0  0
    5.4932    2.5319   -0.2552 Cl  0  0  0  0  0  0  0  0  0  0  0  0
    6.1575   -1.5101    0.0112 C   0  0  0  0  0  0  0  0  0  0  0  0
    6.2703   -1.4700   -1.4697 C   0  0  0  0  0  0  0  0  0  0  0  0
    7.7047   -0.6265   -2.0606 Cl  0  0  0  0  0  0  0  0  0  0  0  0
    1.7358    0.9169   -0.3863 C   0  0  0  0  0  0  0  0  0  0  0  0
    0.4439    0.4746   -0.5924 C   0  0  0  0  0  0  0  0  0  0  0  0
   -0.2978    0.8306   -1.8320 C   0  0  0  0  0  0  0  0  0  0  0  0
   -1.6895    1.3399   -1.5385 C   0  0  0  0  0  0  0  0  0  0  0  0
   -2.3858    0.5961   -0.4314 C   0  0  1  0  0  0  0  0  0  0  0  0
   -3.6691   -0.5094   -1.7005 H   0  0  0  0  0  0  0  0  0  0  0  0
   -4.8092    1.9534   -0.2859 H   0  0  0  0  0  0  0  0  0  0  0  0
   -4.5214    1.8346   -2.0254 H   0  0  0  0  0  0  0  0  0  0  0  0
   -6.8391    1.0850   -0.7785 H   0  0  0  0  0  0  0  0  0  0  0  0
   -6.1814    0.1775   -2.2419 H   0  0  0  0  0  0  0  0  0  0  0  0
   -5.8830   -1.7109   -0.9216 H   0  0  0  0  0  0  0  0  0  0  0  0
   -7.3286    0.0041    0.6966 H   0  0  0  0  0  0  0  0  0  0  0  0
   -4.1616    1.2165    1.5232 H   0  0  0  0  0  0  0  0  0  0  0  0
   -5.6679    0.3282    1.8361 H   0  0  0  0  0  0  0  0  0  0  0  0
   -4.1283   -0.2905    2.4354 H   0  0  0  0  0  0  0  0  0  0  0  0
   -3.6281   -2.3517   -0.5232 H   0  0  0  0  0  0  0  0  0  0  0  0
   -4.1416   -2.5656    1.1882 H   0  0  0  0  0  0  0  0  0  0  0  0
   -2.3127   -1.0690    1.9186 H   0  0  0  0  0  0  0  0  0  0  0  0
   -1.7215   -2.4579    1.0016 H   0  0  0  0  0  0  0  0  0  0  0  0
   -1.5355   -1.2323   -1.0525 H   0  0  0  0  0  0  0  0  0  0  0  0
   -0.1963   -1.3033    2.1702 H   0  0  0  0  0  0  0  0  0  0  0  0
    2.1038   -0.5851    2.6649 H   0  0  0  0  0  0  0  0  0  0  0  0
    7.7038    0.4213    1.8196 H   0  0  0  0  0  0  0  0  0  0  0  0
    6.1307    1.2353    2.2054 H   0  0  0  0  0  0  0  0  0  0  0  0
    7.7104    1.7315   -0.3905 H   0  0  0  0  0  0  0  0  0  0  0  0
    7.4954    2.7448    1.0769 H   0  0  0  0  0  0  0  0  0  0  0  0
    5.3634   -2.2502    0.3204 H   0  0  0  0  0  0  0  0  0  0  0  0
    7.1021   -2.0249    0.4183 H   0  0  0  0  0  0  0  0  0  0  0  0
    6.2785   -2.5087   -1.9070 H   0  0  0  0  0  0  0  0  0  0  0  0
    5.3872   -0.9931   -1.9615 H   0  0  0  0  0  0  0  0  0  0  0  0
    2.2535    1.5237   -1.0931 H   0  0  0  0  0  0  0  0  0  0  0  0
    0.2133    1.6064   -2.4279 H   0  0  0  0  0  0  0  0  0  0  0  0
   -0.3938   -0.0672   -2.4722 H   0  0  0  0  0  0  0  0  0  0  0  0
   -1.5788    2.4317   -1.2837 H   0  0  0  0  0  0  0  0  0  0  0  0
   -2.2659    1.2976   -2.4791 H   0  0  0  0  0  0  0  0  0  0  0  0
   -2.3587    1.2277    0.4708 H   0  0  0  0  0  0  0  0  0  0  0  0
  1  2  1  0
  2  3  1  0
  3  4  1  0
  4  5  1  0
  4  6  1  0
  6  7  1  1
  6  8  1  0
  8  9  1  0
  9 10  1  0
 10 11  1  0
 11 12  2  0
 12 13  1  0
 13 14  2  0
 14 15  1  0
 15 16  1  0
 16 17  2  0
 16 18  1  0
 18 19  1  0
 19 20  1  0
 20 21  1  0
 18 22  1  0
 22 23  1  0
 23 24  1  0
 14 25  1  0
 25 26  2  0
 26 27  1  0
 27 28  1  0
 28 29  1  0
  6  1  1  0
 29 10  1  0
 29  1  1  0
 26 11  1  0
  1 30  1  6
  2 31  1  0
  2 32  1  0
  3 33  1  0
  3 34  1  0
  4 35  1  6
  5 36  1  0
  7 37  1  0
  7 38  1  0
  7 39  1  0
  8 40  1  0
  8 41  1  0
  9 42  1  0
  9 43  1  0
 10 44  1  6
 12 45  1  0
 13 46  1  0
 19 47  1  0
 19 48  1  0
 20 49  1  0
 20 50  1  0
 22 51  1  0
 22 52  1  0
 23 53  1  0
 23 54  1  0
 25 55  1  0
 27 56  1  0
 27 57  1  0
 28 58  1  0
 28 59  1  0
 29 60  1  1
M  END
$$$$
