
     RDKit          3D

 54 58  0  0  0  0  0  0  0  0999 V2000
   -3.2575   -4.3543    1.2117 C   0  0  0  0  0  0  0  0  0  0  0  0
   -3.2130   -2.8620    1.1588 C   0  0  0  0  0  0  0  0  0  0  0  0
   -3.4339   -2.0801    2.2692 C   0  0  0  0  0  0  0  0  0  0  0  0
   -3.3797   -0.7084    2.1582 C   0  0  0  0  0  0  0  0  0  0  0  0
   -3.1070   -0.0892    0.9511 C   0  0  0  0  0  0  0  0  0  0  0  0
   -3.0604    1.3316    0.8712 N   0  0  0  0  0  0  0  0  0  0  0  0
   -2.5696    2.1935    1.7255 N   0  0  0  0  0  0  0  0  0  0  0  0
   -2.7183    3.4553    1.2835 C   0  0  0  0  0  0  0  0  0  0  0  0
   -3.3505    3.3565    0.0617 C   0  0  0  0  0  0  0  0  0  0  0  0
   -3.5353    2.0398   -0.1409 N   0  0  0  0  0  0  0  0  0  0  0  0
   -2.8926   -0.9149   -0.1329 C   0  0  0  0  0  0  0  0  0  0  0  0
   -2.6041   -0.2675   -1.3997 C   0  0  0  0  0  0  0  0  0  0  0  0
   -3.5569    0.0349   -2.1546 O   0  0  0  0  0  0  0  0  0  0  0  0
   -1.2856    0.0358   -1.8161 N   0  0  0  0  0  0  0  0  0  0  0  0
   -1.0650    0.6837   -3.0931 C   0  0  0  0  0  0  0  0  0  0  0  0
    0.2968    0.2810   -3.6088 C   0  0  0  0  0  0  0  0  0  0  0  0
    0.7033   -0.9648   -3.1950 O   0  0  0  0  0  0  0  0  0  0  0  0
    0.8235   -1.1099   -1.8240 C   0  0  0  0  0  0  0  0  0  0  0  0
   -0.1033   -0.2686   -1.0329 C   0  0  1  0  0  0  0  0  0  0  0  0
    0.4662    0.9807   -0.4470 C   0  0  0  0  0  0  0  0  0  0  0  0
    1.6694    0.7961    0.3649 C   0  0  0  0  0  0  0  0  0  0  0  0
    1.5858    0.5370    1.7203 C   0  0  0  0  0  0  0  0  0  0  0  0
    2.6938    0.3608    2.5233 C   0  0  0  0  0  0  0  0  0  0  0  0
    3.9403    0.4494    1.9358 C   0  0  0  0  0  0  0  0  0  0  0  0
    4.0833    0.7056    0.5895 C   0  0  0  0  0  0  0  0  0  0  0  0
    5.4072    0.7959   -0.0150 C   0  0  0  0  0  0  0  0  0  0  0  0
    6.5003    0.2144    0.5095 N   0  0  0  0  0  0  0  0  0  0  0  0
    7.5475    0.4839   -0.2778 C   0  0  0  0  0  0  0  0  0  0  0  0
    7.1033    1.2145   -1.2620 O   0  0  0  0  0  0  0  0  0  0  0  0
    5.8128    1.4158   -1.1242 N   0  0  0  0  0  0  0  0  0  0  0  0
    2.9363    0.8757   -0.1776 C   0  0  0  0  0  0  0  0  0  0  0  0
   -2.9370   -2.2980   -0.0691 C   0  0  0  0  0  0  0  0  0  0  0  0
   -4.1680   -4.6745    0.6763 H   0  0  0  0  0  0  0  0  0  0  0  0
   -2.3325   -4.8107    0.8186 H   0  0  0  0  0  0  0  0  0  0  0  0
   -3.4013   -4.6467    2.2884 H   0  0  0  0  0  0  0  0  0  0  0  0
   -3.6451   -2.5670    3.2029 H   0  0  0  0  0  0  0  0  0  0  0  0
   -3.5514   -0.0539    3.0263 H   0  0  0  0  0  0  0  0  0  0  0  0
   -2.4333    4.3966    1.7267 H   0  0  0  0  0  0  0  0  0  0  0  0
   -3.6372    4.1868   -0.5978 H   0  0  0  0  0  0  0  0  0  0  0  0
   -1.8099    0.3427   -3.8560 H   0  0  0  0  0  0  0  0  0  0  0  0
   -1.0816    1.7868   -2.9745 H   0  0  0  0  0  0  0  0  0  0  0  0
    0.2215    0.2348   -4.7230 H   0  0  0  0  0  0  0  0  0  0  0  0
    1.0599    1.0718   -3.4236 H   0  0  0  0  0  0  0  0  0  0  0  0
    1.8826   -0.9424   -1.5523 H   0  0  0  0  0  0  0  0  0  0  0  0
    0.6052   -2.1904   -1.6037 H   0  0  0  0  0  0  0  0  0  0  0  0
   -0.4814   -0.8830   -0.1621 H   0  0  0  0  0  0  0  0  0  0  0  0
    0.6206    1.8023   -1.1929 H   0  0  0  0  0  0  0  0  0  0  0  0
   -0.3445    1.4013    0.2223 H   0  0  0  0  0  0  0  0  0  0  0  0
    0.6165    0.4567    2.2366 H   0  0  0  0  0  0  0  0  0  0  0  0
    2.6315    0.1582    3.5826 H   0  0  0  0  0  0  0  0  0  0  0  0
    4.8524    0.3193    2.5186 H   0  0  0  0  0  0  0  0  0  0  0  0
    8.5471    0.1207   -0.0611 H   0  0  0  0  0  0  0  0  0  0  0  0
    3.1071    1.0780   -1.2310 H   0  0  0  0  0  0  0  0  0  0  0  0
   -2.7585   -2.9113   -0.9647 H   0  0  0  0  0  0  0  0  0  0  0  0
  1  2  1  0
  2  3  2  0
  3  4  1  0
  4  5  2  0
  5  6  1  0
  6  7  1  0
  7  8  2  0
  8  9  1  0
  9 10  2  0
  5 11  1  0
 11 12  1  0
 12 13  2  0
 12 14  1  0
 14 15  1  0
 15 16  1  0
 16 17  1  0
 17 18  1  0
 18 19  1  0
 19 20  1  0
 20 21  1  0
 21 22  2  0
 22 23  1  0
 23 24  2  0
 24 25  1  0
 25 26  1  0
 26 27  1  0
 27 28  2  0
 28 29  1  0
 29 30  1  0
 25 31  2  0
 11 32  2  0
 32  2  1  0
 10  6  1  0
 19 14  1  0
 31 21  1  0
 30 26  2  0
  1 33  1  0
  1 34  1  0
  1 35  1  0
  3 36  1  0
  4 37  1  0
  8 38  1  0
  9 39  1  0
 15 40  1  0
 15 41  1  0
 16 42  1  0
 16 43  1  0
 18 44  1  0
 18 45  1  0
 19 46  1  1
 20 47  1  0
 20 48  1  0
 22 49  1  0
 23 50  1  0
 24 51  1  0
 28 52  1  0
 31 53  1  0
 32 54  1  0
M  END
$$$$
