@<TRIPOS>MOLECULE
*****
 54 58 0 0 0
SMALL
GASTEIGER

@<TRIPOS>ATOM
      1 C          -3.2575   -4.3543    1.2117 C.3     1  UNL1       -0.0397
      2 C          -3.2130   -2.8620    1.1588 C.ar    1  UNL1       -0.0496
      3 C          -3.4339   -2.0801    2.2692 C.ar    1  UNL1       -0.0567
      4 C          -3.3797   -0.7084    2.1582 C.ar    1  UNL1       -0.0336
      5 C          -3.1070   -0.0892    0.9511 C.ar    1  UNL1        0.0982
      6 N          -3.0604    1.3316    0.8712 N.ar    1  UNL1       -0.1496
      7 N          -2.5696    2.1935    1.7255 N.ar    1  UNL1       -0.1556
      8 C          -2.7183    3.4553    1.2835 C.ar    1  UNL1        0.0697
      9 C          -3.3505    3.3565    0.0617 C.ar    1  UNL1        0.0697
     10 N          -3.5353    2.0398   -0.1409 N.ar    1  UNL1       -0.1556
     11 C          -2.8926   -0.9149   -0.1329 C.ar    1  UNL1        0.0642
     12 C          -2.6041   -0.2675   -1.3997 C.2     1  UNL1        0.2491
     13 O          -3.5569    0.0349   -2.1546 O.2     1  UNL1       -0.2699
     14 N          -1.2856    0.0358   -1.8161 N.am    1  UNL1       -0.2897
     15 C          -1.0650    0.6837   -3.0931 C.3     1  UNL1        0.0388
     16 C           0.2968    0.2810   -3.6088 C.3     1  UNL1        0.0635
     17 O           0.7033   -0.9648   -3.1950 O.3     1  UNL1       -0.3764
     18 C           0.8235   -1.1099   -1.8240 C.3     1  UNL1        0.0666
     19 C          -0.1033   -0.2686   -1.0329 C.3     1  UNL1        0.0537
     20 C           0.4662    0.9807   -0.4470 C.3     1  UNL1       -0.0068
     21 C           1.6694    0.7961    0.3649 C.ar    1  UNL1       -0.0449
     22 C           1.5858    0.5370    1.7203 C.ar    1  UNL1       -0.0585
     23 C           2.6938    0.3608    2.5233 C.ar    1  UNL1       -0.0608
     24 C           3.9403    0.4494    1.9358 C.ar    1  UNL1       -0.0509
     25 C           4.0833    0.7056    0.5895 C.ar    1  UNL1        0.0227
     26 C           5.4072    0.7959   -0.0150 C.ar    1  UNL1        0.2018
     27 N           6.5003    0.2144    0.5095 N.ar    1  UNL1       -0.1942
     28 C           7.5475    0.4839   -0.2778 C.ar    1  UNL1        0.2147
     29 O           7.1033    1.2145   -1.2620 O.2     1  UNL1       -0.3411
     30 N           5.8128    1.4158   -1.1242 N.ar    1  UNL1       -0.0564
     31 C           2.9363    0.8757   -0.1776 C.ar    1  UNL1       -0.0477
     32 C          -2.9370   -2.2980   -0.0691 C.ar    1  UNL1       -0.0446
     33 H          -4.1680   -4.6745    0.6763 H       1  UNL1        0.0278
     34 H          -2.3325   -4.8107    0.8186 H       1  UNL1        0.0278
     35 H          -3.4013   -4.6467    2.2884 H       1  UNL1        0.0278
     36 H          -3.6451   -2.5670    3.2029 H       1  UNL1        0.0621
     37 H          -3.5514   -0.0539    3.0263 H       1  UNL1        0.0640
     38 H          -2.4333    4.3966    1.7267 H       1  UNL1        0.0864
     39 H          -3.6372    4.1868   -0.5978 H       1  UNL1        0.0864
     40 H          -1.8099    0.3427   -3.8560 H       1  UNL1        0.0487
     41 H          -1.0816    1.7868   -2.9745 H       1  UNL1        0.0487
     42 H           0.2215    0.2348   -4.7230 H       1  UNL1        0.0575
     43 H           1.0599    1.0718   -3.4236 H       1  UNL1        0.0575
     44 H           1.8826   -0.9424   -1.5523 H       1  UNL1        0.0578
     45 H           0.6052   -2.1904   -1.6037 H       1  UNL1        0.0578
     46 H          -0.4814   -0.8830   -0.1621 H       1  UNL1        0.0526
     47 H           0.6206    1.8023   -1.1929 H       1  UNL1        0.0332
     48 H          -0.3445    1.4013    0.2223 H       1  UNL1        0.0332
     49 H           0.6165    0.4567    2.2366 H       1  UNL1        0.0620
     50 H           2.6315    0.1582    3.5826 H       1  UNL1        0.0618
     51 H           4.8524    0.3193    2.5186 H       1  UNL1        0.0625
     52 H           8.5471    0.1207   -0.0611 H       1  UNL1        0.1283
     53 H           3.1071    1.0780   -1.2310 H       1  UNL1        0.0627
     54 H          -2.7585   -2.9113   -0.9647 H       1  UNL1        0.0628
@<TRIPOS>BOND
     1     1     2    1
     2     2     3   ar
     3     3     4   ar
     4     4     5   ar
     5     5     6    1
     6     6     7   ar
     7     7     8   ar
     8     8     9   ar
     9     9    10   ar
    10     5    11   ar
    11    11    12    1
    12    12    13    2
    13    12    14   am
    14    14    15    1
    15    15    16    1
    16    16    17    1
    17    17    18    1
    18    18    19    1
    19    19    20    1
    20    20    21    1
    21    21    22   ar
    22    22    23   ar
    23    23    24   ar
    24    24    25   ar
    25    25    26    1
    26    26    27   ar
    27    27    28   ar
    28    28    29   ar
    29    29    30   ar
    30    25    31   ar
    31    11    32   ar
    32    32     2   ar
    33    10     6   ar
    34    19    14    1
    35    31    21   ar
    36    30    26   ar
    37     1    33    1
    38     1    34    1
    39     1    35    1
    40     3    36    1
    41     4    37    1
    42     8    38    1
    43     9    39    1
    44    15    40    1
    45    15    41    1
    46    16    42    1
    47    16    43    1
    48    18    44    1
    49    18    45    1
    50    19    46    1
    51    20    47    1
    52    20    48    1
    53    22    49    1
    54    23    50    1
    55    24    51    1
    56    28    52    1
    57    31    53    1
    58    32    54    1
