@<TRIPOS>MOLECULE
*****
 49 51 0 0 0
SMALL
GASTEIGER

@<TRIPOS>ATOM
      1 C           6.7368   -0.5322    1.6965 C.3     1  UNL1        0.0365
      2 O           5.6577   -1.3108    1.8233 O.3     1  UNL1       -0.3814
      3 C           4.4095   -0.9383    1.5541 C.3     1  UNL1        0.0645
      4 C           4.0775   -0.4727    0.1420 C.3     1  UNL1        0.0552
      5 C           4.7434    0.8444   -0.1140 C.3     1  UNL1       -0.0323
      6 C           3.6147    1.7858   -0.5456 C.3     1  UNL1       -0.0370
      7 C           2.4402    1.1719    0.1981 C.3     1  UNL1        0.0209
      8 N           2.6785   -0.2176    0.0936 N.3     1  UNL1       -0.1713
      9 S           1.9091   -0.9565   -1.2599 S.O2    1  UNL1        0.0612
     10 O           2.2933   -2.4082   -1.3094 O.2     1  UNL1       -0.1528
     11 O           2.3446   -0.3323   -2.5547 O.2     1  UNL1       -0.1528
     12 C           0.1775   -0.7980   -1.1598 C.ar    1  UNL1        0.1063
     13 C          -0.5866   -1.7511   -0.5297 C.ar    1  UNL1       -0.0335
     14 C          -1.9651   -1.6354   -0.4440 C.ar    1  UNL1       -0.0377
     15 C          -2.6227   -0.5455   -0.9958 C.ar    1  UNL1        0.0478
     16 C          -1.8312    0.3911   -1.6195 C.ar    1  UNL1        0.0502
     17 C          -0.4620    0.2839   -1.7091 C.ar    1  UNL1       -0.0226
     18 C          -2.7500    1.4392   -2.1186 C.2     1  UNL1        0.2496
     19 O          -2.4083    2.4729   -2.7484 O.2     1  UNL1       -0.2817
     20 C          -4.1050    1.0540   -1.7486 C.2     1  UNL1        0.2913
     21 O          -5.1427    1.7351   -2.0246 O.2     1  UNL1       -0.2661
     22 N          -3.9910   -0.1694   -1.0603 N.am    1  UNL1       -0.2616
     23 C          -5.0799   -0.9406   -0.4966 C.3     1  UNL1        0.0484
     24 C          -5.3432   -0.5243    0.9426 C.3     1  UNL1        0.0943
     25 O          -6.3892   -1.2684    1.4699 O.3     1  UNL1       -0.3880
     26 C          -5.6933    0.9491    1.0030 C.3     1  UNL1        0.0716
     27 O          -5.9170    1.3431    2.3306 O.3     1  UNL1       -0.3924
     28 H           6.9859   -0.1618    0.7035 H       1  UNL1        0.0523
     29 H           6.6571    0.3225    2.4431 H       1  UNL1        0.0523
     30 H           7.6234   -1.1217    2.0999 H       1  UNL1        0.0523
     31 H           3.7338   -1.8173    1.8220 H       1  UNL1        0.0576
     32 H           4.0900   -0.1436    2.2942 H       1  UNL1        0.0576
     33 H           4.4067   -1.2512   -0.5887 H       1  UNL1        0.0502
     34 H           5.5518    0.8377   -0.8461 H       1  UNL1        0.0282
     35 H           5.1664    1.2680    0.8447 H       1  UNL1        0.0282
     36 H           3.4167    1.7584   -1.6143 H       1  UNL1        0.0279
     37 H           3.8264    2.7881   -0.1686 H       1  UNL1        0.0279
     38 H           1.4729    1.4789   -0.2415 H       1  UNL1        0.0444
     39 H           2.4666    1.5653    1.2280 H       1  UNL1        0.0444
     40 H          -0.1366   -2.6431   -0.0683 H       1  UNL1        0.0638
     41 H          -2.5269   -2.4209    0.0679 H       1  UNL1        0.0637
     42 H           0.0768    1.0729   -2.2204 H       1  UNL1        0.0645
     43 H          -4.8571   -2.0243   -0.5465 H       1  UNL1        0.0495
     44 H          -6.0125   -0.7575   -1.0906 H       1  UNL1        0.0495
     45 H          -4.4544   -0.7187    1.5716 H       1  UNL1        0.0632
     46 H          -6.0488   -2.1003    1.9082 H       1  UNL1        0.2099
     47 H          -6.5588    1.1526    0.3721 H       1  UNL1        0.0583
     48 H          -4.7931    1.5350    0.6875 H       1  UNL1        0.0583
     49 H          -6.8819    1.2530    2.5273 H       1  UNL1        0.2095
@<TRIPOS>BOND
     1     1     2    1
     2     2     3    1
     3     3     4    1
     4     4     5    1
     5     5     6    1
     6     6     7    1
     7     7     8    1
     8     8     9    1
     9     9    10    2
    10     9    11    2
    11     9    12    1
    12    12    13   ar
    13    13    14   ar
    14    14    15   ar
    15    15    16   ar
    16    16    17   ar
    17    16    18    1
    18    18    19    2
    19    18    20    1
    20    20    21    2
    21    20    22   am
    22    22    23    1
    23    23    24    1
    24    24    25    1
    25    24    26    1
    26    26    27    1
    27     8     4    1
    28    17    12   ar
    29    22    15    1
    30     1    28    1
    31     1    29    1
    32     1    30    1
    33     3    31    1
    34     3    32    1
    35     4    33    1
    36     5    34    1
    37     5    35    1
    38     6    36    1
    39     6    37    1
    40     7    38    1
    41     7    39    1
    42    13    40    1
    43    14    41    1
    44    17    42    1
    45    23    43    1
    46    23    44    1
    47    24    45    1
    48    25    46    1
    49    26    47    1
    50    26    48    1
    51    27    49    1
