@<TRIPOS>MOLECULE
*****
 63 68 0 0 0
SMALL
GASTEIGER

@<TRIPOS>ATOM
      1 C          -4.1875   -2.6746   -3.2814 C.3     1  UNL1       -0.0584
      2 C          -3.3257   -2.7710   -2.0437 C.3     1  UNL1        0.0028
      3 C          -3.7425   -1.7473   -1.0280 C.ar    1  UNL1        0.1119
      4 N          -4.6851   -1.9856   -0.0633 N.ar    1  UNL1       -0.2304
      5 C          -4.8587   -0.8886    0.6910 C.ar    1  UNL1        0.1111
      6 C          -5.6736   -0.6102    1.7688 C.ar    1  UNL1       -0.0198
      7 C          -6.6032   -1.6040    2.3367 C.3     1  UNL1       -0.0375
      8 C          -5.6117    0.6410    2.3289 C.ar    1  UNL1       -0.0356
      9 C          -4.7421    1.6076    1.8164 C.ar    1  UNL1        0.0409
     10 C          -4.6487    2.9714    2.3966 C.3     1  UNL1       -0.0223
     11 N          -3.9815    1.2672    0.7698 N.ar    1  UNL1       -0.2326
     12 C          -3.9912    0.0582    0.1709 C.ar    1  UNL1        0.1612
     13 N          -3.3268   -0.4956   -0.8734 N.ar    1  UNL1       -0.3081
     14 C          -2.3644    0.2163   -1.6414 C.3     1  UNL1        0.0513
     15 C          -0.9818    0.1716   -1.1570 C.ar    1  UNL1       -0.0273
     16 C          -0.0874   -0.6694   -1.7742 C.ar    1  UNL1       -0.0551
     17 C           1.2373   -0.7589   -1.3452 C.ar    1  UNL1       -0.0401
     18 C           1.6877   -0.0020   -0.2854 C.ar    1  UNL1        0.0338
     19 C           0.7972    0.8302    0.3220 C.ar    1  UNL1       -0.0245
     20 C          -0.5170    0.9208   -0.1009 C.ar    1  UNL1       -0.0519
     21 C           1.5113    1.5284    1.4083 C.3     1  UNL1       -0.0101
     22 C           2.6981    0.5907    1.6566 C.3     1  UNL1        0.0173
     23 N           2.9934    0.0831    0.3485 N.pl3   1  UNL1       -0.3154
     24 C           4.1969   -0.3074   -0.3293 C.3     1  UNL1        0.1100
     25 C           5.1764    0.7910   -0.4518 C.ar    1  UNL1       -0.0197
     26 C           5.4367    1.3770   -1.6983 C.ar    1  UNL1       -0.0564
     27 C           6.3652    2.3679   -1.7775 C.ar    1  UNL1       -0.0614
     28 C           7.0468    2.7964   -0.6491 C.ar    1  UNL1       -0.0617
     29 C           6.7973    2.2240    0.5857 C.ar    1  UNL1       -0.0614
     30 C           5.8555    1.2191    0.6635 C.ar    1  UNL1       -0.0564
     31 C           4.7877   -1.5147    0.2848 C.ar    1  UNL1        0.1736
     32 N           5.2897   -2.5588   -0.3771 N.ar    1  UNL1       -0.1113
     33 N           5.7240   -3.4486    0.5069 N.ar    1  UNL1       -0.0232
     34 N           5.5075   -2.9897    1.7275 N.ar    1  UNL1       -0.0466
     35 N           4.9300   -1.7970    1.5823 N.ar    1  UNL1       -0.2409
     36 H          -4.2204   -1.6368   -3.6327 H       1  UNL1        0.0234
     37 H          -3.7654   -3.3703   -4.0303 H       1  UNL1        0.0234
     38 H          -5.2393   -2.9822   -3.0938 H       1  UNL1        0.0234
     39 H          -2.2852   -2.5784   -2.3386 H       1  UNL1        0.0340
     40 H          -3.3853   -3.7852   -1.5964 H       1  UNL1        0.0340
     41 H          -7.4701   -1.1333    2.8269 H       1  UNL1        0.0278
     42 H          -6.9907   -2.2053    1.4639 H       1  UNL1        0.0278
     43 H          -6.0519   -2.2970    2.9820 H       1  UNL1        0.0278
     44 H          -6.2106    0.9510    3.1742 H       1  UNL1        0.0639
     45 H          -5.6524    3.2671    2.7694 H       1  UNL1        0.0292
     46 H          -3.9012    3.0350    3.2026 H       1  UNL1        0.0292
     47 H          -4.3811    3.7150    1.6129 H       1  UNL1        0.0292
     48 H          -2.6138    1.3188   -1.7262 H       1  UNL1        0.0542
     49 H          -2.3518   -0.1072   -2.7235 H       1  UNL1        0.0542
     50 H          -0.3647   -1.2965   -2.6308 H       1  UNL1        0.0621
     51 H           1.8954   -1.4355   -1.8662 H       1  UNL1        0.0636
     52 H          -1.2328    1.5844    0.3809 H       1  UNL1        0.0624
     53 H           0.9214    1.6967    2.3086 H       1  UNL1        0.0329
     54 H           1.9152    2.5208    1.0846 H       1  UNL1        0.0329
     55 H           3.4938    1.0932    2.1892 H       1  UNL1        0.0467
     56 H           2.2499   -0.2620    2.2509 H       1  UNL1        0.0467
     57 H           3.9236   -0.5733   -1.3950 H       1  UNL1        0.0632
     58 H           4.9134    1.0473   -2.5619 H       1  UNL1        0.0621
     59 H           6.6204    2.8706   -2.7147 H       1  UNL1        0.0618
     60 H           7.7791    3.5782   -0.7110 H       1  UNL1        0.0618
     61 H           7.3519    2.5893    1.4381 H       1  UNL1        0.0618
     62 H           5.6894    0.7776    1.6206 H       1  UNL1        0.0621
     63 H           4.6532   -1.2206    2.4160 H       1  UNL1        0.1921
@<TRIPOS>BOND
     1     1     2    1
     2     2     3    1
     3     3     4   ar
     4     4     5   ar
     5     5     6   ar
     6     6     7    1
     7     6     8   ar
     8     8     9   ar
     9     9    10    1
    10     9    11   ar
    11    11    12   ar
    12    12    13   ar
    13    13    14    1
    14    14    15    1
    15    15    16   ar
    16    16    17   ar
    17    17    18   ar
    18    18    19   ar
    19    19    20   ar
    20    19    21    1
    21    21    22    1
    22    22    23    1
    23    23    24    1
    24    24    25    1
    25    25    26   ar
    26    26    27   ar
    27    27    28   ar
    28    28    29   ar
    29    29    30   ar
    30    24    31    1
    31    31    32   ar
    32    32    33   ar
    33    33    34   ar
    34    34    35   ar
    35    13     3   ar
    36    20    15   ar
    37    30    25   ar
    38    35    31   ar
    39    12     5   ar
    40    23    18    1
    41     1    36    1
    42     1    37    1
    43     1    38    1
    44     2    39    1
    45     2    40    1
    46     7    41    1
    47     7    42    1
    48     7    43    1
    49     8    44    1
    50    10    45    1
    51    10    46    1
    52    10    47    1
    53    14    48    1
    54    14    49    1
    55    16    50    1
    56    17    51    1
    57    20    52    1
    58    21    53    1
    59    21    54    1
    60    22    55    1
    61    22    56    1
    62    24    57    1
    63    26    58    1
    64    27    59    1
    65    28    60    1
    66    29    61    1
    67    30    62    1
    68    35    63    1
