
     RDKit          3D

 63 68  0  0  0  0  0  0  0  0999 V2000
   -4.1875   -2.6746   -3.2814 C   0  0  0  0  0  0  0  0  0  0  0  0
   -3.3257   -2.7710   -2.0437 C   0  0  0  0  0  0  0  0  0  0  0  0
   -3.7425   -1.7473   -1.0280 C   0  0  0  0  0  0  0  0  0  0  0  0
   -4.6851   -1.9856   -0.0633 N   0  0  0  0  0  0  0  0  0  0  0  0
   -4.8587   -0.8886    0.6910 C   0  0  0  0  0  0  0  0  0  0  0  0
   -5.6736   -0.6102    1.7688 C   0  0  0  0  0  0  0  0  0  0  0  0
   -6.6032   -1.6040    2.3367 C   0  0  0  0  0  0  0  0  0  0  0  0
   -5.6117    0.6410    2.3289 C   0  0  0  0  0  0  0  0  0  0  0  0
   -4.7421    1.6076    1.8164 C   0  0  0  0  0  0  0  0  0  0  0  0
   -4.6487    2.9714    2.3966 C   0  0  0  0  0  0  0  0  0  0  0  0
   -3.9815    1.2672    0.7698 N   0  0  0  0  0  0  0  0  0  0  0  0
   -3.9912    0.0582    0.1709 C   0  0  0  0  0  0  0  0  0  0  0  0
   -3.3268   -0.4956   -0.8734 N   0  0  0  0  0  0  0  0  0  0  0  0
   -2.3644    0.2163   -1.6414 C   0  0  0  0  0  0  0  0  0  0  0  0
   -0.9818    0.1716   -1.1570 C   0  0  0  0  0  0  0  0  0  0  0  0
   -0.0874   -0.6694   -1.7742 C   0  0  0  0  0  0  0  0  0  0  0  0
    1.2373   -0.7589   -1.3452 C   0  0  0  0  0  0  0  0  0  0  0  0
    1.6877   -0.0020   -0.2854 C   0  0  0  0  0  0  0  0  0  0  0  0
    0.7972    0.8302    0.3220 C   0  0  0  0  0  0  0  0  0  0  0  0
   -0.5170    0.9208   -0.1009 C   0  0  0  0  0  0  0  0  0  0  0  0
    1.5113    1.5284    1.4083 C   0  0  0  0  0  0  0  0  0  0  0  0
    2.6981    0.5907    1.6566 C   0  0  0  0  0  0  0  0  0  0  0  0
    2.9934    0.0831    0.3485 N   0  0  0  0  0  0  0  0  0  0  0  0
    4.1969   -0.3074   -0.3293 C   0  0  0  0  0  0  0  0  0  0  0  0
    5.1764    0.7910   -0.4518 C   0  0  0  0  0  0  0  0  0  0  0  0
    5.4367    1.3770   -1.6983 C   0  0  0  0  0  0  0  0  0  0  0  0
    6.3652    2.3679   -1.7775 C   0  0  0  0  0  0  0  0  0  0  0  0
    7.0468    2.7964   -0.6491 C   0  0  0  0  0  0  0  0  0  0  0  0
    6.7973    2.2240    0.5857 C   0  0  0  0  0  0  0  0  0  0  0  0
    5.8555    1.2191    0.6635 C   0  0  0  0  0  0  0  0  0  0  0  0
    4.7877   -1.5147    0.2848 C   0  0  0  0  0  0  0  0  0  0  0  0
    5.2897   -2.5588   -0.3771 N   0  0  0  0  0  0  0  0  0  0  0  0
    5.7240   -3.4486    0.5069 N   0  0  0  0  0  0  0  0  0  0  0  0
    5.5075   -2.9897    1.7275 N   0  0  0  0  0  0  0  0  0  0  0  0
    4.9300   -1.7970    1.5823 N   0  0  0  0  0  0  0  0  0  0  0  0
   -4.2204   -1.6368   -3.6327 H   0  0  0  0  0  0  0  0  0  0  0  0
   -3.7654   -3.3703   -4.0303 H   0  0  0  0  0  0  0  0  0  0  0  0
   -5.2393   -2.9822   -3.0938 H   0  0  0  0  0  0  0  0  0  0  0  0
   -2.2852   -2.5784   -2.3386 H   0  0  0  0  0  0  0  0  0  0  0  0
   -3.3853   -3.7852   -1.5964 H   0  0  0  0  0  0  0  0  0  0  0  0
   -7.4701   -1.1333    2.8269 H   0  0  0  0  0  0  0  0  0  0  0  0
   -6.9907   -2.2053    1.4639 H   0  0  0  0  0  0  0  0  0  0  0  0
   -6.0519   -2.2970    2.9820 H   0  0  0  0  0  0  0  0  0  0  0  0
   -6.2106    0.9510    3.1742 H   0  0  0  0  0  0  0  0  0  0  0  0
   -5.6524    3.2671    2.7694 H   0  0  0  0  0  0  0  0  0  0  0  0
   -3.9012    3.0350    3.2026 H   0  0  0  0  0  0  0  0  0  0  0  0
   -4.3811    3.7150    1.6129 H   0  0  0  0  0  0  0  0  0  0  0  0
   -2.6138    1.3188   -1.7262 H   0  0  0  0  0  0  0  0  0  0  0  0
   -2.3518   -0.1072   -2.7235 H   0  0  0  0  0  0  0  0  0  0  0  0
   -0.3647   -1.2965   -2.6308 H   0  0  0  0  0  0  0  0  0  0  0  0
    1.8954   -1.4355   -1.8662 H   0  0  0  0  0  0  0  0  0  0  0  0
   -1.2328    1.5844    0.3809 H   0  0  0  0  0  0  0  0  0  0  0  0
    0.9214    1.6967    2.3086 H   0  0  0  0  0  0  0  0  0  0  0  0
    1.9152    2.5208    1.0846 H   0  0  0  0  0  0  0  0  0  0  0  0
    3.4938    1.0932    2.1892 H   0  0  0  0  0  0  0  0  0  0  0  0
    2.2499   -0.2620    2.2509 H   0  0  0  0  0  0  0  0  0  0  0  0
    3.9236   -0.5733   -1.3950 H   0  0  0  0  0  0  0  0  0  0  0  0
    4.9134    1.0473   -2.5619 H   0  0  0  0  0  0  0  0  0  0  0  0
    6.6204    2.8706   -2.7147 H   0  0  0  0  0  0  0  0  0  0  0  0
    7.7791    3.5782   -0.7110 H   0  0  0  0  0  0  0  0  0  0  0  0
    7.3519    2.5893    1.4381 H   0  0  0  0  0  0  0  0  0  0  0  0
    5.6894    0.7776    1.6206 H   0  0  0  0  0  0  0  0  0  0  0  0
    4.6532   -1.2206    2.4160 H   0  0  0  0  0  0  0  0  0  0  0  0
  1  2  1  0
  2  3  1  0
  3  4  2  0
  4  5  1  0
  5  6  2  0
  6  7  1  0
  6  8  1  0
  8  9  2  0
  9 10  1  0
  9 11  1  0
 11 12  2  0
 12 13  1  0
 13 14  1  0
 14 15  1  0
 15 16  2  0
 16 17  1  0
 17 18  2  0
 18 19  1  0
 19 20  2  0
 19 21  1  0
 21 22  1  0
 22 23  1  0
 23 24  1  0
 24 25  1  0
 25 26  2  0
 26 27  1  0
 27 28  2  0
 28 29  1  0
 29 30  2  0
 24 31  1  0
 31 32  2  0
 32 33  1  0
 33 34  2  0
 34 35  1  0
 13  3  1  0
 20 15  1  0
 30 25  1  0
 35 31  1  0
 12  5  1  0
 23 18  1  0
  1 36  1  0
  1 37  1  0
  1 38  1  0
  2 39  1  0
  2 40  1  0
  7 41  1  0
  7 42  1  0
  7 43  1  0
  8 44  1  0
 10 45  1  0
 10 46  1  0
 10 47  1  0
 14 48  1  0
 14 49  1  0
 16 50  1  0
 17 51  1  0
 20 52  1  0
 21 53  1  0
 21 54  1  0
 22 55  1  0
 22 56  1  0
 24 57  1  0
 26 58  1  0
 27 59  1  0
 28 60  1  0
 29 61  1  0
 30 62  1  0
 35 63  1  0
M  END
$$$$
