@<TRIPOS>MOLECULE
*****
 30 32 0 0 0
SMALL
GASTEIGER

@<TRIPOS>ATOM
      1 C          -2.4652   -2.2823   -0.3442 C.3     1  UNL1       -0.0470
      2 C          -1.8139   -1.5961    0.8343 C.3     1  UNL1        0.0239
      3 N          -0.7516   -0.7028    0.4651 N.ar    1  UNL1       -0.3077
      4 C           0.5422   -1.1318    0.3713 C.ar    1  UNL1        0.2627
      5 O           0.7186   -2.3694    0.6354 O.2     1  UNL1       -0.2669
      6 C           1.6135   -0.3358    0.0233 C.ar    1  UNL1        0.0874
      7 C           1.3892    0.9966   -0.2559 C.ar    1  UNL1        0.0803
      8 N           2.5934    1.5217   -0.5602 N.ar    1  UNL1       -0.2759
      9 N           3.5133    0.5532   -0.4712 N.ar    1  UNL1       -0.1778
     10 C           2.9567   -0.6067   -0.1151 C.ar    1  UNL1        0.0727
     11 C           3.6699   -1.8934    0.0798 C.3     1  UNL1       -0.0199
     12 C           0.0961    1.4731   -0.1733 C.ar    1  UNL1        0.0241
     13 C          -0.9086    0.5997    0.1828 C.ar    1  UNL1        0.0540
     14 C          -2.1746    1.1412    0.2453 C.ar    1  UNL1       -0.0374
     15 C          -2.4835    2.4634   -0.0194 C.ar    1  UNL1       -0.0598
     16 C          -1.4374    3.3092   -0.3752 C.ar    1  UNL1       -0.0610
     17 C          -0.1580    2.7989   -0.4471 C.ar    1  UNL1       -0.0506
     18 H          -2.3445   -1.7253   -1.2929 H       1  UNL1        0.0247
     19 H          -3.5586   -2.4298   -0.1110 H       1  UNL1        0.0247
     20 H          -2.0619   -3.3018   -0.5199 H       1  UNL1        0.0247
     21 H          -1.3144   -2.4253    1.4195 H       1  UNL1        0.0490
     22 H          -2.5060   -1.1372    1.5394 H       1  UNL1        0.0490
     23 H           2.7245    2.5350   -0.8179 H       1  UNL1        0.1889
     24 H           4.2993   -1.7625    0.9917 H       1  UNL1        0.0293
     25 H           2.9981   -2.7268    0.2631 H       1  UNL1        0.0293
     26 H           4.3150   -2.1385   -0.7868 H       1  UNL1        0.0293
     27 H          -3.0276    0.5359    0.5148 H       1  UNL1        0.0638
     28 H          -3.4796    2.8620    0.0363 H       1  UNL1        0.0618
     29 H          -1.6276    4.3437   -0.5899 H       1  UNL1        0.0618
     30 H           0.6833    3.4319   -0.7221 H       1  UNL1        0.0625
@<TRIPOS>BOND
     1     1     2    1
     2     2     3    1
     3     3     4   ar
     4     4     5    2
     5     4     6   ar
     6     6     7   ar
     7     7     8   ar
     8     8     9   ar
     9     9    10   ar
    10    10    11    1
    11     7    12   ar
    12    12    13   ar
    13    13    14   ar
    14    14    15   ar
    15    15    16   ar
    16    16    17   ar
    17    13     3   ar
    18    10     6   ar
    19    17    12   ar
    20     1    18    1
    21     1    19    1
    22     1    20    1
    23     2    21    1
    24     2    22    1
    25     8    23    1
    26    11    24    1
    27    11    25    1
    28    11    26    1
    29    14    27    1
    30    15    28    1
    31    16    29    1
    32    17    30    1
