@<TRIPOS>MOLECULE
*****
 42 45 0 0 0
SMALL
GASTEIGER

@<TRIPOS>ATOM
      1 C          -6.0930   -0.5322    2.0570 C.3     1  UNL1       -0.0228
      2 C          -4.7876    0.1565    1.8369 C.ar    1  UNL1        0.0349
      3 C          -4.0813    0.3257    0.6674 C.ar    1  UNL1        0.0006
      4 C          -2.9346    1.0303    0.9772 C.ar    1  UNL1        0.1459
      5 N          -1.8844    1.4703    0.1347 N.pl3   1  UNL1       -0.2824
      6 C          -0.8075    0.6555   -0.3018 C.ar    1  UNL1        0.1354
      7 N           0.1763    0.2073    0.4909 N.ar    1  UNL1       -0.2135
      8 C           1.2033   -0.5474    0.0544 C.ar    1  UNL1        0.1645
      9 C           2.2679   -1.0572    0.9388 C.3     1  UNL1        0.1394
     10 O           2.5732   -2.4096    0.6464 O.3     1  UNL1       -0.3794
     11 C           3.5085   -0.2612    0.9516 C.ar    1  UNL1       -0.0116
     12 C           3.6999    0.7413    1.8950 C.ar    1  UNL1       -0.0530
     13 C           4.8545    1.4873    1.9537 C.ar    1  UNL1       -0.0261
     14 C           5.8879    1.2508    1.0448 C.ar    1  UNL1        0.1234
     15 F           7.0354    1.9611    1.0646 F       1  UNL1       -0.2055
     16 C           5.7236    0.2587    0.0942 C.ar    1  UNL1       -0.0261
     17 C           4.5367   -0.4780    0.0663 C.ar    1  UNL1       -0.0530
     18 N           1.2075   -0.8472   -1.2768 N.ar    1  UNL1       -0.2289
     19 C           0.2544   -0.4312   -2.1053 C.ar    1  UNL1        0.0764
     20 C           0.3426   -0.7913   -3.4441 C.ar    1  UNL1       -0.0356
     21 C          -0.6254   -0.3724   -4.3172 C.ar    1  UNL1       -0.0597
     22 C          -1.6757    0.4035   -3.8464 C.ar    1  UNL1       -0.0610
     23 C          -1.7502    0.7505   -2.5208 C.ar    1  UNL1       -0.0493
     24 C          -0.7866    0.3347   -1.6492 C.ar    1  UNL1        0.0405
     25 N          -2.9847    1.2614    2.3208 N.ar    1  UNL1       -0.1584
     26 N          -4.0808    0.7455    2.8347 N.ar    1  UNL1       -0.2801
     27 H          -6.8793    0.2422    2.2130 H       1  UNL1        0.0292
     28 H          -6.3594   -1.1204    1.1690 H       1  UNL1        0.0292
     29 H          -6.0367   -1.1786    2.9580 H       1  UNL1        0.0292
     30 H          -4.3727   -0.0308   -0.3159 H       1  UNL1        0.0670
     31 H          -1.9057    2.4533   -0.1785 H       1  UNL1        0.1550
     32 H           1.8869   -1.1275    2.0092 H       1  UNL1        0.0726
     33 H           2.7163   -2.3937   -0.3527 H       1  UNL1        0.2108
     34 H           2.9347    0.9846    2.6332 H       1  UNL1        0.0622
     35 H           5.0352    2.2781    2.6784 H       1  UNL1        0.0646
     36 H           6.5036    0.0574   -0.6097 H       1  UNL1        0.0646
     37 H           4.4696   -1.2398   -0.7016 H       1  UNL1        0.0622
     38 H           1.1522   -1.3933   -3.8230 H       1  UNL1        0.0639
     39 H          -0.5560   -0.6565   -5.3642 H       1  UNL1        0.0618
     40 H          -2.4317    0.7216   -4.5645 H       1  UNL1        0.0618
     41 H          -2.5677    1.3586   -2.1405 H       1  UNL1        0.0625
     42 H          -4.3693    0.7751    3.8221 H       1  UNL1        0.1886
@<TRIPOS>BOND
     1     1     2    1
     2     2     3   ar
     3     3     4   ar
     4     4     5    1
     5     5     6    1
     6     6     7   ar
     7     7     8   ar
     8     8     9    1
     9     9    10    1
    10     9    11    1
    11    11    12   ar
    12    12    13   ar
    13    13    14   ar
    14    14    15    1
    15    14    16   ar
    16    16    17   ar
    17     8    18   ar
    18    18    19   ar
    19    19    20   ar
    20    20    21   ar
    21    21    22   ar
    22    22    23   ar
    23    23    24   ar
    24     4    25   ar
    25    25    26   ar
    26    26     2   ar
    27    24     6   ar
    28    17    11   ar
    29    24    19   ar
    30     1    27    1
    31     1    28    1
    32     1    29    1
    33     3    30    1
    34     5    31    1
    35     9    32    1
    36    10    33    1
    37    12    34    1
    38    13    35    1
    39    16    36    1
    40    17    37    1
    41    20    38    1
    42    21    39    1
    43    22    40    1
    44    23    41    1
    45    26    42    1
