@<TRIPOS>MOLECULE
*****
 48 52 0 0 0
SMALL
GASTEIGER

@<TRIPOS>ATOM
      1 N           1.8510    1.0995   -4.7418 N.1     1  UNL1       -0.1946
      2 C           2.2317    1.4070   -3.7080 C.1     1  UNL1        0.0851
      3 C           2.7263    1.7752   -2.4075 C.3     1  UNL1        0.1135
      4 C           4.2124    1.5275   -2.2217 C.3     1  UNL1       -0.0164
      5 C           4.3369    1.7604   -0.7125 C.3     1  UNL1       -0.0180
      6 C           4.1579    0.6323    0.2192 C.3     1  UNL1       -0.0294
      7 C           2.9427    1.3807   -0.1529 C.3     1  UNL1        0.0306
      8 N           2.1817    0.9621   -1.3389 N.am    1  UNL1       -0.2810
      9 C           1.1405   -0.0325   -1.3885 C.2     1  UNL1        0.2342
     10 O           0.6483   -0.2041   -2.5316 O.2     1  UNL1       -0.2738
     11 C           0.7609   -0.7271   -0.1608 C.3     1  UNL1        0.0883
     12 N           1.6049   -0.2842    0.9322 N.3     1  UNL1       -0.3195
     13 C          -0.6856   -0.7266    0.1771 C.3     1  UNL1       -0.0025
     14 C          -1.4707   -1.3893   -0.9033 C.3     1  UNL1       -0.0425
     15 C          -2.9426   -1.4644   -0.5484 C.3     1  UNL1       -0.0376
     16 C          -3.1885   -2.2393    0.7235 C.3     1  UNL1       -0.0471
     17 C          -2.3373   -1.6575    1.8280 C.3     1  UNL1       -0.0376
     18 C          -2.8674   -0.2631    2.1046 C.3     1  UNL1       -0.0211
     19 C          -2.6960    0.5289    0.8277 C.3     1  UNL1        0.0672
     20 O          -3.1891    1.8200    1.0975 O.3     1  UNL1       -0.3885
     21 C          -3.4684   -0.0563   -0.3150 C.3     1  UNL1       -0.0211
     22 C          -1.2508    0.6527    0.4150 C.3     1  UNL1       -0.0164
     23 C          -0.8995   -1.5304    1.4550 C.3     1  UNL1       -0.0425
     24 H           2.5440    2.8435   -2.1520 H       1  UNL1        0.0659
     25 H           4.8265    2.2291   -2.7946 H       1  UNL1        0.0296
     26 H           4.4112    0.4672   -2.4401 H       1  UNL1        0.0296
     27 H           4.7691    2.7153   -0.3905 H       1  UNL1        0.0320
     28 H           4.5267    0.8092    1.2529 H       1  UNL1        0.0286
     29 H           4.2356   -0.3977   -0.1923 H       1  UNL1        0.0286
     30 H           2.4739    2.1295    0.5132 H       1  UNL1        0.0504
     31 H           1.0443   -1.8121   -0.3159 H       1  UNL1        0.0560
     32 H           2.0172   -1.0704    1.4770 H       1  UNL1        0.1189
     33 H           1.0856    0.3677    1.5515 H       1  UNL1        0.1189
     34 H          -1.1227   -2.4637   -0.9479 H       1  UNL1        0.0274
     35 H          -1.4057   -0.9554   -1.8977 H       1  UNL1        0.0274
     36 H          -3.4775   -1.8903   -1.4059 H       1  UNL1        0.0302
     37 H          -3.0627   -3.3257    0.6083 H       1  UNL1        0.0271
     38 H          -4.2533   -2.0557    1.0039 H       1  UNL1        0.0271
     39 H          -2.4046   -2.2954    2.7178 H       1  UNL1        0.0302
     40 H          -2.3452    0.2513    2.9103 H       1  UNL1        0.0296
     41 H          -3.9727   -0.3296    2.2777 H       1  UNL1        0.0296
     42 H          -3.2059    2.3741    0.2672 H       1  UNL1        0.2102
     43 H          -3.1994    0.5276   -1.2267 H       1  UNL1        0.0296
     44 H          -4.5526   -0.1084   -0.1549 H       1  UNL1        0.0296
     45 H          -1.2404    1.2580   -0.5194 H       1  UNL1        0.0299
     46 H          -0.7257    1.2263    1.1762 H       1  UNL1        0.0299
     47 H          -0.3903   -0.9590    2.2627 H       1  UNL1        0.0274
     48 H          -0.3748   -2.5068    1.3400 H       1  UNL1        0.0274
@<TRIPOS>BOND
     1     1     2    3
     2     2     3    1
     3     3     4    1
     4     4     5    1
     5     5     6    1
     6     6     7    1
     7     7     8    1
     8     8     9   am
     9     9    10    2
    10     9    11    1
    11    11    12    1
    12    11    13    1
    13    13    14    1
    14    14    15    1
    15    15    16    1
    16    16    17    1
    17    17    18    1
    18    18    19    1
    19    19    20    1
    20    19    21    1
    21    19    22    1
    22    17    23    1
    23     8     3    1
    24    22    13    1
    25     7     5    1
    26    23    13    1
    27    21    15    1
    28     3    24    1
    29     4    25    1
    30     4    26    1
    31     5    27    1
    32     6    28    1
    33     6    29    1
    34     7    30    1
    35    11    31    1
    36    12    32    1
    37    12    33    1
    38    14    34    1
    39    14    35    1
    40    15    36    1
    41    16    37    1
    42    16    38    1
    43    17    39    1
    44    18    40    1
    45    18    41    1
    46    20    42    1
    47    21    43    1
    48    21    44    1
    49    22    45    1
    50    22    46    1
    51    23    47    1
    52    23    48    1
