
     RDKit          3D

 48 52  0  0  0  0  0  0  0  0999 V2000
    1.8510    1.0995   -4.7418 N   0  0  0  0  0  0  0  0  0  0  0  0
    2.2317    1.4070   -3.7080 C   0  0  0  0  0  0  0  0  0  0  0  0
    2.7263    1.7752   -2.4075 C   0  0  2  0  0  0  0  0  0  0  0  0
    4.2124    1.5275   -2.2217 C   0  0  0  0  0  0  0  0  0  0  0  0
    4.3369    1.7604   -0.7125 C   0  0  2  0  0  0  0  0  0  0  0  0
    4.1579    0.6323    0.2192 C   0  0  0  0  0  0  0  0  0  0  0  0
    2.9427    1.3807   -0.1529 C   0  0  2  0  0  0  0  0  0  0  0  0
    2.1817    0.9621   -1.3389 N   0  0  0  0  0  0  0  0  0  0  0  0
    1.1405   -0.0325   -1.3885 C   0  0  0  0  0  0  0  0  0  0  0  0
    0.6483   -0.2041   -2.5316 O   0  0  0  0  0  0  0  0  0  0  0  0
    0.7609   -0.7271   -0.1608 C   0  0  1  0  0  0  0  0  0  0  0  0
    1.6049   -0.2842    0.9322 N   0  0  0  0  0  0  0  0  0  0  0  0
   -0.6856   -0.7266    0.1771 C   0  0  0  0  0  0  0  0  0  0  0  0
   -1.4707   -1.3893   -0.9033 C   0  0  0  0  0  0  0  0  0  0  0  0
   -2.9426   -1.4644   -0.5484 C   0  0  0  0  0  0  0  0  0  0  0  0
   -3.1885   -2.2393    0.7235 C   0  0  0  0  0  0  0  0  0  0  0  0
   -2.3373   -1.6575    1.8280 C   0  0  0  0  0  0  0  0  0  0  0  0
   -2.8674   -0.2631    2.1046 C   0  0  0  0  0  0  0  0  0  0  0  0
   -2.6960    0.5289    0.8277 C   0  0  0  0  0  0  0  0  0  0  0  0
   -3.1891    1.8200    1.0975 O   0  0  0  0  0  0  0  0  0  0  0  0
   -3.4684   -0.0563   -0.3150 C   0  0  0  0  0  0  0  0  0  0  0  0
   -1.2508    0.6527    0.4150 C   0  0  0  0  0  0  0  0  0  0  0  0
   -0.8995   -1.5304    1.4550 C   0  0  0  0  0  0  0  0  0  0  0  0
    2.5440    2.8435   -2.1520 H   0  0  0  0  0  0  0  0  0  0  0  0
    4.8265    2.2291   -2.7946 H   0  0  0  0  0  0  0  0  0  0  0  0
    4.4112    0.4672   -2.4401 H   0  0  0  0  0  0  0  0  0  0  0  0
    4.7691    2.7153   -0.3905 H   0  0  0  0  0  0  0  0  0  0  0  0
    4.5267    0.8092    1.2529 H   0  0  0  0  0  0  0  0  0  0  0  0
    4.2356   -0.3977   -0.1923 H   0  0  0  0  0  0  0  0  0  0  0  0
    2.4739    2.1295    0.5132 H   0  0  0  0  0  0  0  0  0  0  0  0
    1.0443   -1.8121   -0.3159 H   0  0  0  0  0  0  0  0  0  0  0  0
    2.0172   -1.0704    1.4770 H   0  0  0  0  0  0  0  0  0  0  0  0
    1.0856    0.3677    1.5515 H   0  0  0  0  0  0  0  0  0  0  0  0
   -1.1227   -2.4637   -0.9479 H   0  0  0  0  0  0  0  0  0  0  0  0
   -1.4057   -0.9554   -1.8977 H   0  0  0  0  0  0  0  0  0  0  0  0
   -3.4775   -1.8903   -1.4059 H   0  0  0  0  0  0  0  0  0  0  0  0
   -3.0627   -3.3257    0.6083 H   0  0  0  0  0  0  0  0  0  0  0  0
   -4.2533   -2.0557    1.0039 H   0  0  0  0  0  0  0  0  0  0  0  0
   -2.4046   -2.2954    2.7178 H   0  0  0  0  0  0  0  0  0  0  0  0
   -2.3452    0.2513    2.9103 H   0  0  0  0  0  0  0  0  0  0  0  0
   -3.9727   -0.3296    2.2777 H   0  0  0  0  0  0  0  0  0  0  0  0
   -3.2059    2.3741    0.2672 H   0  0  0  0  0  0  0  0  0  0  0  0
   -3.1994    0.5276   -1.2267 H   0  0  0  0  0  0  0  0  0  0  0  0
   -4.5526   -0.1084   -0.1549 H   0  0  0  0  0  0  0  0  0  0  0  0
   -1.2404    1.2580   -0.5194 H   0  0  0  0  0  0  0  0  0  0  0  0
   -0.7257    1.2263    1.1762 H   0  0  0  0  0  0  0  0  0  0  0  0
   -0.3903   -0.9590    2.2627 H   0  0  0  0  0  0  0  0  0  0  0  0
   -0.3748   -2.5068    1.3400 H   0  0  0  0  0  0  0  0  0  0  0  0
  1  2  3  0
  2  3  1  0
  3  4  1  0
  4  5  1  0
  5  6  1  0
  6  7  1  0
  7  8  1  0
  8  9  1  0
  9 10  2  0
  9 11  1  0
 11 12  1  0
 11 13  1  0
 13 14  1  0
 14 15  1  0
 15 16  1  0
 16 17  1  0
 17 18  1  0
 18 19  1  0
 19 20  1  0
 19 21  1  0
 19 22  1  0
 17 23  1  0
  8  3  1  0
 22 13  1  0
  7  5  1  0
 23 13  1  0
 21 15  1  0
  3 24  1  1
  4 25  1  0
  4 26  1  0
  5 27  1  6
  6 28  1  0
  6 29  1  0
  7 30  1  1
 11 31  1  6
 12 32  1  0
 12 33  1  0
 14 34  1  0
 14 35  1  0
 15 36  1  0
 16 37  1  0
 16 38  1  0
 17 39  1  0
 18 40  1  0
 18 41  1  0
 20 42  1  0
 21 43  1  0
 21 44  1  0
 22 45  1  0
 22 46  1  0
 23 47  1  0
 23 48  1  0
M  END
$$$$
