@<TRIPOS>MOLECULE
*****
 58 63 0 0 0
SMALL
GASTEIGER

@<TRIPOS>ATOM
      1 C           5.2811   -1.9608    2.8053 C.3     1  UNL1        0.0805
      2 O           4.5421   -1.3119    1.8044 O.3     1  UNL1       -0.4782
      3 C           4.5723   -1.7518    0.4892 C.ar    1  UNL1        0.2408
      4 N           5.3344   -2.8361    0.1599 N.ar    1  UNL1       -0.2195
      5 C           5.3762   -3.2725   -1.0947 C.ar    1  UNL1        0.0315
      6 C           4.6581   -2.6443   -2.0750 C.ar    1  UNL1       -0.0413
      7 C           3.8849   -1.5560   -1.7796 C.ar    1  UNL1       -0.0296
      8 C           3.8447   -1.1109   -0.4898 C.ar    1  UNL1        0.1275
      9 N           3.0525    0.0117   -0.1624 N.ar    1  UNL1       -0.2219
     10 N           3.5339    1.2247    0.0514 N.ar    1  UNL1       -0.1704
     11 C           2.5234    2.0689    0.3409 C.ar    1  UNL1        0.0664
     12 C           2.6598    3.4934    0.6359 C.3     1  UNL1       -0.0202
     13 C           1.3399    1.3051    0.2981 C.ar    1  UNL1        0.0310
     14 C           1.7115    0.0247   -0.0191 C.ar    1  UNL1        0.1353
     15 C           0.4949   -0.7760   -0.0546 C.2     1  UNL1        0.2705
     16 O           0.5353   -2.0296   -0.3308 O.2     1  UNL1       -0.2679
     17 N          -0.6102    0.0504    0.2498 N.am    1  UNL1       -0.2530
     18 C          -1.9706   -0.3946    0.3310 C.ar    1  UNL1        0.0545
     19 C          -2.9475    0.5116    0.6808 C.ar    1  UNL1       -0.0324
     20 C          -4.2499    0.0874    0.7532 C.ar    1  UNL1       -0.0041
     21 C          -5.3368    1.0143    1.1229 C.3     1  UNL1       -0.0361
     22 C          -4.5759   -1.2259    0.4800 C.ar    1  UNL1        0.1641
     23 N          -5.7609   -1.9044    0.4753 N.ar    1  UNL1       -0.1292
     24 N          -5.5111   -3.1577    0.1394 N.ar    1  UNL1       -0.1340
     25 C          -4.1972   -3.3310   -0.0787 C.ar    1  UNL1        0.1347
     26 C          -3.4812   -4.5709   -0.4740 C.3     1  UNL1       -0.0041
     27 N          -3.6320   -2.1176    0.1382 N.ar    1  UNL1       -0.2846
     28 C          -2.3500   -1.6830    0.0710 C.ar    1  UNL1        0.0344
     29 C          -0.1072    1.3653    0.4500 C.3     1  UNL1        0.0881
     30 C          -0.7545    2.4051   -0.3629 C.ar    1  UNL1        0.0132
     31 C          -1.2620    2.1280   -1.5957 C.ar    1  UNL1       -0.0510
     32 C          -1.8453    3.1273   -2.3242 C.ar    1  UNL1       -0.0259
     33 C          -1.9277    4.4066   -1.8325 C.ar    1  UNL1        0.1261
     34 F          -2.5085    5.4082   -2.5550 F       1  UNL1       -0.2054
     35 C          -1.4246    4.7120   -0.5938 C.ar    1  UNL1        0.0091
     36 C          -0.8370    3.6853    0.1300 C.ar    1  UNL1        0.1314
     37 F          -0.3666    4.0338    1.3523 F       1  UNL1       -0.2050
     38 H           5.4541   -3.0032    2.5130 H       1  UNL1        0.0660
     39 H           6.2932   -1.4706    2.8621 H       1  UNL1        0.0660
     40 H           4.7709   -1.8726    3.8081 H       1  UNL1        0.0660
     41 H           6.0084   -4.1503   -1.2968 H       1  UNL1        0.0831
     42 H           4.7075   -3.0151   -3.0823 H       1  UNL1        0.0633
     43 H           3.3250   -1.0643   -2.5380 H       1  UNL1        0.0641
     44 H           2.0207    4.1457   -0.0069 H       1  UNL1        0.0293
     45 H           3.6998    3.8223    0.4436 H       1  UNL1        0.0293
     46 H           2.4681    3.6774    1.7098 H       1  UNL1        0.0293
     47 H          -2.6419    1.5266    0.8883 H       1  UNL1        0.0640
     48 H          -5.8889    0.6570    2.0408 H       1  UNL1        0.0279
     49 H          -6.0901    0.9894    0.3065 H       1  UNL1        0.0279
     50 H          -4.9955    2.0537    1.2449 H       1  UNL1        0.0279
     51 H          -4.2037   -5.2980   -0.8733 H       1  UNL1        0.0308
     52 H          -2.9395   -5.0002    0.3889 H       1  UNL1        0.0308
     53 H          -2.7449   -4.3655   -1.2970 H       1  UNL1        0.0308
     54 H          -1.6428   -2.4553   -0.2111 H       1  UNL1        0.0833
     55 H          -0.2985    1.5966    1.5478 H       1  UNL1        0.0607
     56 H          -1.2235    1.1248   -2.0371 H       1  UNL1        0.0623
     57 H          -2.2615    2.9507   -3.3086 H       1  UNL1        0.0646
     58 H          -1.5053    5.7221   -0.2391 H       1  UNL1        0.0675
@<TRIPOS>BOND
     1     1     2    1
     2     2     3    1
     3     3     4   ar
     4     4     5   ar
     5     5     6   ar
     6     6     7   ar
     7     7     8   ar
     8     8     9    1
     9     9    10   ar
    10    10    11   ar
    11    11    12    1
    12    11    13   ar
    13    13    14   ar
    14    14    15    1
    15    15    16    2
    16    15    17   am
    17    17    18    1
    18    18    19   ar
    19    19    20   ar
    20    20    21    1
    21    20    22   ar
    22    22    23   ar
    23    23    24   ar
    24    24    25   ar
    25    25    26    1
    26    25    27   ar
    27    27    28   ar
    28    17    29    1
    29    29    30    1
    30    30    31   ar
    31    31    32   ar
    32    32    33   ar
    33    33    34    1
    34    33    35   ar
    35    35    36   ar
    36    36    37    1
    37     8     3   ar
    38    14     9   ar
    39    28    18   ar
    40    36    30   ar
    41    29    13    1
    42    27    22   ar
    43     1    38    1
    44     1    39    1
    45     1    40    1
    46     5    41    1
    47     6    42    1
    48     7    43    1
    49    12    44    1
    50    12    45    1
    51    12    46    1
    52    19    47    1
    53    21    48    1
    54    21    49    1
    55    21    50    1
    56    26    51    1
    57    26    52    1
    58    26    53    1
    59    28    54    1
    60    29    55    1
    61    31    56    1
    62    32    57    1
    63    35    58    1
