
     RDKit          3D

 58 63  0  0  0  0  0  0  0  0999 V2000
    5.2811   -1.9608    2.8053 C   0  0  0  0  0  0  0  0  0  0  0  0
    4.5421   -1.3119    1.8044 O   0  0  0  0  0  0  0  0  0  0  0  0
    4.5723   -1.7518    0.4892 C   0  0  0  0  0  0  0  0  0  0  0  0
    5.3344   -2.8361    0.1599 N   0  0  0  0  0  0  0  0  0  0  0  0
    5.3762   -3.2725   -1.0947 C   0  0  0  0  0  0  0  0  0  0  0  0
    4.6581   -2.6443   -2.0750 C   0  0  0  0  0  0  0  0  0  0  0  0
    3.8849   -1.5560   -1.7796 C   0  0  0  0  0  0  0  0  0  0  0  0
    3.8447   -1.1109   -0.4898 C   0  0  0  0  0  0  0  0  0  0  0  0
    3.0525    0.0117   -0.1624 N   0  0  0  0  0  0  0  0  0  0  0  0
    3.5339    1.2247    0.0514 N   0  0  0  0  0  0  0  0  0  0  0  0
    2.5234    2.0689    0.3409 C   0  0  0  0  0  0  0  0  0  0  0  0
    2.6598    3.4934    0.6359 C   0  0  0  0  0  0  0  0  0  0  0  0
    1.3399    1.3051    0.2981 C   0  0  0  0  0  0  0  0  0  0  0  0
    1.7115    0.0247   -0.0191 C   0  0  0  0  0  0  0  0  0  0  0  0
    0.4949   -0.7760   -0.0546 C   0  0  0  0  0  0  0  0  0  0  0  0
    0.5353   -2.0296   -0.3308 O   0  0  0  0  0  0  0  0  0  0  0  0
   -0.6102    0.0504    0.2498 N   0  0  0  0  0  0  0  0  0  0  0  0
   -1.9706   -0.3946    0.3310 C   0  0  0  0  0  0  0  0  0  0  0  0
   -2.9475    0.5116    0.6808 C   0  0  0  0  0  0  0  0  0  0  0  0
   -4.2499    0.0874    0.7532 C   0  0  0  0  0  0  0  0  0  0  0  0
   -5.3368    1.0143    1.1229 C   0  0  0  0  0  0  0  0  0  0  0  0
   -4.5759   -1.2259    0.4800 C   0  0  0  0  0  0  0  0  0  0  0  0
   -5.7609   -1.9044    0.4753 N   0  0  0  0  0  0  0  0  0  0  0  0
   -5.5111   -3.1577    0.1394 N   0  0  0  0  0  0  0  0  0  0  0  0
   -4.1972   -3.3310   -0.0787 C   0  0  0  0  0  0  0  0  0  0  0  0
   -3.4812   -4.5709   -0.4740 C   0  0  0  0  0  0  0  0  0  0  0  0
   -3.6320   -2.1176    0.1382 N   0  0  0  0  0  0  0  0  0  0  0  0
   -2.3500   -1.6830    0.0710 C   0  0  0  0  0  0  0  0  0  0  0  0
   -0.1072    1.3653    0.4500 C   0  0  0  0  0  0  0  0  0  0  0  0
   -0.7545    2.4051   -0.3629 C   0  0  0  0  0  0  0  0  0  0  0  0
   -1.2620    2.1280   -1.5957 C   0  0  0  0  0  0  0  0  0  0  0  0
   -1.8453    3.1273   -2.3242 C   0  0  0  0  0  0  0  0  0  0  0  0
   -1.9277    4.4066   -1.8325 C   0  0  0  0  0  0  0  0  0  0  0  0
   -2.5085    5.4082   -2.5550 F   0  0  0  0  0  0  0  0  0  0  0  0
   -1.4246    4.7120   -0.5938 C   0  0  0  0  0  0  0  0  0  0  0  0
   -0.8370    3.6853    0.1300 C   0  0  0  0  0  0  0  0  0  0  0  0
   -0.3666    4.0338    1.3523 F   0  0  0  0  0  0  0  0  0  0  0  0
    5.4541   -3.0032    2.5130 H   0  0  0  0  0  0  0  0  0  0  0  0
    6.2932   -1.4706    2.8621 H   0  0  0  0  0  0  0  0  0  0  0  0
    4.7709   -1.8726    3.8081 H   0  0  0  0  0  0  0  0  0  0  0  0
    6.0084   -4.1503   -1.2968 H   0  0  0  0  0  0  0  0  0  0  0  0
    4.7075   -3.0151   -3.0823 H   0  0  0  0  0  0  0  0  0  0  0  0
    3.3250   -1.0643   -2.5380 H   0  0  0  0  0  0  0  0  0  0  0  0
    2.0207    4.1457   -0.0069 H   0  0  0  0  0  0  0  0  0  0  0  0
    3.6998    3.8223    0.4436 H   0  0  0  0  0  0  0  0  0  0  0  0
    2.4681    3.6774    1.7098 H   0  0  0  0  0  0  0  0  0  0  0  0
   -2.6419    1.5266    0.8883 H   0  0  0  0  0  0  0  0  0  0  0  0
   -5.8889    0.6570    2.0408 H   0  0  0  0  0  0  0  0  0  0  0  0
   -6.0901    0.9894    0.3065 H   0  0  0  0  0  0  0  0  0  0  0  0
   -4.9955    2.0537    1.2449 H   0  0  0  0  0  0  0  0  0  0  0  0
   -4.2037   -5.2980   -0.8733 H   0  0  0  0  0  0  0  0  0  0  0  0
   -2.9395   -5.0002    0.3889 H   0  0  0  0  0  0  0  0  0  0  0  0
   -2.7449   -4.3655   -1.2970 H   0  0  0  0  0  0  0  0  0  0  0  0
   -1.6428   -2.4553   -0.2111 H   0  0  0  0  0  0  0  0  0  0  0  0
   -0.2985    1.5966    1.5478 H   0  0  0  0  0  0  0  0  0  0  0  0
   -1.2235    1.1248   -2.0371 H   0  0  0  0  0  0  0  0  0  0  0  0
   -2.2615    2.9507   -3.3086 H   0  0  0  0  0  0  0  0  0  0  0  0
   -1.5053    5.7221   -0.2391 H   0  0  0  0  0  0  0  0  0  0  0  0
  1  2  1  0
  2  3  1  0
  3  4  2  0
  4  5  1  0
  5  6  2  0
  6  7  1  0
  7  8  2  0
  8  9  1  0
  9 10  1  0
 10 11  2  0
 11 12  1  0
 11 13  1  0
 13 14  2  0
 14 15  1  0
 15 16  2  0
 15 17  1  0
 17 18  1  0
 18 19  1  0
 19 20  2  0
 20 21  1  0
 20 22  1  0
 22 23  2  0
 23 24  1  0
 24 25  2  0
 25 26  1  0
 25 27  1  0
 27 28  1  0
 17 29  1  0
 29 30  1  0
 30 31  2  0
 31 32  1  0
 32 33  2  0
 33 34  1  0
 33 35  1  0
 35 36  2  0
 36 37  1  0
  8  3  1  0
 14  9  1  0
 28 18  2  0
 36 30  1  0
 29 13  1  0
 27 22  1  0
  1 38  1  0
  1 39  1  0
  1 40  1  0
  5 41  1  0
  6 42  1  0
  7 43  1  0
 12 44  1  0
 12 45  1  0
 12 46  1  0
 19 47  1  0
 21 48  1  0
 21 49  1  0
 21 50  1  0
 26 51  1  0
 26 52  1  0
 26 53  1  0
 28 54  1  0
 29 55  1  0
 31 56  1  0
 32 57  1  0
 35 58  1  0
M  END
$$$$
