@<TRIPOS>MOLECULE
*****
 38 41 0 0 0
SMALL
GASTEIGER

@<TRIPOS>ATOM
      1 C           5.8779    0.4830   -0.2465 C.3     1  UNL1       -0.0397
      2 C           4.3857    0.5742   -0.2548 C.ar    1  UNL1       -0.0495
      3 C           3.8088    1.8330   -0.1087 C.ar    1  UNL1       -0.0547
      4 C           2.4163    1.9684   -0.1095 C.ar    1  UNL1       -0.0099
      5 C           1.6561    0.8340   -0.2569 C.ar    1  UNL1        0.1867
      6 N           0.2300    0.8951   -0.2228 N.2     1  UNL1       -0.0419
      7 C          -0.4985   -0.1644   -0.3149 C.2     1  UNL1        0.3340
      8 N          -1.9274   -0.3855   -0.3173 N.pl3   1  UNL1       -0.1875
      9 C          -2.2217   -1.5192   -1.2189 C.3     1  UNL1        0.0893
     10 C          -0.8575   -2.1717   -1.4396 C.3     1  UNL1        0.0315
     11 C           0.0204   -1.5760   -0.3801 C.3     1  UNL1        0.2347
     12 O          -0.2059   -2.2088    0.8694 O.3     1  UNL1       -0.3702
     13 C           1.4609   -1.6635   -0.6127 C.2     1  UNL1        0.2108
     14 O           1.9449   -2.7438   -0.9641 O.2     1  UNL1       -0.2882
     15 C           2.2361   -0.4308   -0.4052 C.ar    1  UNL1        0.0718
     16 C           3.6280   -0.5730   -0.4045 C.ar    1  UNL1       -0.0440
     17 C          -2.8990    0.3630    0.4120 C.ar    1  UNL1        0.1208
     18 C          -2.5842    1.4324    1.2183 C.ar    1  UNL1       -0.0169
     19 C          -3.5227    2.1598    1.9263 C.ar    1  UNL1       -0.0579
     20 C          -4.8426    1.7898    1.8150 C.ar    1  UNL1       -0.0615
     21 C          -5.2037    0.7218    1.0162 C.ar    1  UNL1       -0.0579
     22 C          -4.2157    0.0275    0.3277 C.ar    1  UNL1       -0.0169
     23 H           6.2534    0.3525    0.7973 H       1  UNL1        0.0278
     24 H           6.3590    1.4002   -0.6401 H       1  UNL1        0.0278
     25 H           6.1629   -0.4428   -0.7868 H       1  UNL1        0.0278
     26 H           4.4523    2.6963    0.0043 H       1  UNL1        0.0622
     27 H           1.9549    2.9346    0.0024 H       1  UNL1        0.0661
     28 H          -2.9654   -2.2010   -0.7971 H       1  UNL1        0.0731
     29 H          -2.5089   -1.0553   -2.1834 H       1  UNL1        0.0731
     30 H          -0.4641   -1.9874   -2.4517 H       1  UNL1        0.0340
     31 H          -0.9687   -3.2686   -1.3213 H       1  UNL1        0.0340
     32 H           0.1028   -3.1328    0.7814 H       1  UNL1        0.2115
     33 H           4.1004   -1.5372   -0.5159 H       1  UNL1        0.0628
     34 H          -1.5305    1.7134    1.2957 H       1  UNL1        0.0658
     35 H          -3.2210    2.9968    2.5497 H       1  UNL1        0.0619
     36 H          -5.6345    2.3046    2.3337 H       1  UNL1        0.0618
     37 H          -6.2404    0.3920    0.8977 H       1  UNL1        0.0619
     38 H          -4.5382   -0.8110   -0.2941 H       1  UNL1        0.0658
@<TRIPOS>BOND
     1     1     2    1
     2     2     3   ar
     3     3     4   ar
     4     4     5   ar
     5     5     6    1
     6     6     7    2
     7     7     8    1
     8     8     9    1
     9     9    10    1
    10    10    11    1
    11    11    12    1
    12    11    13    1
    13    13    14    2
    14    13    15    1
    15    15    16   ar
    16     8    17    1
    17    17    18   ar
    18    18    19   ar
    19    19    20   ar
    20    20    21   ar
    21    21    22   ar
    22    16     2   ar
    23    22    17   ar
    24    15     5   ar
    25    11     7    1
    26     1    23    1
    27     1    24    1
    28     1    25    1
    29     3    26    1
    30     4    27    1
    31     9    28    1
    32     9    29    1
    33    10    30    1
    34    10    31    1
    35    12    32    1
    36    16    33    1
    37    18    34    1
    38    19    35    1
    39    20    36    1
    40    21    37    1
    41    22    38    1
