@<TRIPOS>MOLECULE
*****
 59 61 0 0 0
SMALL
GASTEIGER

@<TRIPOS>ATOM
      1 C          -4.9918    2.3932   -1.4127 C.3     1  UNL1       -0.0570
      2 C          -4.6569    1.2868   -0.4454 C.3     1  UNL1        0.0217
      3 C          -3.2156    1.0123   -0.4833 C.2     1  UNL1        0.2205
      4 O          -2.9377    1.8833   -1.3649 O.2     1  UNL1       -0.2752
      5 N          -2.4953    0.0573    0.2722 N.am    1  UNL1       -0.2547
      6 C          -3.3337   -0.7006    1.1639 C.ar    1  UNL1        0.0374
      7 C          -3.7841   -1.8313    0.4910 C.ar    1  UNL1       -0.0402
      8 C          -4.6216   -2.7524    1.1177 C.ar    1  UNL1       -0.0600
      9 C          -4.9974   -2.5091    2.4430 C.ar    1  UNL1       -0.0616
     10 C          -4.5317   -1.3834    3.0695 C.ar    1  UNL1       -0.0600
     11 C          -3.7039   -0.4656    2.4619 C.ar    1  UNL1       -0.0402
     12 C          -1.0639    0.0553   -0.0278 C.3     1  UNL1        0.1408
     13 C          -0.4349    1.3804    0.2387 C.3     1  UNL1       -0.0078
     14 C           1.0370    1.2837    0.3920 C.3     1  UNL1        0.0014
     15 N           1.6097    0.0241    0.0780 N.3     1  UNL1       -0.3018
     16 C           3.0163   -0.0450    0.3178 C.3     1  UNL1        0.0029
     17 C           3.8311    0.8117   -0.6162 C.3     1  UNL1       -0.0149
     18 C           5.2585    0.6362   -0.2443 C.ar    1  UNL1       -0.0462
     19 C           5.9414   -0.4038   -0.8847 C.ar    1  UNL1       -0.0585
     20 C           7.2827   -0.6732   -0.6312 C.ar    1  UNL1       -0.0615
     21 C           7.9307    0.1254    0.2830 C.ar    1  UNL1       -0.0617
     22 C           7.2766    1.1653    0.9339 C.ar    1  UNL1       -0.0615
     23 C           5.9401    1.4300    0.6780 C.ar    1  UNL1       -0.0585
     24 C           0.9931   -1.1107    0.6682 C.3     1  UNL1        0.0014
     25 C          -0.4719   -0.9406    0.9552 C.3     1  UNL1       -0.0078
     26 C          -0.8163   -0.3225   -1.4350 C.2     1  UNL1        0.3312
     27 O           0.2237   -0.4560   -2.1461 O.2     1  UNL1       -0.2484
     28 O          -1.8515   -0.6309   -2.3039 O.3     1  UNL1       -0.4664
     29 C          -1.5959   -0.9862   -3.6279 C.3     1  UNL1        0.0817
     30 H          -4.9041    2.0787   -2.4656 H       1  UNL1        0.0234
     31 H          -4.2886    3.2383   -1.1557 H       1  UNL1        0.0234
     32 H          -5.9978    2.8241   -1.1940 H       1  UNL1        0.0234
     33 H          -5.0152    1.6307    0.5618 H       1  UNL1        0.0356
     34 H          -5.2245    0.3455   -0.6829 H       1  UNL1        0.0356
     35 H          -3.5791   -2.1509   -0.5270 H       1  UNL1        0.0636
     36 H          -5.0167   -3.6528    0.6744 H       1  UNL1        0.0618
     37 H          -5.6458   -3.1919    2.9775 H       1  UNL1        0.0618
     38 H          -4.7968   -1.1556    4.0922 H       1  UNL1        0.0618
     39 H          -3.2818    0.4372    2.8436 H       1  UNL1        0.0636
     40 H          -0.9048    1.8095    1.1481 H       1  UNL1        0.0304
     41 H          -0.7276    2.0428   -0.6306 H       1  UNL1        0.0304
     42 H           1.5049    2.0242   -0.3052 H       1  UNL1        0.0427
     43 H           1.3204    1.6628    1.4061 H       1  UNL1        0.0427
     44 H           3.3496   -1.0914    0.1635 H       1  UNL1        0.0430
     45 H           3.3114    0.2350    1.3512 H       1  UNL1        0.0430
     46 H           3.6252    1.9042   -0.4785 H       1  UNL1        0.0326
     47 H           3.7161    0.5576   -1.6768 H       1  UNL1        0.0326
     48 H           5.4325   -1.0471   -1.6153 H       1  UNL1        0.0620
     49 H           7.7639   -1.4761   -1.1420 H       1  UNL1        0.0618
     50 H           8.9542   -0.1124    0.4480 H       1  UNL1        0.0618
     51 H           7.8169    1.7799    1.6514 H       1  UNL1        0.0618
     52 H           5.3844    2.2212    1.1526 H       1  UNL1        0.0620
     53 H           1.5450   -1.4997    1.5458 H       1  UNL1        0.0427
     54 H           1.0479   -1.9419   -0.0945 H       1  UNL1        0.0427
     55 H          -1.0199   -1.9053    0.9732 H       1  UNL1        0.0304
     56 H          -0.5655   -0.4665    1.9507 H       1  UNL1        0.0304
     57 H          -2.4442   -0.7908   -4.3165 H       1  UNL1        0.0661
     58 H          -1.4932   -2.1119   -3.6249 H       1  UNL1        0.0661
     59 H          -0.7037   -0.5309   -4.0842 H       1  UNL1        0.0661
@<TRIPOS>BOND
     1     1     2    1
     2     2     3    1
     3     3     4    2
     4     3     5   am
     5     5     6    1
     6     6     7   ar
     7     7     8   ar
     8     8     9   ar
     9     9    10   ar
    10    10    11   ar
    11     5    12    1
    12    12    13    1
    13    13    14    1
    14    14    15    1
    15    15    16    1
    16    16    17    1
    17    17    18    1
    18    18    19   ar
    19    19    20   ar
    20    20    21   ar
    21    21    22   ar
    22    22    23   ar
    23    15    24    1
    24    24    25    1
    25    12    26    1
    26    26    27    2
    27    26    28    1
    28    28    29    1
    29    11     6   ar
    30    25    12    1
    31    23    18   ar
    32     1    30    1
    33     1    31    1
    34     1    32    1
    35     2    33    1
    36     2    34    1
    37     7    35    1
    38     8    36    1
    39     9    37    1
    40    10    38    1
    41    11    39    1
    42    13    40    1
    43    13    41    1
    44    14    42    1
    45    14    43    1
    46    16    44    1
    47    16    45    1
    48    17    46    1
    49    17    47    1
    50    19    48    1
    51    20    49    1
    52    21    50    1
    53    22    51    1
    54    23    52    1
    55    24    53    1
    56    24    54    1
    57    25    55    1
    58    25    56    1
    59    29    57    1
    60    29    58    1
    61    29    59    1
