@<TRIPOS>MOLECULE
*****
 61 64 0 0 0
SMALL
GASTEIGER

@<TRIPOS>ATOM
      1 N          -3.8897   -5.8295   -1.5952 N.am    1  UNL1       -0.3131
      2 C          -3.0890   -4.6665   -1.4033 C.2     1  UNL1        0.3017
      3 O          -2.5399   -4.1234   -2.3762 O.2     1  UNL1       -0.2527
      4 N          -2.9135   -4.1260   -0.1162 N.am    1  UNL1       -0.2633
      5 C          -2.1205   -2.9795    0.0795 C.ar    1  UNL1        0.0856
      6 S          -0.3186   -3.1321    0.4230 S.2     1  UNL1       -0.0727
      7 C          -0.1062   -1.3327    0.5437 C.ar    1  UNL1        0.0219
      8 C           1.1864   -0.7164    0.8392 C.ar    1  UNL1       -0.0112
      9 C           1.3523    0.6283    0.8960 C.ar    1  UNL1       -0.0528
     10 C           2.5967    1.1508    1.1991 C.ar    1  UNL1       -0.0490
     11 C           3.6878    0.3281    1.4482 C.ar    1  UNL1        0.0369
     12 C           4.9964    0.8439    1.7777 C.2     1  UNL1        0.2466
     13 O           5.1537    1.4645    2.8540 O.2     1  UNL1       -0.2700
     14 N           6.0875    0.6605    0.9153 N.am    1  UNL1       -0.2975
     15 C           7.4263    1.1531    1.2077 C.3     1  UNL1        0.0150
     16 C           7.7677    2.1857    0.1682 C.3     1  UNL1       -0.0371
     17 C           7.5749    1.5971   -1.2098 C.3     1  UNL1       -0.0502
     18 C           7.1941    0.1479   -1.1673 C.3     1  UNL1       -0.0371
     19 C           5.9153   -0.0377   -0.3360 C.3     1  UNL1        0.0150
     20 C           3.5142   -1.0528    1.3890 C.ar    1  UNL1       -0.0490
     21 C           2.2685   -1.5331    1.0860 C.ar    1  UNL1       -0.0528
     22 C          -1.3241   -0.8182    0.3286 C.ar    1  UNL1       -0.0329
     23 C          -2.3699   -1.6431    0.0891 C.ar    1  UNL1        0.0658
     24 C          -3.7468   -1.1334   -0.1545 C.2     1  UNL1        0.2467
     25 O          -4.6862   -1.9260   -0.4130 O.2     1  UNL1       -0.2701
     26 N          -4.0813    0.2299   -0.1123 N.am    1  UNL1       -0.3072
     27 C          -5.4557    0.6955   -0.3575 C.3     1  UNL1        0.0359
     28 C          -6.1028    1.2434    0.8923 C.3     1  UNL1       -0.0322
     29 C          -7.3359    2.0134    0.4063 C.3     1  UNL1       -0.0387
     30 C          -6.7896    3.2646   -0.2519 C.3     1  UNL1       -0.0040
     31 N          -5.6719    2.9774   -1.0936 N.3     1  UNL1       -0.3142
     32 C          -5.5511    1.6229   -1.5308 C.3     1  UNL1        0.0144
     33 H          -3.7270   -6.7010   -1.0480 H       1  UNL1        0.1465
     34 H          -4.6591   -5.8348   -2.2900 H       1  UNL1        0.1465
     35 H          -3.4004   -4.6143    0.6982 H       1  UNL1        0.1569
     36 H           0.4940    1.2826    0.7003 H       1  UNL1        0.0624
     37 H           2.7697    2.2126    1.2536 H       1  UNL1        0.0625
     38 H           8.1310    0.2890    1.1373 H       1  UNL1        0.0464
     39 H           7.5165    1.5567    2.2258 H       1  UNL1        0.0464
     40 H           7.0935    3.0532    0.3222 H       1  UNL1        0.0280
     41 H           8.8228    2.4961    0.3227 H       1  UNL1        0.0280
     42 H           8.5299    1.6801   -1.7883 H       1  UNL1        0.0266
     43 H           6.7881    2.1355   -1.7675 H       1  UNL1        0.0266
     44 H           6.9223   -0.1544   -2.2094 H       1  UNL1        0.0280
     45 H           8.0027   -0.5214   -0.8072 H       1  UNL1        0.0280
     46 H           5.1091    0.4116   -0.9500 H       1  UNL1        0.0464
     47 H           5.7672   -1.1300   -0.1956 H       1  UNL1        0.0464
     48 H           4.3640   -1.6876    1.5923 H       1  UNL1        0.0625
     49 H           2.1716   -2.6104    1.0459 H       1  UNL1        0.0624
     50 H          -1.4294    0.3109    0.3558 H       1  UNL1        0.0637
     51 H          -3.3431    0.9190    0.0980 H       1  UNL1        0.1493
     52 H          -6.0567   -0.2158   -0.6184 H       1  UNL1        0.0511
     53 H          -6.5177    0.4084    1.5219 H       1  UNL1        0.0284
     54 H          -5.4580    1.8410    1.5283 H       1  UNL1        0.0284
     55 H          -7.8175    1.3274   -0.3431 H       1  UNL1        0.0278
     56 H          -8.0319    2.2261    1.2161 H       1  UNL1        0.0278
     57 H          -6.3868    3.8824    0.6063 H       1  UNL1        0.0424
     58 H          -7.6117    3.8250   -0.7528 H       1  UNL1        0.0424
     59 H          -5.6771    3.5999   -1.9285 H       1  UNL1        0.1220
     60 H          -4.6183    1.5310   -2.1175 H       1  UNL1        0.0442
     61 H          -6.3771    1.3245   -2.2338 H       1  UNL1        0.0442
@<TRIPOS>BOND
     1     1     2   am
     2     2     3    2
     3     2     4   am
     4     4     5    1
     5     5     6   ar
     6     6     7   ar
     7     7     8    1
     8     8     9   ar
     9     9    10   ar
    10    10    11   ar
    11    11    12    1
    12    12    13    2
    13    12    14   am
    14    14    15    1
    15    15    16    1
    16    16    17    1
    17    17    18    1
    18    18    19    1
    19    11    20   ar
    20    20    21   ar
    21     7    22   ar
    22    22    23   ar
    23    23    24    1
    24    24    25    2
    25    24    26   am
    26    26    27    1
    27    27    28    1
    28    28    29    1
    29    29    30    1
    30    30    31    1
    31    31    32    1
    32    23     5   ar
    33    32    27    1
    34    21     8   ar
    35    19    14    1
    36     1    33    1
    37     1    34    1
    38     4    35    1
    39     9    36    1
    40    10    37    1
    41    15    38    1
    42    15    39    1
    43    16    40    1
    44    16    41    1
    45    17    42    1
    46    17    43    1
    47    18    44    1
    48    18    45    1
    49    19    46    1
    50    19    47    1
    51    20    48    1
    52    21    49    1
    53    22    50    1
    54    26    51    1
    55    27    52    1
    56    28    53    1
    57    28    54    1
    58    29    55    1
    59    29    56    1
    60    30    57    1
    61    30    58    1
    62    31    59    1
    63    32    60    1
    64    32    61    1
