@<TRIPOS>MOLECULE
*****
 49 52 0 0 0
SMALL
GASTEIGER

@<TRIPOS>ATOM
      1 C           5.7846    1.2338   -0.5560 C.3     1  UNL1       -0.0375
      2 C           5.2305    1.2601    0.8220 C.ar    1  UNL1       -0.0187
      3 C           6.1202    1.5868    1.8456 C.ar    1  UNL1       -0.0378
      4 C           5.6522    1.6236    3.1361 C.ar    1  UNL1        0.0701
      5 C           6.5296    1.9567    4.2413 C.1     1  UNL1        0.1007
      6 N           7.2331    2.2348    5.1182 N.1     1  UNL1       -0.1908
      7 C           4.3229    1.3360    3.3654 C.ar    1  UNL1        0.0458
      8 N           3.5037    1.0270    2.3523 N.ar    1  UNL1       -0.2488
      9 C           3.9164    0.9783    1.0713 C.ar    1  UNL1        0.1286
     10 C           2.9691    0.6307   -0.0117 C.2     1  UNL1        0.2668
     11 O           3.4248    0.6048   -1.1698 O.2     1  UNL1       -0.2682
     12 N           1.6194    0.3449    0.2657 N.am    1  UNL1       -0.2801
     13 C           0.6341    0.0047   -0.6787 C.ar    1  UNL1        0.0368
     14 C           0.8701   -0.0872   -2.0283 C.ar    1  UNL1       -0.0049
     15 C          -0.1504   -0.4260   -2.8759 C.ar    1  UNL1        0.1284
     16 F           0.1310   -0.5065   -4.2185 F       1  UNL1       -0.2051
     17 C          -1.4393   -0.6839   -2.4051 C.ar    1  UNL1       -0.0095
     18 C          -2.4258   -1.0118   -3.4196 C.3     1  UNL1       -0.0367
     19 C          -1.7108   -0.6013   -1.0565 C.ar    1  UNL1       -0.0068
     20 C          -3.0768   -0.9259   -0.5158 C.3     1  UNL1        0.1580
     21 C          -3.3099   -2.3766   -0.7216 C.3     1  UNL1        0.2685
     22 F          -4.4777   -2.9097   -0.3153 F       1  UNL1       -0.2062
     23 F          -2.2936   -3.0810   -0.0560 F       1  UNL1       -0.2062
     24 N          -4.1058   -0.1198   -1.1037 N.2     1  UNL1       -0.2195
     25 C          -5.2481   -0.0277   -0.5370 C.2     1  UNL1        0.2764
     26 N          -6.3131    0.7674   -1.0959 N.pl3   1  UNL1       -0.3134
     27 O          -5.3899   -0.7509    0.6638 O.2     1  UNL1       -0.4622
     28 C          -4.4086   -0.5453    1.6251 C.3     1  UNL1        0.1091
     29 C          -3.3220   -1.4311    2.0263 C.3     1  UNL1       -0.0064
     30 C          -3.0486   -0.5078    0.9368 C.3     1  UNL1        0.0343
     31 C          -0.6695   -0.2608   -0.2371 C.ar    1  UNL1       -0.0344
     32 H           6.8725    1.5325   -0.5476 H       1  UNL1        0.0278
     33 H           5.6966    0.2334   -1.0288 H       1  UNL1        0.0278
     34 H           5.2460    2.0195   -1.1369 H       1  UNL1        0.0278
     35 H           7.1578    1.8118    1.6712 H       1  UNL1        0.0634
     36 H           3.9661    1.3707    4.4077 H       1  UNL1        0.0843
     37 H           1.3584    0.4011    1.2886 H       1  UNL1        0.1552
     38 H           1.8644    0.1041   -2.4679 H       1  UNL1        0.0665
     39 H          -2.1917   -0.3518   -4.3245 H       1  UNL1        0.0278
     40 H          -3.4672   -0.7901   -3.2375 H       1  UNL1        0.0278
     41 H          -2.2364   -2.0344   -3.8700 H       1  UNL1        0.0278
     42 H          -3.2020   -2.6251   -1.7884 H       1  UNL1        0.1047
     43 H          -7.3157    0.5435   -0.9859 H       1  UNL1        0.1466
     44 H          -6.0598    1.6172   -1.6426 H       1  UNL1        0.1466
     45 H          -4.6872    0.2927    2.3344 H       1  UNL1        0.0737
     46 H          -2.8396   -1.1958    3.0029 H       1  UNL1        0.0306
     47 H          -3.3645   -2.5377    1.8988 H       1  UNL1        0.0306
     48 H          -2.5586    0.4600    1.1032 H       1  UNL1        0.0366
     49 H          -0.7909   -0.1878    0.8563 H       1  UNL1        0.0640
@<TRIPOS>BOND
     1     1     2    1
     2     2     3   ar
     3     3     4   ar
     4     4     5    1
     5     5     6    3
     6     4     7   ar
     7     7     8   ar
     8     8     9   ar
     9     9    10    1
    10    10    11    2
    11    10    12   am
    12    12    13    1
    13    13    14   ar
    14    14    15   ar
    15    15    16    1
    16    15    17   ar
    17    17    18    1
    18    17    19   ar
    19    19    20    1
    20    20    21    1
    21    21    22    1
    22    21    23    1
    23    20    24    1
    24    24    25    2
    25    25    26    1
    26    25    27    1
    27    27    28    1
    28    28    29    1
    29    29    30    1
    30    19    31   ar
    31     9     2   ar
    32    31    13   ar
    33    30    20    1
    34    30    28    1
    35     1    32    1
    36     1    33    1
    37     1    34    1
    38     3    35    1
    39     7    36    1
    40    12    37    1
    41    14    38    1
    42    18    39    1
    43    18    40    1
    44    18    41    1
    45    21    42    1
    46    26    43    1
    47    26    44    1
    48    28    45    1
    49    29    46    1
    50    29    47    1
    51    30    48    1
    52    31    49    1
