
     RDKit          3D

 49 52  0  0  0  0  0  0  0  0999 V2000
    5.7846    1.2338   -0.5560 C   0  0  0  0  0  0  0  0  0  0  0  0
    5.2305    1.2601    0.8220 C   0  0  0  0  0  0  0  0  0  0  0  0
    6.1202    1.5868    1.8456 C   0  0  0  0  0  0  0  0  0  0  0  0
    5.6522    1.6236    3.1361 C   0  0  0  0  0  0  0  0  0  0  0  0
    6.5296    1.9567    4.2413 C   0  0  0  0  0  0  0  0  0  0  0  0
    7.2331    2.2348    5.1182 N   0  0  0  0  0  0  0  0  0  0  0  0
    4.3229    1.3360    3.3654 C   0  0  0  0  0  0  0  0  0  0  0  0
    3.5037    1.0270    2.3523 N   0  0  0  0  0  0  0  0  0  0  0  0
    3.9164    0.9783    1.0713 C   0  0  0  0  0  0  0  0  0  0  0  0
    2.9691    0.6307   -0.0117 C   0  0  0  0  0  0  0  0  0  0  0  0
    3.4248    0.6048   -1.1698 O   0  0  0  0  0  0  0  0  0  0  0  0
    1.6194    0.3449    0.2657 N   0  0  0  0  0  0  0  0  0  0  0  0
    0.6341    0.0047   -0.6787 C   0  0  0  0  0  0  0  0  0  0  0  0
    0.8701   -0.0872   -2.0283 C   0  0  0  0  0  0  0  0  0  0  0  0
   -0.1504   -0.4260   -2.8759 C   0  0  0  0  0  0  0  0  0  0  0  0
    0.1310   -0.5065   -4.2185 F   0  0  0  0  0  0  0  0  0  0  0  0
   -1.4393   -0.6839   -2.4051 C   0  0  0  0  0  0  0  0  0  0  0  0
   -2.4258   -1.0118   -3.4196 C   0  0  0  0  0  0  0  0  0  0  0  0
   -1.7108   -0.6013   -1.0565 C   0  0  0  0  0  0  0  0  0  0  0  0
   -3.0768   -0.9259   -0.5158 C   0  0  2  0  0  0  0  0  0  0  0  0
   -3.3099   -2.3766   -0.7216 C   0  0  0  0  0  0  0  0  0  0  0  0
   -4.4777   -2.9097   -0.3153 F   0  0  0  0  0  0  0  0  0  0  0  0
   -2.2936   -3.0810   -0.0560 F   0  0  0  0  0  0  0  0  0  0  0  0
   -4.1058   -0.1198   -1.1037 N   0  0  0  0  0  0  0  0  0  0  0  0
   -5.2481   -0.0277   -0.5370 C   0  0  0  0  0  0  0  0  0  0  0  0
   -6.3131    0.7674   -1.0959 N   0  0  0  0  0  0  0  0  0  0  0  0
   -5.3899   -0.7509    0.6638 O   0  0  0  0  0  0  0  0  0  0  0  0
   -4.4086   -0.5453    1.6251 C   0  0  1  0  0  0  0  0  0  0  0  0
   -3.3220   -1.4311    2.0263 C   0  0  0  0  0  0  0  0  0  0  0  0
   -3.0486   -0.5078    0.9368 C   0  0  1  0  0  0  0  0  0  0  0  0
   -0.6695   -0.2608   -0.2371 C   0  0  0  0  0  0  0  0  0  0  0  0
    6.8725    1.5325   -0.5476 H   0  0  0  0  0  0  0  0  0  0  0  0
    5.6966    0.2334   -1.0288 H   0  0  0  0  0  0  0  0  0  0  0  0
    5.2460    2.0195   -1.1369 H   0  0  0  0  0  0  0  0  0  0  0  0
    7.1578    1.8118    1.6712 H   0  0  0  0  0  0  0  0  0  0  0  0
    3.9661    1.3707    4.4077 H   0  0  0  0  0  0  0  0  0  0  0  0
    1.3584    0.4011    1.2886 H   0  0  0  0  0  0  0  0  0  0  0  0
    1.8644    0.1041   -2.4679 H   0  0  0  0  0  0  0  0  0  0  0  0
   -2.1917   -0.3518   -4.3245 H   0  0  0  0  0  0  0  0  0  0  0  0
   -3.4672   -0.7901   -3.2375 H   0  0  0  0  0  0  0  0  0  0  0  0
   -2.2364   -2.0344   -3.8700 H   0  0  0  0  0  0  0  0  0  0  0  0
   -3.2020   -2.6251   -1.7884 H   0  0  0  0  0  0  0  0  0  0  0  0
   -7.3157    0.5435   -0.9859 H   0  0  0  0  0  0  0  0  0  0  0  0
   -6.0598    1.6172   -1.6426 H   0  0  0  0  0  0  0  0  0  0  0  0
   -4.6872    0.2927    2.3344 H   0  0  0  0  0  0  0  0  0  0  0  0
   -2.8396   -1.1958    3.0029 H   0  0  0  0  0  0  0  0  0  0  0  0
   -3.3645   -2.5377    1.8988 H   0  0  0  0  0  0  0  0  0  0  0  0
   -2.5586    0.4600    1.1032 H   0  0  0  0  0  0  0  0  0  0  0  0
   -0.7909   -0.1878    0.8563 H   0  0  0  0  0  0  0  0  0  0  0  0
  1  2  1  0
  2  3  2  0
  3  4  1  0
  4  5  1  0
  5  6  3  0
  4  7  2  0
  7  8  1  0
  8  9  2  0
  9 10  1  0
 10 11  2  0
 10 12  1  0
 12 13  1  0
 13 14  2  0
 14 15  1  0
 15 16  1  0
 15 17  2  0
 17 18  1  0
 17 19  1  0
 19 20  1  0
 20 21  1  1
 21 22  1  0
 21 23  1  0
 20 24  1  0
 24 25  2  0
 25 26  1  0
 25 27  1  0
 27 28  1  0
 28 29  1  0
 29 30  1  0
 19 31  2  0
  9  2  1  0
 31 13  1  0
 30 20  1  0
 30 28  1  0
  1 32  1  0
  1 33  1  0
  1 34  1  0
  3 35  1  0
  7 36  1  0
 12 37  1  0
 14 38  1  0
 18 39  1  0
 18 40  1  0
 18 41  1  0
 21 42  1  0
 26 43  1  0
 26 44  1  0
 28 45  1  1
 29 46  1  0
 29 47  1  0
 30 48  1  1
 31 49  1  0
M  END
$$$$
