@<TRIPOS>MOLECULE
*****
 33 35 0 0 0
SMALL
GASTEIGER

@<TRIPOS>ATOM
      1 C           7.0184   -2.4972   -0.1701 C.1     1  UNL1       -0.1158
      2 C           6.0842   -1.5225   -0.9357 C.1     1  UNL1       -0.0648
      3 C           5.3308   -0.7478   -1.5674 C.3     1  UNL1        0.1496
      4 O           4.6111    0.2049   -0.8218 O.3     1  UNL1       -0.4795
      5 C           3.3018    0.1459   -0.5872 C.ar    1  UNL1        0.1219
      6 C           2.6110    1.1084    0.1820 C.ar    1  UNL1       -0.0192
      7 C           1.3076    1.1896    0.4064 C.ar    1  UNL1       -0.0477
      8 C           0.4236    0.1923   -0.1616 C.ar    1  UNL1        0.0176
      9 C          -1.0253    0.4004   -0.0788 C.ar    1  UNL1        0.1414
     10 N          -1.8978   -0.6915    0.0282 N.ar    1  UNL1       -0.2290
     11 C          -3.2105   -0.3435    0.2885 C.ar    1  UNL1        0.0785
     12 C          -4.1587   -1.3589    0.3939 C.ar    1  UNL1       -0.0355
     13 C          -5.5269   -1.0718    0.6544 C.ar    1  UNL1       -0.0597
     14 C          -5.8412    0.2771    0.8206 C.ar    1  UNL1       -0.0609
     15 C          -4.9182    1.3393    0.7246 C.ar    1  UNL1       -0.0474
     16 C          -3.6033    0.8992    0.4411 C.ar    1  UNL1        0.0647
     17 C          -2.6616    1.9859    0.3128 C.ar    1  UNL1        0.2595
     18 O          -3.0687    3.1700    0.4569 O.2     1  UNL1       -0.2671
     19 N          -1.4142    1.6672    0.0538 N.ar    1  UNL1       -0.3064
     20 C           1.0622   -0.7852   -0.8998 C.ar    1  UNL1       -0.0477
     21 C           2.4795   -0.8592   -1.1340 C.ar    1  UNL1       -0.0192
     22 H           7.6669   -3.1774    0.3599 H       1  UNL1        0.1229
     23 H           4.6247   -1.1630   -2.3209 H       1  UNL1        0.0837
     24 H           6.0806   -0.1204   -2.3205 H       1  UNL1        0.0837
     25 H           3.3257    1.8783    0.5708 H       1  UNL1        0.0654
     26 H           0.8180    2.0065    0.9638 H       1  UNL1        0.0626
     27 H          -3.8341   -2.4008    0.2265 H       1  UNL1        0.0639
     28 H          -6.2229   -1.8755    0.7093 H       1  UNL1        0.0618
     29 H          -6.9200    0.5357    0.9922 H       1  UNL1        0.0618
     30 H          -5.1425    2.3596    0.9219 H       1  UNL1        0.0626
     31 H          -0.6980    2.4673   -0.0357 H       1  UNL1        0.1704
     32 H           0.4376   -1.5765   -1.3674 H       1  UNL1        0.0626
     33 H           2.9601   -1.6365   -1.6735 H       1  UNL1        0.0654
@<TRIPOS>BOND
     1     1     2    3
     2     2     3    1
     3     3     4    1
     4     4     5    1
     5     5     6   ar
     6     6     7   ar
     7     7     8   ar
     8     8     9    1
     9     9    10   ar
    10    10    11   ar
    11    11    12   ar
    12    12    13   ar
    13    13    14   ar
    14    14    15   ar
    15    15    16   ar
    16    16    17   ar
    17    17    18    2
    18    17    19   ar
    19     8    20   ar
    20    20    21   ar
    21    21     5   ar
    22    19     9   ar
    23    16    11   ar
    24     1    22    1
    25     3    23    1
    26     3    24    1
    27     6    25    1
    28     7    26    1
    29    12    27    1
    30    13    28    1
    31    14    29    1
    32    15    30    1
    33    19    31    1
    34    20    32    1
    35    21    33    1
