@<TRIPOS>MOLECULE
*****
 51 54 0 0 0
SMALL
GASTEIGER

@<TRIPOS>ATOM
      1 N          -3.1408   -1.4722    1.1913 N.3     1  UNL1       -0.3265
      2 C          -2.8765   -0.5928    0.0488 C.3     1  UNL1        0.0172
      3 C          -2.0815   -1.3010   -1.0132 C.3     1  UNL1        0.0396
      4 C          -0.7820   -1.8009   -0.5370 C.2     1  UNL1        0.2177
      5 O          -0.7339   -2.5529    0.4815 O.2     1  UNL1       -0.2755
      6 N           0.4159   -1.4589   -1.1897 N.am    1  UNL1       -0.2897
      7 C           0.5840   -0.5953   -2.3422 C.3     1  UNL1        0.0155
      8 C           2.0069   -0.8182   -2.8237 C.3     1  UNL1       -0.0350
      9 C           2.3457   -2.1499   -2.1840 C.3     1  UNL1       -0.0241
     10 C           1.7413   -1.9509   -0.7889 C.3     1  UNL1        0.1048
     11 C           2.4792   -0.8837   -0.0667 C.ar    1  UNL1        0.2482
     12 N           3.7850   -0.5616   -0.1695 N.ar    1  UNL1       -0.1884
     13 C           4.0718    0.4680    0.6533 C.ar    1  UNL1        0.2233
     14 C           5.3609    1.1279    0.8599 C.ar    1  UNL1        0.1463
     15 N           5.7061    2.2644    0.2368 N.ar    1  UNL1       -0.2460
     16 C           6.8604    2.8863    0.3909 C.ar    1  UNL1        0.0637
     17 C           7.7991    2.3678    1.2377 C.ar    1  UNL1        0.1442
     18 F           8.9961    3.0338    1.3819 F       1  UNL1       -0.2038
     19 C           7.5146    1.2116    1.9075 C.ar    1  UNL1        0.0125
     20 C           6.3032    0.5768    1.7325 C.ar    1  UNL1        0.1551
     21 F           5.9736   -0.5627    2.3581 F       1  UNL1       -0.2030
     22 N           2.9121    0.7663    1.2593 N.ar    1  UNL1       -0.0543
     23 O           1.9731   -0.0492    0.8178 O.2     1  UNL1       -0.3357
     24 C          -4.2191   -0.2346   -0.6175 C.3     1  UNL1       -0.0092
     25 C          -5.1229    0.4648    0.2946 C.ar    1  UNL1       -0.0078
     26 C          -6.1445   -0.2308    0.8993 C.ar    1  UNL1       -0.0176
     27 C          -6.9902    0.4244    1.7713 C.ar    1  UNL1        0.1588
     28 F          -7.9746   -0.2681    2.3530 F       1  UNL1       -0.2025
     29 C          -6.8055    1.7629    2.0275 C.ar    1  UNL1        0.1611
     30 F          -7.6215    2.4241    2.8750 F       1  UNL1       -0.2024
     31 C          -5.7738    2.4618    1.4157 C.ar    1  UNL1        0.0119
     32 C          -4.9454    1.8019    0.5569 C.ar    1  UNL1        0.1295
     33 F          -3.9352    2.4701   -0.0491 F       1  UNL1       -0.2051
     34 H          -3.9332   -2.1148    0.9819 H       1  UNL1        0.1185
     35 H          -3.4315   -0.8181    1.9734 H       1  UNL1        0.1185
     36 H          -2.4063    0.3167    0.4448 H       1  UNL1        0.0466
     37 H          -2.7068   -2.1826   -1.3518 H       1  UNL1        0.0374
     38 H          -1.9611   -0.6813   -1.9208 H       1  UNL1        0.0374
     39 H          -0.0846   -0.8702   -3.1764 H       1  UNL1        0.0465
     40 H           0.4341    0.4564   -2.0019 H       1  UNL1        0.0465
     41 H           2.0668   -0.8265   -3.9198 H       1  UNL1        0.0281
     42 H           2.6855   -0.0412   -2.4011 H       1  UNL1        0.0281
     43 H           3.4428   -2.2884   -2.1208 H       1  UNL1        0.0288
     44 H           1.8258   -2.9869   -2.6612 H       1  UNL1        0.0288
     45 H           1.6743   -2.8975   -0.2356 H       1  UNL1        0.0599
     46 H           7.0431    3.8099   -0.1664 H       1  UNL1        0.0859
     47 H           8.2332    0.7869    2.5758 H       1  UNL1        0.0676
     48 H          -3.9902    0.2982   -1.5465 H       1  UNL1        0.0329
     49 H          -4.6406   -1.2327   -0.9489 H       1  UNL1        0.0329
     50 H          -6.2952   -1.2690    0.7057 H       1  UNL1        0.0651
     51 H          -5.6377    3.5121    1.6238 H       1  UNL1        0.0676
@<TRIPOS>BOND
     1     1     2    1
     2     2     3    1
     3     3     4    1
     4     4     5    2
     5     4     6   am
     6     6     7    1
     7     7     8    1
     8     8     9    1
     9     9    10    1
    10    10    11    1
    11    11    12   ar
    12    12    13   ar
    13    13    14    1
    14    14    15   ar
    15    15    16   ar
    16    16    17   ar
    17    17    18    1
    18    17    19   ar
    19    19    20   ar
    20    20    21    1
    21    13    22   ar
    22    22    23   ar
    23     2    24    1
    24    24    25    1
    25    25    26   ar
    26    26    27   ar
    27    27    28    1
    28    27    29   ar
    29    29    30    1
    30    29    31   ar
    31    31    32   ar
    32    32    33    1
    33    10     6    1
    34    23    11   ar
    35    32    25   ar
    36    20    14   ar
    37     1    34    1
    38     1    35    1
    39     2    36    1
    40     3    37    1
    41     3    38    1
    42     7    39    1
    43     7    40    1
    44     8    41    1
    45     8    42    1
    46     9    43    1
    47     9    44    1
    48    10    45    1
    49    16    46    1
    50    19    47    1
    51    24    48    1
    52    24    49    1
    53    26    50    1
    54    31    51    1
