
     RDKit          3D

 51 54  0  0  0  0  0  0  0  0999 V2000
   -3.1408   -1.4722    1.1913 N   0  0  0  0  0  0  0  0  0  0  0  0
   -2.8765   -0.5928    0.0488 C   0  0  1  0  0  0  0  0  0  0  0  0
   -2.0815   -1.3010   -1.0132 C   0  0  0  0  0  0  0  0  0  0  0  0
   -0.7820   -1.8009   -0.5370 C   0  0  0  0  0  0  0  0  0  0  0  0
   -0.7339   -2.5529    0.4815 O   0  0  0  0  0  0  0  0  0  0  0  0
    0.4159   -1.4589   -1.1897 N   0  0  0  0  0  0  0  0  0  0  0  0
    0.5840   -0.5953   -2.3422 C   0  0  0  0  0  0  0  0  0  0  0  0
    2.0069   -0.8182   -2.8237 C   0  0  0  0  0  0  0  0  0  0  0  0
    2.3457   -2.1499   -2.1840 C   0  0  0  0  0  0  0  0  0  0  0  0
    1.7413   -1.9509   -0.7889 C   0  0  1  0  0  0  0  0  0  0  0  0
    2.4792   -0.8837   -0.0667 C   0  0  0  0  0  0  0  0  0  0  0  0
    3.7850   -0.5616   -0.1695 N   0  0  0  0  0  0  0  0  0  0  0  0
    4.0718    0.4680    0.6533 C   0  0  0  0  0  0  0  0  0  0  0  0
    5.3609    1.1279    0.8599 C   0  0  0  0  0  0  0  0  0  0  0  0
    5.7061    2.2644    0.2368 N   0  0  0  0  0  0  0  0  0  0  0  0
    6.8604    2.8863    0.3909 C   0  0  0  0  0  0  0  0  0  0  0  0
    7.7991    2.3678    1.2377 C   0  0  0  0  0  0  0  0  0  0  0  0
    8.9961    3.0338    1.3819 F   0  0  0  0  0  0  0  0  0  0  0  0
    7.5146    1.2116    1.9075 C   0  0  0  0  0  0  0  0  0  0  0  0
    6.3032    0.5768    1.7325 C   0  0  0  0  0  0  0  0  0  0  0  0
    5.9736   -0.5627    2.3581 F   0  0  0  0  0  0  0  0  0  0  0  0
    2.9121    0.7663    1.2593 N   0  0  0  0  0  0  0  0  0  0  0  0
    1.9731   -0.0492    0.8178 O   0  0  0  0  0  0  0  0  0  0  0  0
   -4.2191   -0.2346   -0.6175 C   0  0  0  0  0  0  0  0  0  0  0  0
   -5.1229    0.4648    0.2946 C   0  0  0  0  0  0  0  0  0  0  0  0
   -6.1445   -0.2308    0.8993 C   0  0  0  0  0  0  0  0  0  0  0  0
   -6.9902    0.4244    1.7713 C   0  0  0  0  0  0  0  0  0  0  0  0
   -7.9746   -0.2681    2.3530 F   0  0  0  0  0  0  0  0  0  0  0  0
   -6.8055    1.7629    2.0275 C   0  0  0  0  0  0  0  0  0  0  0  0
   -7.6215    2.4241    2.8750 F   0  0  0  0  0  0  0  0  0  0  0  0
   -5.7738    2.4618    1.4157 C   0  0  0  0  0  0  0  0  0  0  0  0
   -4.9454    1.8019    0.5569 C   0  0  0  0  0  0  0  0  0  0  0  0
   -3.9352    2.4701   -0.0491 F   0  0  0  0  0  0  0  0  0  0  0  0
   -3.9332   -2.1148    0.9819 H   0  0  0  0  0  0  0  0  0  0  0  0
   -3.4315   -0.8181    1.9734 H   0  0  0  0  0  0  0  0  0  0  0  0
   -2.4063    0.3167    0.4448 H   0  0  0  0  0  0  0  0  0  0  0  0
   -2.7068   -2.1826   -1.3518 H   0  0  0  0  0  0  0  0  0  0  0  0
   -1.9611   -0.6813   -1.9208 H   0  0  0  0  0  0  0  0  0  0  0  0
   -0.0846   -0.8702   -3.1764 H   0  0  0  0  0  0  0  0  0  0  0  0
    0.4341    0.4564   -2.0019 H   0  0  0  0  0  0  0  0  0  0  0  0
    2.0668   -0.8265   -3.9198 H   0  0  0  0  0  0  0  0  0  0  0  0
    2.6855   -0.0412   -2.4011 H   0  0  0  0  0  0  0  0  0  0  0  0
    3.4428   -2.2884   -2.1208 H   0  0  0  0  0  0  0  0  0  0  0  0
    1.8258   -2.9869   -2.6612 H   0  0  0  0  0  0  0  0  0  0  0  0
    1.6743   -2.8975   -0.2356 H   0  0  0  0  0  0  0  0  0  0  0  0
    7.0431    3.8099   -0.1664 H   0  0  0  0  0  0  0  0  0  0  0  0
    8.2332    0.7869    2.5758 H   0  0  0  0  0  0  0  0  0  0  0  0
   -3.9902    0.2982   -1.5465 H   0  0  0  0  0  0  0  0  0  0  0  0
   -4.6406   -1.2327   -0.9489 H   0  0  0  0  0  0  0  0  0  0  0  0
   -6.2952   -1.2690    0.7057 H   0  0  0  0  0  0  0  0  0  0  0  0
   -5.6377    3.5121    1.6238 H   0  0  0  0  0  0  0  0  0  0  0  0
  1  2  1  0
  2  3  1  0
  3  4  1  0
  4  5  2  0
  4  6  1  0
  6  7  1  0
  7  8  1  0
  8  9  1  0
  9 10  1  0
 10 11  1  0
 11 12  2  0
 12 13  1  0
 13 14  1  0
 14 15  2  0
 15 16  1  0
 16 17  2  0
 17 18  1  0
 17 19  1  0
 19 20  2  0
 20 21  1  0
 13 22  2  0
 22 23  1  0
  2 24  1  0
 24 25  1  0
 25 26  2  0
 26 27  1  0
 27 28  1  0
 27 29  2  0
 29 30  1  0
 29 31  1  0
 31 32  2  0
 32 33  1  0
 10  6  1  0
 23 11  1  0
 32 25  1  0
 20 14  1  0
  1 34  1  0
  1 35  1  0
  2 36  1  1
  3 37  1  0
  3 38  1  0
  7 39  1  0
  7 40  1  0
  8 41  1  0
  8 42  1  0
  9 43  1  0
  9 44  1  0
 10 45  1  1
 16 46  1  0
 19 47  1  0
 24 48  1  0
 24 49  1  0
 26 50  1  0
 31 51  1  0
M  END
$$$$
