@<TRIPOS>MOLECULE
*****
 52 55 0 0 0
SMALL
GASTEIGER

@<TRIPOS>ATOM
      1 C           7.1536    0.5427   -1.5720 C.3     1  UNL1       -0.0653
      2 C           5.7764    1.1565   -1.5733 C.3     1  UNL1       -0.0558
      3 C           5.0613    0.9646   -0.2473 C.3     1  UNL1       -0.0502
      4 C           4.9002   -0.5125    0.0677 C.3     1  UNL1       -0.0186
      5 C           4.1869   -0.6199    1.3896 C.3     1  UNL1        0.0896
      6 O           2.9472   -0.0533    1.4504 O.3     1  UNL1       -0.4914
      7 C           1.7605   -0.2826    0.8188 C.ar    1  UNL1        0.1282
      8 C           1.5367   -1.2697   -0.1170 C.ar    1  UNL1       -0.0186
      9 C           0.3022   -1.4261   -0.6998 C.ar    1  UNL1       -0.0469
     10 C          -0.7485   -0.5791   -0.3462 C.ar    1  UNL1        0.0302
     11 C          -2.0137   -0.8372   -0.9825 C.2     1  UNL1        0.1943
     12 O          -1.9532   -0.9650   -2.2653 O.2     1  UNL1       -0.2866
     13 C          -3.2952   -0.9667   -0.3193 C.ar    1  UNL1        0.0300
     14 C          -3.3874   -1.7504    0.8393 C.ar    1  UNL1       -0.0503
     15 C          -4.5681   -1.9451    1.5209 C.ar    1  UNL1       -0.0605
     16 C          -5.7277   -1.3591    1.0722 C.ar    1  UNL1       -0.0540
     17 C          -5.6609   -0.5851   -0.0629 C.ar    1  UNL1       -0.0172
     18 C          -6.8398   -0.0069   -0.4827 C.ar    1  UNL1       -0.0540
     19 C          -6.8341    0.7829   -1.6079 C.ar    1  UNL1       -0.0612
     20 C          -5.6687    0.9792   -2.2846 C.ar    1  UNL1       -0.0611
     21 C          -4.4678    0.4061   -1.8797 C.ar    1  UNL1       -0.0533
     22 C          -4.4661   -0.3870   -0.7536 C.ar    1  UNL1       -0.0071
     23 C          -0.5162    0.3950    0.5810 C.ar    1  UNL1       -0.0036
     24 C          -1.5254    1.2710    0.9599 C.ar    1  UNL1       -0.0532
     25 C          -1.3211    2.2658    1.8846 C.ar    1  UNL1       -0.0611
     26 C          -0.0915    2.4174    2.4635 C.ar    1  UNL1       -0.0611
     27 C           0.9377    1.5675    2.1128 C.ar    1  UNL1       -0.0505
     28 C           0.7109    0.5821    1.1876 C.ar    1  UNL1        0.0245
     29 H           7.5169    0.4357   -0.5124 H       1  UNL1        0.0230
     30 H           7.8710    1.1099   -2.1838 H       1  UNL1        0.0230
     31 H           7.0420   -0.4856   -2.0173 H       1  UNL1        0.0230
     32 H           5.1458    0.7484   -2.4041 H       1  UNL1        0.0263
     33 H           5.8785    2.2346   -1.7505 H       1  UNL1        0.0263
     34 H           5.6714    1.4553    0.5224 H       1  UNL1        0.0266
     35 H           4.0589    1.4192   -0.3563 H       1  UNL1        0.0266
     36 H           5.9424   -0.9466    0.1703 H       1  UNL1        0.0298
     37 H           4.3873   -1.0360   -0.7248 H       1  UNL1        0.0298
     38 H           4.8923   -0.1611    2.1558 H       1  UNL1        0.0696
     39 H           4.1453   -1.7005    1.6863 H       1  UNL1        0.0696
     40 H           2.3214   -1.9414   -0.3947 H       1  UNL1        0.0654
     41 H           0.0901   -2.1832   -1.4333 H       1  UNL1        0.0626
     42 H          -2.4695   -2.2076    1.1851 H       1  UNL1        0.0625
     43 H          -4.6194   -2.5529    2.4125 H       1  UNL1        0.0618
     44 H          -6.6822   -1.4949    1.5915 H       1  UNL1        0.0624
     45 H          -7.7804   -0.1415    0.0297 H       1  UNL1        0.0624
     46 H          -7.7738    1.2450   -1.9447 H       1  UNL1        0.0618
     47 H          -5.6186    1.5927   -3.1738 H       1  UNL1        0.0618
     48 H          -3.5539    0.5831   -2.4295 H       1  UNL1        0.0624
     49 H          -2.4856    1.1354    0.4771 H       1  UNL1        0.0624
     50 H          -2.1400    2.9145    2.1397 H       1  UNL1        0.0618
     51 H           0.0865    3.2117    3.2079 H       1  UNL1        0.0618
     52 H           1.8852    1.7244    2.5929 H       1  UNL1        0.0625
@<TRIPOS>BOND
     1     1     2    1
     2     2     3    1
     3     3     4    1
     4     4     5    1
     5     5     6    1
     6     6     7    1
     7     7     8   ar
     8     8     9   ar
     9     9    10   ar
    10    10    11    1
    11    11    12    2
    12    11    13    1
    13    13    14   ar
    14    14    15   ar
    15    15    16   ar
    16    16    17   ar
    17    17    18   ar
    18    18    19   ar
    19    19    20   ar
    20    20    21   ar
    21    21    22   ar
    22    10    23   ar
    23    23    24   ar
    24    24    25   ar
    25    25    26   ar
    26    26    27   ar
    27    27    28   ar
    28    28     7   ar
    29    22    13   ar
    30    28    23   ar
    31    22    17   ar
    32     1    29    1
    33     1    30    1
    34     1    31    1
    35     2    32    1
    36     2    33    1
    37     3    34    1
    38     3    35    1
    39     4    36    1
    40     4    37    1
    41     5    38    1
    42     5    39    1
    43     8    40    1
    44     9    41    1
    45    14    42    1
    46    15    43    1
    47    16    44    1
    48    18    45    1
    49    19    46    1
    50    20    47    1
    51    21    48    1
    52    24    49    1
    53    25    50    1
    54    26    51    1
    55    27    52    1
