
     RDKit          3D

 43 47  0  0  0  0  0  0  0  0999 V2000
   -5.8410    1.3892   -1.0015 C   0  0  0  0  0  0  0  0  0  0  0  0
   -4.8579    0.9019    0.0479 C   0  0  2  0  0  0  0  0  0  0  0  0
   -3.5133    0.8114   -0.6435 C   0  0  0  0  0  0  0  0  0  0  0  0
   -2.4399    0.5401    0.2544 N   0  0  0  0  0  0  0  0  0  0  0  0
   -2.0987   -0.7206    0.8962 C   0  0  0  0  0  0  0  0  0  0  0  0
   -3.1635   -1.4455    1.4601 C   0  0  0  0  0  0  0  0  0  0  0  0
   -2.3661   -2.7884    2.3027 S   0  0  0  0  0  0  0  0  0  0  0  0
   -0.7232   -2.3319    1.8706 C   0  0  0  0  0  0  0  0  0  0  0  0
    0.4738   -2.9561    2.2015 C   0  0  0  0  0  0  0  0  0  0  0  0
    1.6403   -2.4370    1.7568 C   0  0  0  0  0  0  0  0  0  0  0  0
    1.5591   -1.2913    0.9786 C   0  0  0  0  0  0  0  0  0  0  0  0
    2.7354   -0.8362    0.5174 N   0  0  0  0  0  0  0  0  0  0  0  0
    2.8667    0.2297   -0.2869 C   0  0  0  0  0  0  0  0  0  0  0  0
    4.2087    0.6319   -0.7245 C   0  0  0  0  0  0  0  0  0  0  0  0
    5.2730   -0.1378   -0.2652 C   0  0  0  0  0  0  0  0  0  0  0  0
    6.5860    0.1083   -0.5841 C   0  0  0  0  0  0  0  0  0  0  0  0
    6.8725    1.1680   -1.3987 C   0  0  0  0  0  0  0  0  0  0  0  0
    5.8455    1.9438   -1.8664 C   0  0  0  0  0  0  0  0  0  0  0  0
    4.5094    1.6824   -1.5338 C   0  0  0  0  0  0  0  0  0  0  0  0
    3.5418    2.4922   -2.0327 F   0  0  0  0  0  0  0  0  0  0  0  0
    1.7035    0.8592   -0.6335 C   0  0  0  0  0  0  0  0  0  0  0  0
    0.4511    0.4158   -0.1716 C   0  0  0  0  0  0  0  0  0  0  0  0
    0.3601   -0.6660    0.6472 C   0  0  0  0  0  0  0  0  0  0  0  0
   -0.8606   -1.2087    1.1232 C   0  0  0  0  0  0  0  0  0  0  0  0
   -4.6175   -1.2564    1.4083 C   0  0  0  0  0  0  0  0  0  0  0  0
   -5.2879   -1.9640    2.1849 O   0  0  0  0  0  0  0  0  0  0  0  0
   -5.3521   -0.3429    0.5577 N   0  0  0  0  0  0  0  0  0  0  0  0
   -6.4955    0.5501   -1.3677 H   0  0  0  0  0  0  0  0  0  0  0  0
   -5.3320    1.8239   -1.8866 H   0  0  0  0  0  0  0  0  0  0  0  0
   -6.5200    2.1773   -0.5920 H   0  0  0  0  0  0  0  0  0  0  0  0
   -4.8572    1.6501    0.8646 H   0  0  0  0  0  0  0  0  0  0  0  0
   -3.6277    0.0118   -1.4039 H   0  0  0  0  0  0  0  0  0  0  0  0
   -3.3737    1.7590   -1.2106 H   0  0  0  0  0  0  0  0  0  0  0  0
   -1.8418    1.3338    0.5257 H   0  0  0  0  0  0  0  0  0  0  0  0
    0.4129   -3.8591    2.8208 H   0  0  0  0  0  0  0  0  0  0  0  0
    2.5882   -2.8963    1.9996 H   0  0  0  0  0  0  0  0  0  0  0  0
    5.1116   -1.0054    0.3941 H   0  0  0  0  0  0  0  0  0  0  0  0
    7.3811   -0.5244   -0.1982 H   0  0  0  0  0  0  0  0  0  0  0  0
    7.9057    1.4127   -1.6874 H   0  0  0  0  0  0  0  0  0  0  0  0
    6.0828    2.7785   -2.5093 H   0  0  0  0  0  0  0  0  0  0  0  0
    1.7434    1.7247   -1.2823 H   0  0  0  0  0  0  0  0  0  0  0  0
   -0.3660    0.9391   -0.5489 H   0  0  0  0  0  0  0  0  0  0  0  0
   -6.3168   -0.6668    0.3272 H   0  0  0  0  0  0  0  0  0  0  0  0
  1  2  1  0
  2  3  1  0
  3  4  1  0
  4  5  1  0
  5  6  2  0
  6  7  1  0
  7  8  1  0
  8  9  2  0
  9 10  1  0
 10 11  2  0
 11 12  1  0
 12 13  2  0
 13 14  1  0
 14 15  2  0
 15 16  1  0
 16 17  2  0
 17 18  1  0
 18 19  2  0
 19 20  1  0
 13 21  1  0
 21 22  2  0
 22 23  1  0
 23 24  2  0
  6 25  1  0
 25 26  2  0
 25 27  1  0
 27  2  1  0
 24  5  1  0
 24  8  1  0
 23 11  1  0
 19 14  1  0
  1 28  1  0
  1 29  1  0
  1 30  1  0
  2 31  1  1
  3 32  1  0
  3 33  1  0
  4 34  1  0
  9 35  1  0
 10 36  1  0
 15 37  1  0
 16 38  1  0
 17 39  1  0
 18 40  1  0
 21 41  1  0
 22 42  1  0
 27 43  1  0
M  END
$$$$
