@<TRIPOS>MOLECULE
*****
 43 47 0 0 0
SMALL
GASTEIGER

@<TRIPOS>ATOM
      1 C          -5.8410    1.3892   -1.0015 C.3     1  UNL1       -0.0452
      2 C          -4.8579    0.9019    0.0479 C.3     1  UNL1        0.0360
      3 C          -3.5133    0.8114   -0.6435 C.3     1  UNL1        0.0273
      4 N          -2.4399    0.5401    0.2544 N.pl3   1  UNL1       -0.3406
      5 C          -2.0987   -0.7206    0.8962 C.ar    1  UNL1        0.0551
      6 C          -3.1635   -1.4455    1.4601 C.ar    1  UNL1        0.0958
      7 S          -2.3661   -2.7884    2.3027 S.2     1  UNL1       -0.0818
      8 C          -0.7232   -2.3319    1.8706 C.ar    1  UNL1        0.0226
      9 C           0.4738   -2.9561    2.2015 C.ar    1  UNL1       -0.0453
     10 C           1.6403   -2.4370    1.7568 C.ar    1  UNL1       -0.0346
     11 C           1.5591   -1.2913    0.9786 C.ar    1  UNL1        0.0724
     12 N           2.7354   -0.8362    0.5174 N.ar    1  UNL1       -0.2466
     13 C           2.8667    0.2297   -0.2869 C.ar    1  UNL1        0.0744
     14 C           4.2087    0.6319   -0.7245 C.ar    1  UNL1        0.0355
     15 C           5.2730   -0.1378   -0.2652 C.ar    1  UNL1       -0.0498
     16 C           6.5860    0.1083   -0.5841 C.ar    1  UNL1       -0.0610
     17 C           6.8725    1.1680   -1.3987 C.ar    1  UNL1       -0.0590
     18 C           5.8455    1.9438   -1.8664 C.ar    1  UNL1       -0.0258
     19 C           4.5094    1.6824   -1.5338 C.ar    1  UNL1        0.1325
     20 F           3.5418    2.4922   -2.0327 F       1  UNL1       -0.2048
     21 C           1.7035    0.8592   -0.6335 C.ar    1  UNL1       -0.0350
     22 C           0.4511    0.4158   -0.1716 C.ar    1  UNL1       -0.0499
     23 C           0.3601   -0.6660    0.6472 C.ar    1  UNL1        0.0104
     24 C          -0.8606   -1.2087    1.1232 C.ar    1  UNL1        0.0200
     25 C          -4.6175   -1.2564    1.4083 C.2     1  UNL1        0.2528
     26 O          -5.2879   -1.9640    2.1849 O.2     1  UNL1       -0.2696
     27 N          -5.3521   -0.3429    0.5577 N.am    1  UNL1       -0.3068
     28 H          -6.4955    0.5501   -1.3677 H       1  UNL1        0.0248
     29 H          -5.3320    1.8239   -1.8866 H       1  UNL1        0.0248
     30 H          -6.5200    2.1773   -0.5920 H       1  UNL1        0.0248
     31 H          -4.8572    1.6501    0.8646 H       1  UNL1        0.0511
     32 H          -3.6277    0.0118   -1.4039 H       1  UNL1        0.0479
     33 H          -3.3737    1.7590   -1.2106 H       1  UNL1        0.0479
     34 H          -1.8418    1.3338    0.5257 H       1  UNL1        0.1462
     35 H           0.4129   -3.8591    2.8208 H       1  UNL1        0.0629
     36 H           2.5882   -2.8963    1.9996 H       1  UNL1        0.0639
     37 H           5.1116   -1.0054    0.3941 H       1  UNL1        0.0625
     38 H           7.3811   -0.5244   -0.1982 H       1  UNL1        0.0618
     39 H           7.9057    1.4127   -1.6874 H       1  UNL1        0.0618
     40 H           6.0828    2.7785   -2.5093 H       1  UNL1        0.0646
     41 H           1.7434    1.7247   -1.2823 H       1  UNL1        0.0639
     42 H          -0.3660    0.9391   -0.5489 H       1  UNL1        0.0625
     43 H          -6.3168   -0.6668    0.3272 H       1  UNL1        0.1494
@<TRIPOS>BOND
     1     1     2    1
     2     2     3    1
     3     3     4    1
     4     4     5    1
     5     5     6   ar
     6     6     7   ar
     7     7     8   ar
     8     8     9   ar
     9     9    10   ar
    10    10    11   ar
    11    11    12   ar
    12    12    13   ar
    13    13    14    1
    14    14    15   ar
    15    15    16   ar
    16    16    17   ar
    17    17    18   ar
    18    18    19   ar
    19    19    20    1
    20    13    21   ar
    21    21    22   ar
    22    22    23   ar
    23    23    24   ar
    24     6    25    1
    25    25    26    2
    26    25    27   am
    27    27     2    1
    28    24     5   ar
    29    24     8   ar
    30    23    11   ar
    31    19    14   ar
    32     1    28    1
    33     1    29    1
    34     1    30    1
    35     2    31    1
    36     3    32    1
    37     3    33    1
    38     4    34    1
    39     9    35    1
    40    10    36    1
    41    15    37    1
    42    16    38    1
    43    17    39    1
    44    18    40    1
    45    21    41    1
    46    22    42    1
    47    27    43    1
