
     RDKit          3D

 38 40  0  0  0  0  0  0  0  0999 V2000
    1.2581    0.7150    0.8424 O   0  0  0  0  0  0  0  0  0  0  0  0
    1.1584    0.4729   -0.3911 C   0  0  0  0  0  0  0  0  0  0  0  0
    0.0501    0.9525   -1.1034 N   0  0  0  0  0  0  0  0  0  0  0  0
   -1.0014    1.7056   -0.5283 C   0  0  0  0  0  0  0  0  0  0  0  0
   -0.8643    3.0900   -0.3481 C   0  0  0  0  0  0  0  0  0  0  0  0
   -1.8485    3.8916    0.1637 C   0  0  0  0  0  0  0  0  0  0  0  0
   -1.6143    5.6333    0.3632 Cl  0  0  0  0  0  0  0  0  0  0  0  0
   -3.0558    3.3102    0.5292 C   0  0  0  0  0  0  0  0  0  0  0  0
   -4.0310    4.1018    1.0367 F   0  0  0  0  0  0  0  0  0  0  0  0
   -3.2280    1.9577    0.3685 C   0  0  0  0  0  0  0  0  0  0  0  0
   -2.1978    1.1634   -0.1602 C   0  0  0  0  0  0  0  0  0  0  0  0
   -2.4638   -0.2494   -0.2906 C   0  0  0  0  0  0  0  0  0  0  0  0
   -1.7049   -1.2452    0.2766 C   0  0  0  0  0  0  0  0  0  0  0  0
   -1.9758   -2.5941    0.1147 C   0  0  0  0  0  0  0  0  0  0  0  0
   -3.0364   -2.9913   -0.6339 C   0  0  0  0  0  0  0  0  0  0  0  0
   -3.8208   -2.0313   -1.2172 C   0  0  0  0  0  0  0  0  0  0  0  0
   -3.5509   -0.7007   -1.0566 C   0  0  0  0  0  0  0  0  0  0  0  0
    2.2155   -0.2883   -0.9635 N   0  0  0  0  0  0  0  0  0  0  0  0
    3.3474   -0.7590   -0.1856 C   0  0  0  0  0  0  0  0  0  0  0  0
    4.1847    0.3042    0.4722 C   0  0  0  0  0  0  0  0  0  0  0  0
    3.7680    1.4680    0.6336 O   0  0  0  0  0  0  0  0  0  0  0  0
    5.4494   -0.0184    0.9090 O   0  0  0  0  0  0  0  0  0  0  0  0
    4.1608   -1.8728   -0.8452 C   0  0  0  0  0  0  0  0  0  0  0  0
    3.3570   -2.0956    0.4338 C   0  0  0  0  0  0  0  0  0  0  0  0
    0.0049    0.7343   -2.1290 H   0  0  0  0  0  0  0  0  0  0  0  0
    0.0811    3.5192   -0.6361 H   0  0  0  0  0  0  0  0  0  0  0  0
   -4.1523    1.4988    0.6471 H   0  0  0  0  0  0  0  0  0  0  0  0
   -0.8544   -1.0060    0.8970 H   0  0  0  0  0  0  0  0  0  0  0  0
   -1.3531   -3.3391    0.5789 H   0  0  0  0  0  0  0  0  0  0  0  0
   -3.2778   -4.0316   -0.7801 H   0  0  0  0  0  0  0  0  0  0  0  0
   -4.6788   -2.3221   -1.8181 H   0  0  0  0  0  0  0  0  0  0  0  0
   -4.1848    0.0158   -1.5262 H   0  0  0  0  0  0  0  0  0  0  0  0
    2.1668   -0.5077   -1.9777 H   0  0  0  0  0  0  0  0  0  0  0  0
    6.1790    0.6924    1.0690 H   0  0  0  0  0  0  0  0  0  0  0  0
    5.2529   -1.8226   -0.8019 H   0  0  0  0  0  0  0  0  0  0  0  0
    3.7372   -2.3479   -1.7603 H   0  0  0  0  0  0  0  0  0  0  0  0
    4.0221   -2.2203    1.3254 H   0  0  0  0  0  0  0  0  0  0  0  0
    2.5016   -2.7831    0.4232 H   0  0  0  0  0  0  0  0  0  0  0  0
  1  2  2  0
  2  3  1  0
  3  4  1  0
  4  5  2  0
  5  6  1  0
  6  7  1  0
  6  8  2  0
  8  9  1  0
  8 10  1  0
 10 11  2  0
 11 12  1  0
 12 13  2  0
 13 14  1  0
 14 15  2  0
 15 16  1  0
 16 17  2  0
  2 18  1  0
 18 19  1  0
 19 20  1  0
 20 21  2  0
 20 22  1  0
 19 23  1  0
 23 24  1  0
 11  4  1  0
 17 12  1  0
 24 19  1  0
  3 25  1  0
  5 26  1  0
 10 27  1  0
 13 28  1  0
 14 29  1  0
 15 30  1  0
 16 31  1  0
 17 32  1  0
 18 33  1  0
 22 34  1  0
 23 35  1  0
 23 36  1  0
 24 37  1  0
 24 38  1  0
M  END
$$$$
