@<TRIPOS>MOLECULE
*****
 38 40 0 0 0
SMALL
GASTEIGER

@<TRIPOS>ATOM
      1 O           1.2581    0.7150    0.8424 O.2     1  UNL1       -0.2525
      2 C           1.1584    0.4729   -0.3911 C.2     1  UNL1        0.3047
      3 N           0.0501    0.9525   -1.1034 N.am    1  UNL1       -0.2688
      4 C          -1.0014    1.7056   -0.5283 C.ar    1  UNL1        0.0440
      5 C          -0.8643    3.0900   -0.3481 C.ar    1  UNL1       -0.0187
      6 C          -1.8485    3.8916    0.1637 C.ar    1  UNL1        0.0779
      7 CL         -1.6143    5.6333    0.3632 Cl      1  UNL1       -0.0805
      8 C          -3.0558    3.3102    0.5292 C.ar    1  UNL1        0.1423
      9 F          -4.0310    4.1018    1.0367 F       1  UNL1       -0.2039
     10 C          -3.2280    1.9577    0.3685 C.ar    1  UNL1       -0.0155
     11 C          -2.1978    1.1634   -0.1602 C.ar    1  UNL1        0.0062
     12 C          -2.4638   -0.2494   -0.2906 C.ar    1  UNL1       -0.0160
     13 C          -1.7049   -1.2452    0.2766 C.ar    1  UNL1       -0.0540
     14 C          -1.9758   -2.5941    0.1147 C.ar    1  UNL1       -0.0612
     15 C          -3.0364   -2.9913   -0.6339 C.ar    1  UNL1       -0.0617
     16 C          -3.8208   -2.0313   -1.2172 C.ar    1  UNL1       -0.0612
     17 C          -3.5509   -0.7007   -1.0566 C.ar    1  UNL1       -0.0540
     18 N           2.2155   -0.2883   -0.9635 N.am    1  UNL1       -0.2834
     19 C           3.3474   -0.7590   -0.1856 C.3     1  UNL1        0.1327
     20 C           4.1847    0.3042    0.4722 C.2     1  UNL1        0.3285
     21 O           3.7680    1.4680    0.6336 O.2     1  UNL1       -0.2486
     22 O           5.4494   -0.0184    0.9090 O.3     1  UNL1       -0.4791
     23 C           4.1608   -1.8728   -0.8452 C.3     1  UNL1       -0.0187
     24 C           3.3570   -2.0956    0.4338 C.3     1  UNL1       -0.0187
     25 H           0.0049    0.7343   -2.1290 H       1  UNL1        0.1564
     26 H           0.0811    3.5192   -0.6361 H       1  UNL1        0.0652
     27 H          -4.1523    1.4988    0.6471 H       1  UNL1        0.0653
     28 H          -0.8544   -1.0060    0.8970 H       1  UNL1        0.0624
     29 H          -1.3531   -3.3391    0.5789 H       1  UNL1        0.0618
     30 H          -3.2778   -4.0316   -0.7801 H       1  UNL1        0.0618
     31 H          -4.6788   -2.3221   -1.8181 H       1  UNL1        0.0618
     32 H          -4.1848    0.0158   -1.5262 H       1  UNL1        0.0624
     33 H           2.1668   -0.5077   -1.9777 H       1  UNL1        0.1513
     34 H           6.1790    0.6924    1.0690 H       1  UNL1        0.2951
     35 H           5.2529   -1.8226   -0.8019 H       1  UNL1        0.0292
     36 H           3.7372   -2.3479   -1.7603 H       1  UNL1        0.0292
     37 H           4.0221   -2.2203    1.3254 H       1  UNL1        0.0292
     38 H           2.5016   -2.7831    0.4232 H       1  UNL1        0.0292
@<TRIPOS>BOND
     1     1     2    2
     2     2     3   am
     3     3     4    1
     4     4     5   ar
     5     5     6   ar
     6     6     7    1
     7     6     8   ar
     8     8     9    1
     9     8    10   ar
    10    10    11   ar
    11    11    12    1
    12    12    13   ar
    13    13    14   ar
    14    14    15   ar
    15    15    16   ar
    16    16    17   ar
    17     2    18   am
    18    18    19    1
    19    19    20    1
    20    20    21    2
    21    20    22    1
    22    19    23    1
    23    23    24    1
    24    11     4   ar
    25    17    12   ar
    26    24    19    1
    27     3    25    1
    28     5    26    1
    29    10    27    1
    30    13    28    1
    31    14    29    1
    32    15    30    1
    33    16    31    1
    34    17    32    1
    35    18    33    1
    36    22    34    1
    37    23    35    1
    38    23    36    1
    39    24    37    1
    40    24    38    1
