@<TRIPOS>MOLECULE
*****
 65 69 0 0 0
SMALL
GASTEIGER

@<TRIPOS>ATOM
      1 C          -1.5185    5.1783   -0.6882 C.3     1  UNL1       -0.0653
      2 C          -1.7383    4.3086   -1.9147 C.3     1  UNL1       -0.0556
      3 C          -1.5571    2.8592   -1.4398 C.3     1  UNL1       -0.0478
      4 C          -2.5603    2.6199   -0.3892 C.3     1  UNL1       -0.0084
      5 C          -2.6014    1.2587    0.1861 C.ar    1  UNL1        0.0677
      6 N          -3.5962    0.3416   -0.0069 N.ar    1  UNL1       -0.1703
      7 N          -3.4135   -0.7405    0.6992 N.ar    1  UNL1       -0.2247
      8 C          -4.2335   -1.9130    0.7588 C.ar    1  UNL1        0.0779
      9 C          -5.1333   -2.1511    1.7664 C.ar    1  UNL1       -0.0357
     10 C          -5.9194   -3.2830    1.8134 C.ar    1  UNL1       -0.0597
     11 C          -5.8106   -4.2407    0.8002 C.ar    1  UNL1       -0.0611
     12 C          -4.8997   -3.9817   -0.2037 C.ar    1  UNL1       -0.0481
     13 C          -4.1142   -2.8467   -0.2457 C.ar    1  UNL1        0.0801
     14 C          -3.1340   -2.5801   -1.3380 C.3     1  UNL1        0.4194
     15 F          -1.8722   -2.4661   -0.7672 F       1  UNL1       -0.1658
     16 F          -3.1280   -3.7253   -2.1347 F       1  UNL1       -0.1658
     17 F          -3.4572   -1.4700   -2.0842 F       1  UNL1       -0.1658
     18 C          -2.2757   -0.5767    1.3923 C.ar    1  UNL1        0.1547
     19 C          -1.7141   -1.5614    2.3107 C.2     1  UNL1        0.3557
     20 O          -2.3195   -2.6628    2.4988 O.2     1  UNL1       -0.2434
     21 O          -0.5350   -1.3766    3.0125 O.3     1  UNL1       -0.4761
     22 C          -1.7287    0.6862    1.0878 C.ar    1  UNL1        0.0123
     23 C          -0.4259    1.1518    1.6075 C.3     1  UNL1        0.0016
     24 C           0.7632    0.6445    0.9176 C.ar    1  UNL1       -0.0429
     25 C           1.8724    0.3448    1.7344 C.ar    1  UNL1       -0.0577
     26 C           3.0030   -0.1679    1.1796 C.ar    1  UNL1       -0.0537
     27 C           3.0902   -0.4024   -0.1697 C.ar    1  UNL1       -0.0172
     28 C           4.3018   -0.9688   -0.7101 C.ar    1  UNL1       -0.0072
     29 C           4.1972   -2.2993   -1.1438 C.ar    1  UNL1       -0.0534
     30 C           5.2999   -2.9365   -1.6043 C.ar    1  UNL1       -0.0611
     31 C           6.5257   -2.3123   -1.6588 C.ar    1  UNL1       -0.0611
     32 C           6.5978   -1.0252   -1.2344 C.ar    1  UNL1       -0.0504
     33 C           5.4888   -0.2999   -0.7437 C.ar    1  UNL1        0.0282
     34 C           5.6446    1.0841   -0.3870 C.ar    1  UNL1        0.1799
     35 N           6.8739    1.6372   -0.1431 N.ar    1  UNL1       -0.1084
     36 N           6.7135    2.8859    0.1984 N.ar    1  UNL1       -0.0229
     37 N           5.4347    3.1579    0.1833 N.ar    1  UNL1       -0.0464
     38 N           4.7746    2.0384   -0.1807 N.ar    1  UNL1       -0.2388
     39 C           2.0181   -0.1137   -0.9586 C.ar    1  UNL1       -0.0537
     40 C           0.8372    0.4157   -0.4152 C.ar    1  UNL1       -0.0577
     41 H          -0.7402    4.7759   -0.0307 H       1  UNL1        0.0230
     42 H          -2.4354    5.3237   -0.1104 H       1  UNL1        0.0230
     43 H          -1.1714    6.1934   -1.0041 H       1  UNL1        0.0230
     44 H          -2.7816    4.4402   -2.2598 H       1  UNL1        0.0263
     45 H          -1.0239    4.5504   -2.7209 H       1  UNL1        0.0263
     46 H          -0.5443    2.8908   -0.9289 H       1  UNL1        0.0269
     47 H          -1.5265    2.1392   -2.2504 H       1  UNL1        0.0269
     48 H          -3.6169    2.8278   -0.7570 H       1  UNL1        0.0329
     49 H          -2.4779    3.3747    0.4621 H       1  UNL1        0.0329
     50 H          -5.2316   -1.4285    2.5534 H       1  UNL1        0.0639
     51 H          -6.6385   -3.4876    2.6028 H       1  UNL1        0.0618
     52 H          -6.4089   -5.1408    0.8015 H       1  UNL1        0.0618
     53 H          -4.8014   -4.7118   -0.9972 H       1  UNL1        0.0624
     54 H          -0.3367   -1.7897    3.9076 H       1  UNL1        0.2955
     55 H          -0.3936    0.9091    2.7023 H       1  UNL1        0.0363
     56 H          -0.4217    2.2745    1.5369 H       1  UNL1        0.0363
     57 H           1.8127    0.5268    2.8181 H       1  UNL1        0.0621
     58 H           3.8604   -0.4026    1.7913 H       1  UNL1        0.0624
     59 H           3.2190   -2.8030   -1.1020 H       1  UNL1        0.0624
     60 H           5.2031   -3.9749   -1.9404 H       1  UNL1        0.0618
     61 H           7.3828   -2.8590   -2.0331 H       1  UNL1        0.0618
     62 H           7.5676   -0.5123   -1.2711 H       1  UNL1        0.0625
     63 H           3.7541    2.0244   -0.2776 H       1  UNL1        0.1923
     64 H           2.0084   -0.2656   -2.0259 H       1  UNL1        0.0624
     65 H          -0.0077    0.6137   -1.0517 H       1  UNL1        0.0621
@<TRIPOS>BOND
     1     1     2    1
     2     2     3    1
     3     3     4    1
     4     4     5    1
     5     5     6   ar
     6     6     7   ar
     7     7     8    1
     8     8     9   ar
     9     9    10   ar
    10    10    11   ar
    11    11    12   ar
    12    12    13   ar
    13    13    14    1
    14    14    15    1
    15    14    16    1
    16    14    17    1
    17     7    18   ar
    18    18    19    1
    19    19    20    2
    20    19    21    1
    21    18    22   ar
    22    22    23    1
    23    23    24    1
    24    24    25   ar
    25    25    26   ar
    26    26    27   ar
    27    27    28    1
    28    28    29   ar
    29    29    30   ar
    30    30    31   ar
    31    31    32   ar
    32    32    33   ar
    33    33    34    1
    34    34    35   ar
    35    35    36   ar
    36    36    37   ar
    37    37    38   ar
    38    27    39   ar
    39    39    40   ar
    40    22     5   ar
    41    40    24   ar
    42    13     8   ar
    43    33    28   ar
    44    38    34   ar
    45     1    41    1
    46     1    42    1
    47     1    43    1
    48     2    44    1
    49     2    45    1
    50     3    46    1
    51     3    47    1
    52     4    48    1
    53     4    49    1
    54     9    50    1
    55    10    51    1
    56    11    52    1
    57    12    53    1
    58    21    54    1
    59    23    55    1
    60    23    56    1
    61    25    57    1
    62    26    58    1
    63    29    59    1
    64    30    60    1
    65    31    61    1
    66    32    62    1
    67    38    63    1
    68    39    64    1
    69    40    65    1
