
     RDKit          3D

 65 69  0  0  0  0  0  0  0  0999 V2000
   -1.5185    5.1783   -0.6882 C   0  0  0  0  0  0  0  0  0  0  0  0
   -1.7383    4.3086   -1.9147 C   0  0  0  0  0  0  0  0  0  0  0  0
   -1.5571    2.8592   -1.4398 C   0  0  0  0  0  0  0  0  0  0  0  0
   -2.5603    2.6199   -0.3892 C   0  0  0  0  0  0  0  0  0  0  0  0
   -2.6014    1.2587    0.1861 C   0  0  0  0  0  0  0  0  0  0  0  0
   -3.5962    0.3416   -0.0069 N   0  0  0  0  0  0  0  0  0  0  0  0
   -3.4135   -0.7405    0.6992 N   0  0  0  0  0  0  0  0  0  0  0  0
   -4.2335   -1.9130    0.7588 C   0  0  0  0  0  0  0  0  0  0  0  0
   -5.1333   -2.1511    1.7664 C   0  0  0  0  0  0  0  0  0  0  0  0
   -5.9194   -3.2830    1.8134 C   0  0  0  0  0  0  0  0  0  0  0  0
   -5.8106   -4.2407    0.8002 C   0  0  0  0  0  0  0  0  0  0  0  0
   -4.8997   -3.9817   -0.2037 C   0  0  0  0  0  0  0  0  0  0  0  0
   -4.1142   -2.8467   -0.2457 C   0  0  0  0  0  0  0  0  0  0  0  0
   -3.1340   -2.5801   -1.3380 C   0  0  0  0  0  0  0  0  0  0  0  0
   -1.8722   -2.4661   -0.7672 F   0  0  0  0  0  0  0  0  0  0  0  0
   -3.1280   -3.7253   -2.1347 F   0  0  0  0  0  0  0  0  0  0  0  0
   -3.4572   -1.4700   -2.0842 F   0  0  0  0  0  0  0  0  0  0  0  0
   -2.2757   -0.5767    1.3923 C   0  0  0  0  0  0  0  0  0  0  0  0
   -1.7141   -1.5614    2.3107 C   0  0  0  0  0  0  0  0  0  0  0  0
   -2.3195   -2.6628    2.4988 O   0  0  0  0  0  0  0  0  0  0  0  0
   -0.5350   -1.3766    3.0125 O   0  0  0  0  0  0  0  0  0  0  0  0
   -1.7287    0.6862    1.0878 C   0  0  0  0  0  0  0  0  0  0  0  0
   -0.4259    1.1518    1.6075 C   0  0  0  0  0  0  0  0  0  0  0  0
    0.7632    0.6445    0.9176 C   0  0  0  0  0  0  0  0  0  0  0  0
    1.8724    0.3448    1.7344 C   0  0  0  0  0  0  0  0  0  0  0  0
    3.0030   -0.1679    1.1796 C   0  0  0  0  0  0  0  0  0  0  0  0
    3.0902   -0.4024   -0.1697 C   0  0  0  0  0  0  0  0  0  0  0  0
    4.3018   -0.9688   -0.7101 C   0  0  0  0  0  0  0  0  0  0  0  0
    4.1972   -2.2993   -1.1438 C   0  0  0  0  0  0  0  0  0  0  0  0
    5.2999   -2.9365   -1.6043 C   0  0  0  0  0  0  0  0  0  0  0  0
    6.5257   -2.3123   -1.6588 C   0  0  0  0  0  0  0  0  0  0  0  0
    6.5978   -1.0252   -1.2344 C   0  0  0  0  0  0  0  0  0  0  0  0
    5.4888   -0.2999   -0.7437 C   0  0  0  0  0  0  0  0  0  0  0  0
    5.6446    1.0841   -0.3870 C   0  0  0  0  0  0  0  0  0  0  0  0
    6.8739    1.6372   -0.1431 N   0  0  0  0  0  0  0  0  0  0  0  0
    6.7135    2.8859    0.1984 N   0  0  0  0  0  0  0  0  0  0  0  0
    5.4347    3.1579    0.1833 N   0  0  0  0  0  0  0  0  0  0  0  0
    4.7746    2.0384   -0.1807 N   0  0  0  0  0  0  0  0  0  0  0  0
    2.0181   -0.1137   -0.9586 C   0  0  0  0  0  0  0  0  0  0  0  0
    0.8372    0.4157   -0.4152 C   0  0  0  0  0  0  0  0  0  0  0  0
   -0.7402    4.7759   -0.0307 H   0  0  0  0  0  0  0  0  0  0  0  0
   -2.4354    5.3237   -0.1104 H   0  0  0  0  0  0  0  0  0  0  0  0
   -1.1714    6.1934   -1.0041 H   0  0  0  0  0  0  0  0  0  0  0  0
   -2.7816    4.4402   -2.2598 H   0  0  0  0  0  0  0  0  0  0  0  0
   -1.0239    4.5504   -2.7209 H   0  0  0  0  0  0  0  0  0  0  0  0
   -0.5443    2.8908   -0.9289 H   0  0  0  0  0  0  0  0  0  0  0  0
   -1.5265    2.1392   -2.2504 H   0  0  0  0  0  0  0  0  0  0  0  0
   -3.6169    2.8278   -0.7570 H   0  0  0  0  0  0  0  0  0  0  0  0
   -2.4779    3.3747    0.4621 H   0  0  0  0  0  0  0  0  0  0  0  0
   -5.2316   -1.4285    2.5534 H   0  0  0  0  0  0  0  0  0  0  0  0
   -6.6385   -3.4876    2.6028 H   0  0  0  0  0  0  0  0  0  0  0  0
   -6.4089   -5.1408    0.8015 H   0  0  0  0  0  0  0  0  0  0  0  0
   -4.8014   -4.7118   -0.9972 H   0  0  0  0  0  0  0  0  0  0  0  0
   -0.3367   -1.7897    3.9076 H   0  0  0  0  0  0  0  0  0  0  0  0
   -0.3936    0.9091    2.7023 H   0  0  0  0  0  0  0  0  0  0  0  0
   -0.4217    2.2745    1.5369 H   0  0  0  0  0  0  0  0  0  0  0  0
    1.8127    0.5268    2.8181 H   0  0  0  0  0  0  0  0  0  0  0  0
    3.8604   -0.4026    1.7913 H   0  0  0  0  0  0  0  0  0  0  0  0
    3.2190   -2.8030   -1.1020 H   0  0  0  0  0  0  0  0  0  0  0  0
    5.2031   -3.9749   -1.9404 H   0  0  0  0  0  0  0  0  0  0  0  0
    7.3828   -2.8590   -2.0331 H   0  0  0  0  0  0  0  0  0  0  0  0
    7.5676   -0.5123   -1.2711 H   0  0  0  0  0  0  0  0  0  0  0  0
    3.7541    2.0244   -0.2776 H   0  0  0  0  0  0  0  0  0  0  0  0
    2.0084   -0.2656   -2.0259 H   0  0  0  0  0  0  0  0  0  0  0  0
   -0.0077    0.6137   -1.0517 H   0  0  0  0  0  0  0  0  0  0  0  0
  1  2  1  0
  2  3  1  0
  3  4  1  0
  4  5  1  0
  5  6  2  0
  6  7  1  0
  7  8  1  0
  8  9  2  0
  9 10  1  0
 10 11  2  0
 11 12  1  0
 12 13  2  0
 13 14  1  0
 14 15  1  0
 14 16  1  0
 14 17  1  0
  7 18  1  0
 18 19  1  0
 19 20  2  0
 19 21  1  0
 18 22  2  0
 22 23  1  0
 23 24  1  0
 24 25  2  0
 25 26  1  0
 26 27  2  0
 27 28  1  0
 28 29  2  0
 29 30  1  0
 30 31  2  0
 31 32  1  0
 32 33  2  0
 33 34  1  0
 34 35  2  0
 35 36  1  0
 36 37  2  0
 37 38  1  0
 27 39  1  0
 39 40  2  0
 22  5  1  0
 40 24  1  0
 13  8  1  0
 33 28  1  0
 38 34  1  0
  1 41  1  0
  1 42  1  0
  1 43  1  0
  2 44  1  0
  2 45  1  0
  3 46  1  0
  3 47  1  0
  4 48  1  0
  4 49  1  0
  9 50  1  0
 10 51  1  0
 11 52  1  0
 12 53  1  0
 21 54  1  0
 23 55  1  0
 23 56  1  0
 25 57  1  0
 26 58  1  0
 29 59  1  0
 30 60  1  0
 31 61  1  0
 32 62  1  0
 38 63  1  0
 39 64  1  0
 40 65  1  0
M  END
$$$$
