
     RDKit          3D

 45 49  0  0  0  0  0  0  0  0999 V2000
   -6.1899    0.3874    3.1707 C   0  0  0  0  0  0  0  0  0  0  0  0
   -6.0880   -0.7485    2.3512 O   0  0  0  0  0  0  0  0  0  0  0  0
   -5.1119   -0.8497    1.3604 C   0  0  0  0  0  0  0  0  0  0  0  0
   -4.2243    0.1893    1.1789 C   0  0  0  0  0  0  0  0  0  0  0  0
   -3.2591    0.1451    0.2346 N   0  0  0  0  0  0  0  0  0  0  0  0
   -3.1598   -0.9442   -0.5526 C   0  0  0  0  0  0  0  0  0  0  0  0
   -2.1559   -0.9416   -1.5043 C   0  0  0  0  0  0  0  0  0  0  0  0
   -1.2763    0.1646   -1.6345 N   0  0  0  0  0  0  0  0  0  0  0  0
   -0.2387    0.1464   -2.6319 C   0  0  0  0  0  0  0  0  0  0  0  0
    0.5736    1.4078   -2.5866 C   0  0  0  0  0  0  0  0  0  0  0  0
    0.3733    2.5580   -3.2512 N   0  0  0  0  0  0  0  0  0  0  0  0
    1.3244    3.4109   -2.9176 N   0  0  0  0  0  0  0  0  0  0  0  0
    2.1490    2.8187   -2.0333 C   0  0  0  0  0  0  0  0  0  0  0  0
    3.2841    3.2165   -1.3582 C   0  0  0  0  0  0  0  0  0  0  0  0
    3.8881    2.2904   -0.4909 C   0  0  0  0  0  0  0  0  0  0  0  0
    3.3721    1.0445   -0.3220 C   0  0  0  0  0  0  0  0  0  0  0  0
    4.0076    0.0454    0.6008 C   0  0  0  0  0  0  0  0  0  0  0  0
    5.0907    0.1928    1.3505 C   0  0  0  0  0  0  0  0  0  0  0  0
    5.5295   -0.8057    2.1242 C   0  0  0  0  0  0  0  0  0  0  0  0
    6.7791   -0.7378    3.0346 C   0  0  0  0  0  0  0  0  0  0  0  0
    4.7895   -1.9799    2.0888 N   0  0  0  0  0  0  0  0  0  0  0  0
    3.4743   -1.5294    0.8990 S   0  0  0  0  0  0  0  0  0  0  0  0
    2.2714    0.7008   -0.9953 N   0  0  0  0  0  0  0  0  0  0  0  0
    1.6830    1.5786   -1.8294 N   0  0  0  0  0  0  0  0  0  0  0  0
   -2.0511   -2.0531   -2.3116 C   0  0  0  0  0  0  0  0  0  0  0  0
   -2.9240   -3.1081   -2.1544 C   0  0  0  0  0  0  0  0  0  0  0  0
   -3.8806   -3.0565   -1.2130 N   0  0  0  0  0  0  0  0  0  0  0  0
   -4.0435   -2.0071   -0.3901 C   0  0  0  0  0  0  0  0  0  0  0  0
   -5.0353   -1.9768    0.5706 C   0  0  0  0  0  0  0  0  0  0  0  0
   -6.3423    1.2963    2.5301 H   0  0  0  0  0  0  0  0  0  0  0  0
   -5.1998    0.5498    3.6747 H   0  0  0  0  0  0  0  0  0  0  0  0
   -6.9975    0.2351    3.9000 H   0  0  0  0  0  0  0  0  0  0  0  0
   -4.3174    1.0719    1.8287 H   0  0  0  0  0  0  0  0  0  0  0  0
   -1.3770    0.9798   -1.0191 H   0  0  0  0  0  0  0  0  0  0  0  0
   -0.6058    0.0173   -3.6549 H   0  0  0  0  0  0  0  0  0  0  0  0
    0.4201   -0.7316   -2.3881 H   0  0  0  0  0  0  0  0  0  0  0  0
    3.6716    4.1989   -1.5059 H   0  0  0  0  0  0  0  0  0  0  0  0
    4.7769    2.5676    0.0529 H   0  0  0  0  0  0  0  0  0  0  0  0
    5.6506    1.1757    1.3348 H   0  0  0  0  0  0  0  0  0  0  0  0
    6.8179    0.3130    3.3583 H   0  0  0  0  0  0  0  0  0  0  0  0
    7.6792   -0.9348    2.4186 H   0  0  0  0  0  0  0  0  0  0  0  0
    6.6441   -1.4533    3.8438 H   0  0  0  0  0  0  0  0  0  0  0  0
   -1.2629   -2.0607   -3.0652 H   0  0  0  0  0  0  0  0  0  0  0  0
   -2.8105   -3.9611   -2.8054 H   0  0  0  0  0  0  0  0  0  0  0  0
   -5.6985   -2.8226    0.6618 H   0  0  0  0  0  0  0  0  0  0  0  0
  1  2  1  0
  2  3  1  0
  3  4  2  0
  4  5  1  0
  5  6  2  0
  6  7  1  0
  7  8  1  0
  8  9  1  0
  9 10  1  0
 10 11  2  0
 11 12  1  0
 12 13  2  0
 13 14  1  0
 14 15  2  0
 15 16  1  0
 16 17  1  0
 17 18  2  0
 18 19  1  0
 19 20  1  0
 19 21  2  0
 21 22  1  0
 16 23  2  0
 23 24  1  0
  7 25  2  0
 25 26  1  0
 26 27  2  0
 27 28  1  0
 28 29  2  0
 29  3  1  0
 28  6  1  0
 24 10  1  0
 24 13  1  0
 22 17  1  0
  1 30  1  0
  1 31  1  0
  1 32  1  0
  4 33  1  0
  8 34  1  0
  9 35  1  0
  9 36  1  0
 14 37  1  0
 15 38  1  0
 18 39  1  0
 20 40  1  0
 20 41  1  0
 20 42  1  0
 25 43  1  0
 26 44  1  0
 29 45  1  0
M  END
$$$$
