@<TRIPOS>MOLECULE
*****
 45 49 0 0 0
SMALL
GASTEIGER

@<TRIPOS>ATOM
      1 C          -6.1899    0.3874    3.1707 C.3     1  UNL1        0.0789
      2 O          -6.0880   -0.7485    2.3512 O.3     1  UNL1       -0.4935
      3 C          -5.1119   -0.8497    1.3604 C.ar    1  UNL1        0.1402
      4 C          -4.2243    0.1893    1.1789 C.ar    1  UNL1        0.0701
      5 N          -3.2591    0.1451    0.2346 N.ar    1  UNL1       -0.2480
      6 C          -3.1598   -0.9442   -0.5526 C.ar    1  UNL1        0.1101
      7 C          -2.1559   -0.9416   -1.5043 C.ar    1  UNL1        0.0567
      8 N          -1.2763    0.1646   -1.6345 N.pl3   1  UNL1       -0.3349
      9 C          -0.2387    0.1464   -2.6319 C.3     1  UNL1        0.0710
     10 C           0.5736    1.4078   -2.5866 C.ar    1  UNL1        0.1719
     11 N           0.3733    2.5580   -3.2512 N.ar    1  UNL1       -0.1306
     12 N           1.3244    3.4109   -2.9176 N.ar    1  UNL1       -0.1279
     13 C           2.1490    2.8187   -2.0333 C.ar    1  UNL1        0.1780
     14 C           3.2841    3.2165   -1.3582 C.ar    1  UNL1       -0.0135
     15 C           3.8881    2.2904   -0.4909 C.ar    1  UNL1       -0.0299
     16 C           3.3721    1.0445   -0.3220 C.ar    1  UNL1        0.0999
     17 C           4.0076    0.0454    0.6008 C.ar    1  UNL1        0.0594
     18 C           5.0907    0.1928    1.3505 C.ar    1  UNL1       -0.0228
     19 C           5.5295   -0.8057    2.1242 C.ar    1  UNL1        0.0479
     20 C           6.7791   -0.7378    3.0346 C.3     1  UNL1       -0.0217
     21 N           4.7895   -1.9799    2.0888 N.ar    1  UNL1       -0.2150
     22 S           3.4743   -1.5294    0.8990 S.2     1  UNL1        0.0135
     23 N           2.2714    0.7008   -0.9953 N.ar    1  UNL1       -0.1627
     24 N           1.6830    1.5786   -1.8294 N.ar    1  UNL1       -0.1949
     25 C          -2.0511   -2.0531   -2.3116 C.ar    1  UNL1       -0.0206
     26 C          -2.9240   -3.1081   -2.1544 C.ar    1  UNL1        0.0301
     27 N          -3.8806   -3.0565   -1.2130 N.ar    1  UNL1       -0.2532
     28 C          -4.0435   -2.0071   -0.3901 C.ar    1  UNL1        0.0944
     29 C          -5.0353   -1.9768    0.5706 C.ar    1  UNL1        0.0091
     30 H          -6.3423    1.2963    2.5301 H       1  UNL1        0.0660
     31 H          -5.1998    0.5498    3.6747 H       1  UNL1        0.0660
     32 H          -6.9975    0.2351    3.9000 H       1  UNL1        0.0660
     33 H          -4.3174    1.0719    1.8287 H       1  UNL1        0.0867
     34 H          -1.3770    0.9798   -1.0191 H       1  UNL1        0.1466
     35 H          -0.6058    0.0173   -3.6549 H       1  UNL1        0.0543
     36 H           0.4201   -0.7316   -2.3881 H       1  UNL1        0.0543
     37 H           3.6716    4.1989   -1.5059 H       1  UNL1        0.0656
     38 H           4.7769    2.5676    0.0529 H       1  UNL1        0.0641
     39 H           5.6506    1.1757    1.3348 H       1  UNL1        0.0648
     40 H           6.8179    0.3130    3.3583 H       1  UNL1        0.0293
     41 H           7.6792   -0.9348    2.4186 H       1  UNL1        0.0293
     42 H           6.6441   -1.4533    3.8438 H       1  UNL1        0.0293
     43 H          -1.2629   -2.0607   -3.0652 H       1  UNL1        0.0652
     44 H          -2.8105   -3.9611   -2.8054 H       1  UNL1        0.0830
     45 H          -5.6985   -2.8226    0.6618 H       1  UNL1        0.0677
@<TRIPOS>BOND
     1     1     2    1
     2     2     3    1
     3     3     4   ar
     4     4     5   ar
     5     5     6   ar
     6     6     7   ar
     7     7     8    1
     8     8     9    1
     9     9    10    1
    10    10    11   ar
    11    11    12   ar
    12    12    13   ar
    13    13    14   ar
    14    14    15   ar
    15    15    16   ar
    16    16    17    1
    17    17    18   ar
    18    18    19   ar
    19    19    20    1
    20    19    21   ar
    21    21    22   ar
    22    16    23   ar
    23    23    24   ar
    24     7    25   ar
    25    25    26   ar
    26    26    27   ar
    27    27    28   ar
    28    28    29   ar
    29    29     3   ar
    30    28     6   ar
    31    24    10   ar
    32    24    13   ar
    33    22    17   ar
    34     1    30    1
    35     1    31    1
    36     1    32    1
    37     4    33    1
    38     8    34    1
    39     9    35    1
    40     9    36    1
    41    14    37    1
    42    15    38    1
    43    18    39    1
    44    20    40    1
    45    20    41    1
    46    20    42    1
    47    25    43    1
    48    26    44    1
    49    29    45    1
