@<TRIPOS>MOLECULE
*****
 52 56 0 0 0
SMALL
GASTEIGER

@<TRIPOS>ATOM
      1 O           1.8546    0.6898   -1.2254 O.2     1  UNL1       -0.2756
      2 C           1.9277    0.2711   -0.0684 C.2     1  UNL1        0.2166
      3 C           0.7773    0.0129    0.7735 C.3     1  UNL1        0.0343
      4 C          -0.5269    0.2753    0.0739 C.3     1  UNL1        0.0097
      5 C          -0.5336    1.6951   -0.3344 C.ar    1  UNL1       -0.0402
      6 C          -0.4481    2.1255   -1.6442 C.ar    1  UNL1       -0.0580
      7 C          -0.4346    3.4772   -1.8888 C.ar    1  UNL1       -0.0615
      8 C          -0.5030    4.4020   -0.8807 C.ar    1  UNL1       -0.0617
      9 C          -0.5885    4.0010    0.4331 C.ar    1  UNL1       -0.0615
     10 C          -0.6023    2.6357    0.6898 C.ar    1  UNL1       -0.0580
     11 C          -0.6961   -0.7075   -1.0333 C.3     1  UNL1       -0.0300
     12 C          -2.0218   -0.7369   -1.7195 C.3     1  UNL1       -0.0442
     13 C          -3.1481   -0.8930   -0.6910 C.3     1  UNL1       -0.0141
     14 C          -2.9701    0.2168    0.2939 C.3     1  UNL1       -0.0442
     15 C          -1.6917    0.1028    1.0553 C.3     1  UNL1       -0.0300
     16 C          -1.6486   -1.2717    1.6962 C.3     1  UNL1       -0.0442
     17 C          -1.6540   -2.2991    0.6188 C.3     1  UNL1       -0.0141
     18 C          -0.5840   -2.1085   -0.4007 C.3     1  UNL1       -0.0442
     19 C          -3.0042   -2.2634   -0.1175 C.3     1  UNL1        0.0609
     20 O          -2.8808   -3.1910   -1.1557 O.3     1  UNL1       -0.3912
     21 N           3.2593    0.0391    0.4338 N.am    1  UNL1       -0.2964
     22 C           3.8154   -0.4374    1.7000 C.3     1  UNL1        0.0422
     23 C           5.0539   -0.9184    0.9740 C.3     1  UNL1        0.0866
     24 O           4.9303   -2.2117    0.4709 O.3     1  UNL1       -0.3887
     25 C           4.6242    0.1550   -0.0372 C.3     1  UNL1        0.0422
     26 H           0.8678    0.7254    1.6605 H       1  UNL1        0.0367
     27 H           0.8029   -0.9835    1.2698 H       1  UNL1        0.0367
     28 H          -0.3962    1.3872   -2.4181 H       1  UNL1        0.0620
     29 H          -0.3687    3.8251   -2.8995 H       1  UNL1        0.0618
     30 H          -0.4933    5.4790   -1.0615 H       1  UNL1        0.0618
     31 H          -0.6442    4.7258    1.2552 H       1  UNL1        0.0618
     32 H          -0.6544    2.3928    1.7432 H       1  UNL1        0.0620
     33 H           0.1145   -0.6757   -1.7780 H       1  UNL1        0.0310
     34 H          -2.0493   -1.7319   -2.2692 H       1  UNL1        0.0272
     35 H          -2.2370    0.0334   -2.4455 H       1  UNL1        0.0272
     36 H          -4.1250   -0.7530   -1.2054 H       1  UNL1        0.0326
     37 H          -2.9286    1.1721   -0.2936 H       1  UNL1        0.0272
     38 H          -3.8492    0.3148    0.9601 H       1  UNL1        0.0272
     39 H          -1.7115    0.8243    1.8625 H       1  UNL1        0.0310
     40 H          -2.5885   -1.3555    2.2849 H       1  UNL1        0.0272
     41 H          -0.8246   -1.4162    2.3882 H       1  UNL1        0.0272
     42 H          -1.5306   -3.3047    1.0633 H       1  UNL1        0.0326
     43 H           0.4248   -2.3823   -0.1238 H       1  UNL1        0.0272
     44 H          -0.8477   -2.7983   -1.2599 H       1  UNL1        0.0272
     45 H          -3.8254   -2.5906    0.5220 H       1  UNL1        0.0599
     46 H          -3.5688   -3.0969   -1.8406 H       1  UNL1        0.2098
     47 H           4.0146    0.3760    2.4355 H       1  UNL1        0.0490
     48 H           3.2148   -1.2748    2.0655 H       1  UNL1        0.0490
     49 H           6.0085   -0.6931    1.4802 H       1  UNL1        0.0625
     50 H           4.9790   -2.1567   -0.5132 H       1  UNL1        0.2099
     51 H           4.7818   -0.2104   -1.0709 H       1  UNL1        0.0490
     52 H           5.1282    1.1070    0.1721 H       1  UNL1        0.0490
@<TRIPOS>BOND
     1     1     2    2
     2     2     3    1
     3     3     4    1
     4     4     5    1
     5     5     6   ar
     6     6     7   ar
     7     7     8   ar
     8     8     9   ar
     9     9    10   ar
    10     4    11    1
    11    11    12    1
    12    12    13    1
    13    13    14    1
    14    14    15    1
    15    15    16    1
    16    16    17    1
    17    17    18    1
    18    17    19    1
    19    19    20    1
    20     2    21   am
    21    21    22    1
    22    22    23    1
    23    23    24    1
    24    23    25    1
    25    15     4    1
    26    25    21    1
    27    10     5   ar
    28    18    11    1
    29    19    13    1
    30     3    26    1
    31     3    27    1
    32     6    28    1
    33     7    29    1
    34     8    30    1
    35     9    31    1
    36    10    32    1
    37    11    33    1
    38    12    34    1
    39    12    35    1
    40    13    36    1
    41    14    37    1
    42    14    38    1
    43    15    39    1
    44    16    40    1
    45    16    41    1
    46    17    42    1
    47    18    43    1
    48    18    44    1
    49    19    45    1
    50    20    46    1
    51    22    47    1
    52    22    48    1
    53    23    49    1
    54    24    50    1
    55    25    51    1
    56    25    52    1
