@<TRIPOS>MOLECULE
*****
 45 47 0 0 0
SMALL
GASTEIGER

@<TRIPOS>ATOM
      1 N           6.8629    1.5110   -0.0782 N.3     1  UNL1       -0.1739
      2 S           6.4943    0.4132    1.2075 S.O2    1  UNL1        0.1892
      3 O           7.7395    0.0236    1.9488 O.2     1  UNL1       -0.1191
      4 O           5.4700    1.0459    2.1322 O.2     1  UNL1       -0.1191
      5 O           5.8374   -0.9948    0.4919 O.3     1  UNL1       -0.3337
      6 C           4.5900   -0.9058   -0.0592 C.ar    1  UNL1        0.1597
      7 C           4.2981   -0.5690   -1.3572 C.ar    1  UNL1       -0.0163
      8 C           3.0247   -0.4893   -1.8783 C.ar    1  UNL1       -0.0492
      9 C           1.9294   -0.7569   -1.0831 C.ar    1  UNL1        0.0019
     10 C           0.5271   -0.7436   -1.3830 C.2     1  UNL1       -0.0316
     11 C          -0.3011   -1.0571   -0.3678 C.2     1  UNL1        0.0719
     12 C          -1.7910   -1.0940   -0.5035 C.3     1  UNL1       -0.0075
     13 C          -2.3839   -0.0791    0.4479 C.3     1  UNL1       -0.0358
     14 C          -1.9020    1.3294    0.1691 C.3     1  UNL1       -0.0499
     15 C          -2.9501    2.1902   -0.6071 C.3     1  UNL1       -0.0528
     16 C          -4.1291    1.4563   -0.5361 C.3     1  UNL1       -0.0530
     17 C          -5.3297    0.7293   -0.5459 C.3     1  UNL1       -0.0530
     18 C          -4.9721   -0.5861    0.2299 C.3     1  UNL1       -0.0528
     19 C          -3.6750   -0.4189    1.0125 C.3     1  UNL1       -0.0499
     20 S           0.6973   -1.3874    1.0325 S.O2    1  UNL1        0.0220
     21 O           0.4407   -0.3695    2.0709 O.2     1  UNL1       -0.1646
     22 O           0.5938   -2.7977    1.5018 O.2     1  UNL1       -0.1646
     23 C           2.2452   -1.0932    0.2174 C.ar    1  UNL1        0.1039
     24 C           3.5028   -1.1744    0.7415 C.ar    1  UNL1        0.0088
     25 H           7.2800    0.9329   -0.8420 H       1  UNL1        0.1472
     26 H           5.9341    1.8635   -0.4472 H       1  UNL1        0.1472
     27 H           5.1378   -0.3503   -2.0170 H       1  UNL1        0.0655
     28 H           2.9248   -0.2098   -2.9304 H       1  UNL1        0.0625
     29 H           0.1456   -0.4901   -2.3896 H       1  UNL1        0.0640
     30 H          -2.0550   -1.0599   -1.5370 H       1  UNL1        0.0329
     31 H          -2.1714   -2.0985   -0.1296 H       1  UNL1        0.0329
     32 H          -1.7213   -0.2916    1.3328 H       1  UNL1        0.0304
     33 H          -0.9976    1.2093   -0.4357 H       1  UNL1        0.0268
     34 H          -1.6428    1.9155    1.0684 H       1  UNL1        0.0268
     35 H          -2.4860    2.4297   -1.6063 H       1  UNL1        0.0265
     36 H          -2.9803    3.2309   -0.1585 H       1  UNL1        0.0265
     37 H          -3.6513    0.6465   -1.1241 H       1  UNL1        0.0265
     38 H          -4.1353    1.5043    0.5723 H       1  UNL1        0.0265
     39 H          -5.7840    0.3963   -1.5050 H       1  UNL1        0.0265
     40 H          -6.2222    1.2141   -0.0438 H       1  UNL1        0.0265
     41 H          -5.7345   -0.7276    0.9918 H       1  UNL1        0.0265
     42 H          -4.9155   -1.4194   -0.4653 H       1  UNL1        0.0265
     43 H          -3.5624   -1.5051    1.3355 H       1  UNL1        0.0268
     44 H          -3.8343    0.0781    1.9949 H       1  UNL1        0.0268
     45 H           3.6523   -1.4509    1.7912 H       1  UNL1        0.0674
@<TRIPOS>BOND
     1     1     2    1
     2     2     3    2
     3     2     4    2
     4     2     5    1
     5     5     6    1
     6     6     7   ar
     7     7     8   ar
     8     8     9   ar
     9     9    10    1
    10    10    11    2
    11    11    12    1
    12    12    13    1
    13    13    14    1
    14    14    15    1
    15    15    16    1
    16    16    17    1
    17    17    18    1
    18    18    19    1
    19    11    20    1
    20    20    21    2
    21    20    22    2
    22    20    23    1
    23    23    24   ar
    24    24     6   ar
    25    23     9   ar
    26    19    13    1
    27     1    25    1
    28     1    26    1
    29     7    27    1
    30     8    28    1
    31    10    29    1
    32    12    30    1
    33    12    31    1
    34    13    32    1
    35    14    33    1
    36    14    34    1
    37    15    35    1
    38    15    36    1
    39    16    37    1
    40    16    38    1
    41    17    39    1
    42    17    40    1
    43    18    41    1
    44    18    42    1
    45    19    43    1
    46    19    44    1
    47    24    45    1
