@<TRIPOS>MOLECULE
*****
 41 44 0 0 0
SMALL
GASTEIGER

@<TRIPOS>ATOM
      1 C           3.9599    0.6060    0.7712 C.3     1  UNL1       -0.0128
      2 N           3.6111   -0.7689    0.4491 N.3     1  UNL1       -0.3050
      3 C           3.2206   -0.9555   -0.9146 C.3     1  UNL1       -0.0011
      4 C           1.7968   -0.4342   -0.8918 C.3     1  UNL1       -0.0348
      5 C           1.2485   -1.0921    0.3310 C.3     1  UNL1       -0.0110
      6 C           0.2527   -0.3275    1.0964 C.3     1  UNL1        0.0214
      7 N          -0.9574    0.0530    0.4444 N.pl3   1  UNL1       -0.2980
      8 C          -1.9487   -0.9228    0.1768 C.ar    1  UNL1        0.0479
      9 C          -1.7999   -2.2300    0.5757 C.ar    1  UNL1       -0.0393
     10 C          -2.7259   -3.2250    0.3601 C.ar    1  UNL1       -0.0599
     11 C          -3.9025   -2.9378   -0.2986 C.ar    1  UNL1       -0.0606
     12 C          -4.0991   -1.6289   -0.7211 C.ar    1  UNL1       -0.0462
     13 C          -3.1325   -0.6917   -0.4710 C.ar    1  UNL1        0.0341
     14 S          -3.5695    0.9186   -1.0767 S.3     1  UNL1       -0.0857
     15 C          -2.1825    1.9252   -0.6053 C.ar    1  UNL1        0.0341
     16 C          -2.3395    3.2320   -0.9892 C.ar    1  UNL1       -0.0462
     17 C          -1.3259    4.1465   -0.6968 C.ar    1  UNL1       -0.0606
     18 C          -0.2142    3.6900   -0.0350 C.ar    1  UNL1       -0.0599
     19 C          -0.1449    2.3610    0.3104 C.ar    1  UNL1       -0.0393
     20 C          -1.1024    1.4066    0.0558 C.ar    1  UNL1        0.0479
     21 C           2.4906   -1.1999    1.2293 C.3     1  UNL1        0.0029
     22 H           3.2953    0.9898    1.5851 H       1  UNL1        0.0391
     23 H           3.9050    1.2440   -0.1313 H       1  UNL1        0.0391
     24 H           5.0114    0.6323    1.1268 H       1  UNL1        0.0391
     25 H           3.2946   -2.0225   -1.1713 H       1  UNL1        0.0426
     26 H           3.8513   -0.4004   -1.6361 H       1  UNL1        0.0426
     27 H           1.8573    0.6431   -0.9058 H       1  UNL1        0.0281
     28 H           1.3058   -0.8439   -1.8216 H       1  UNL1        0.0281
     29 H           1.0281   -2.1160    0.0259 H       1  UNL1        0.0329
     30 H          -0.0699   -1.0235    1.9486 H       1  UNL1        0.0471
     31 H           0.7675    0.4178    1.7111 H       1  UNL1        0.0471
     32 H          -0.9536   -2.5890    1.1002 H       1  UNL1        0.0636
     33 H          -2.6008   -4.2672    0.6809 H       1  UNL1        0.0618
     34 H          -4.6380   -3.7085   -0.4749 H       1  UNL1        0.0618
     35 H          -5.0325   -1.4647   -1.2277 H       1  UNL1        0.0629
     36 H          -3.1753    3.6559   -1.5058 H       1  UNL1        0.0629
     37 H          -1.4039    5.1865   -0.9788 H       1  UNL1        0.0618
     38 H           0.5619    4.4219    0.1813 H       1  UNL1        0.0618
     39 H           0.7753    2.1312    0.8174 H       1  UNL1        0.0636
     40 H           2.6544   -2.2373    1.5855 H       1  UNL1        0.0430
     41 H           2.4310   -0.5738    2.1212 H       1  UNL1        0.0430
@<TRIPOS>BOND
     1     1     2    1
     2     2     3    1
     3     3     4    1
     4     4     5    1
     5     5     6    1
     6     6     7    1
     7     7     8    1
     8     8     9   ar
     9     9    10   ar
    10    10    11   ar
    11    11    12   ar
    12    12    13   ar
    13    13    14    1
    14    14    15    1
    15    15    16   ar
    16    16    17   ar
    17    17    18   ar
    18    18    19   ar
    19    19    20   ar
    20     5    21    1
    21    21     2    1
    22    20     7    1
    23    13     8   ar
    24    20    15   ar
    25     1    22    1
    26     1    23    1
    27     1    24    1
    28     3    25    1
    29     3    26    1
    30     4    27    1
    31     4    28    1
    32     5    29    1
    33     6    30    1
    34     6    31    1
    35     9    32    1
    36    10    33    1
    37    11    34    1
    38    12    35    1
    39    16    36    1
    40    17    37    1
    41    18    38    1
    42    19    39    1
    43    21    40    1
    44    21    41    1
