@<TRIPOS>MOLECULE
*****
 48 51 0 0 0
SMALL
GASTEIGER

@<TRIPOS>ATOM
      1 C          -4.8746   -1.4387   -0.5951 C.3     1  UNL1       -0.0482
      2 C          -4.1810   -0.9519    0.6593 C.3     1  UNL1        0.0205
      3 C          -2.7162   -0.7973    0.4526 C.3     1  UNL1        0.0274
      4 N          -2.2979    0.5637    0.1055 N.pl3   1  UNL1       -0.3249
      5 C          -3.2118    1.6420   -0.0677 C.3     1  UNL1        0.0249
      6 C          -4.6569    1.2286    0.1075 C.3     1  UNL1        0.0119
      7 N          -4.8145    0.2545    1.1693 N.3     1  UNL1       -0.3105
      8 C          -0.9096    0.7818   -0.0592 C.ar    1  UNL1        0.0677
      9 C          -0.4208    2.0372   -0.3710 C.ar    1  UNL1        0.1480
     10 F          -1.2342    3.1067   -0.5302 F       1  UNL1       -0.2032
     11 C           0.9369    2.3084   -0.5459 C.ar    1  UNL1       -0.0006
     12 C           1.4260    3.6702   -0.8807 C.3     1  UNL1       -0.0362
     13 C           1.8382    1.2726   -0.4007 C.ar    1  UNL1        0.0517
     14 C           3.1879    1.5093   -0.5664 C.ar    1  UNL1        0.2037
     15 O           3.6593    2.6336   -0.8485 O.2     1  UNL1       -0.2863
     16 C           4.0395    0.4361   -0.4078 C.ar    1  UNL1        0.1220
     17 C           3.5139   -0.7989   -0.0974 C.ar    1  UNL1        0.0231
     18 N           2.1875   -1.0508    0.0695 N.ar    1  UNL1       -0.3425
     19 C           1.8188   -2.4145    0.3929 C.3     1  UNL1        0.0347
     20 C           2.8573   -3.1629    1.2273 C.3     1  UNL1       -0.0302
     21 C           2.7563   -3.4758   -0.1979 C.3     1  UNL1       -0.0302
     22 C           1.3816    0.0094   -0.0900 C.ar    1  UNL1        0.0552
     23 C           0.0354   -0.2258    0.0762 C.ar    1  UNL1       -0.0136
     24 C           5.4721    0.6548   -0.5767 C.2     1  UNL1        0.3420
     25 O           6.3767   -0.3955   -0.4276 O.3     1  UNL1       -0.4770
     26 O           5.8848    1.8082   -0.8600 O.2     1  UNL1       -0.2449
     27 H          -5.9258   -1.0519   -0.5571 H       1  UNL1        0.0245
     28 H          -5.0042   -2.5589   -0.5815 H       1  UNL1        0.0245
     29 H          -4.3739   -1.1157   -1.5133 H       1  UNL1        0.0245
     30 H          -4.3406   -1.7223    1.4534 H       1  UNL1        0.0473
     31 H          -2.4066   -1.4325   -0.4026 H       1  UNL1        0.0479
     32 H          -2.1294   -1.1010    1.3518 H       1  UNL1        0.0479
     33 H          -3.2072    2.0968   -1.0984 H       1  UNL1        0.0476
     34 H          -3.0110    2.3892    0.7312 H       1  UNL1        0.0476
     35 H          -5.2556    2.1288    0.2521 H       1  UNL1        0.0439
     36 H          -4.9757    0.7328   -0.8466 H       1  UNL1        0.0439
     37 H          -5.8465    0.0359    1.1942 H       1  UNL1        0.1223
     38 H           2.0424    4.1287   -0.0739 H       1  UNL1        0.0279
     39 H           0.5314    4.3559   -0.9553 H       1  UNL1        0.0279
     40 H           1.8866    3.7416   -1.8876 H       1  UNL1        0.0279
     41 H           4.2849   -1.5794    0.0065 H       1  UNL1        0.0819
     42 H           0.7881   -2.7591    0.4032 H       1  UNL1        0.0528
     43 H           3.6604   -2.5480    1.6854 H       1  UNL1        0.0286
     44 H           2.4644   -3.9142    1.9631 H       1  UNL1        0.0286
     45 H           3.4448   -3.1377   -0.9802 H       1  UNL1        0.0286
     46 H           2.3308   -4.4820   -0.4451 H       1  UNL1        0.0286
     47 H          -0.3776   -1.1826    0.3182 H       1  UNL1        0.0658
     48 H           7.3653   -0.2299   -0.2505 H       1  UNL1        0.2954
@<TRIPOS>BOND
     1     1     2    1
     2     2     3    1
     3     3     4    1
     4     4     5    1
     5     5     6    1
     6     6     7    1
     7     4     8    1
     8     8     9   ar
     9     9    10    1
    10     9    11   ar
    11    11    12    1
    12    11    13   ar
    13    13    14   ar
    14    14    15    2
    15    14    16   ar
    16    16    17   ar
    17    17    18   ar
    18    18    19    1
    19    19    20    1
    20    20    21    1
    21    18    22   ar
    22    22    23   ar
    23    16    24    1
    24    24    25    1
    25    24    26    2
    26     7     2    1
    27    23     8   ar
    28    22    13   ar
    29    21    19    1
    30     1    27    1
    31     1    28    1
    32     1    29    1
    33     2    30    1
    34     3    31    1
    35     3    32    1
    36     5    33    1
    37     5    34    1
    38     6    35    1
    39     6    36    1
    40     7    37    1
    41    12    38    1
    42    12    39    1
    43    12    40    1
    44    17    41    1
    45    19    42    1
    46    20    43    1
    47    20    44    1
    48    21    45    1
    49    21    46    1
    50    23    47    1
    51    25    48    1
