@<TRIPOS>MOLECULE
*****
 61 66 0 0 0
SMALL
GASTEIGER

@<TRIPOS>ATOM
      1 C          10.0333    0.6207   -1.1984 C.3     1  UNL1        0.0003
      2 N           9.5838   -0.7169   -0.9475 N.pl3   1  UNL1       -0.3165
      3 C           8.2304   -1.0195   -0.6436 C.ar    1  UNL1        0.2154
      4 N           7.8352   -2.2801   -0.3912 N.ar    1  UNL1       -0.2229
      5 C           6.5523   -2.5428   -0.1098 C.ar    1  UNL1        0.0332
      6 C           5.5880   -1.5248   -0.0691 C.ar    1  UNL1       -0.0172
      7 C           5.9862   -0.2503   -0.3251 C.ar    1  UNL1        0.0811
      8 C           5.0989    0.9021   -0.3242 C.ar    1  UNL1        0.0624
      9 C           5.6574    2.1657   -0.5270 C.ar    1  UNL1       -0.0460
     10 C           4.8765    3.3196   -0.5717 C.ar    1  UNL1       -0.0427
     11 C           3.5216    3.2348   -0.4139 C.ar    1  UNL1        0.0314
     12 N           3.0004    2.0206   -0.2208 N.ar    1  UNL1       -0.2204
     13 C           3.7343    0.8754   -0.1725 C.ar    1  UNL1        0.2297
     14 O           3.0816   -0.2751    0.0289 O.3     1  UNL1       -0.4374
     15 C           1.7820   -0.6252    0.1673 C.ar    1  UNL1        0.1305
     16 C           0.7095    0.2036    0.0222 C.ar    1  UNL1       -0.0175
     17 C          -0.6020   -0.2819    0.1878 C.ar    1  UNL1       -0.0370
     18 C          -0.8415   -1.5974    0.4985 C.ar    1  UNL1        0.0326
     19 N          -2.1423   -2.1440    0.6383 N.pl3   1  UNL1       -0.2975
     20 C          -3.3402   -1.4778    0.2813 C.ar    1  UNL1        0.1532
     21 N          -3.7389   -1.4803   -1.0108 N.ar    1  UNL1       -0.1328
     22 N          -4.8485   -0.8776   -1.3072 N.ar    1  UNL1       -0.1468
     23 C          -5.6667   -0.2307   -0.4286 C.ar    1  UNL1        0.1011
     24 C          -6.8833    0.4141   -0.8843 C.ar    1  UNL1        0.0029
     25 C          -8.1434    0.1829   -0.3539 C.ar    1  UNL1       -0.0498
     26 C          -9.2535    0.8497   -0.8232 C.ar    1  UNL1       -0.0258
     27 C          -9.1344    1.7678   -1.8375 C.ar    1  UNL1        0.1234
     28 F         -10.2406    2.4369   -2.3119 F       1  UNL1       -0.2055
     29 C          -7.9032    2.0316   -2.3978 C.ar    1  UNL1       -0.0258
     30 C          -6.7931    1.3390   -1.9005 C.ar    1  UNL1       -0.0498
     31 C          -5.2651   -0.2224    0.8897 C.ar    1  UNL1        0.0132
     32 C          -5.9975    0.4104    1.8685 C.ar    1  UNL1       -0.0518
     33 C          -5.5558    0.4081    3.1957 C.ar    1  UNL1       -0.0611
     34 C          -4.3818   -0.2295    3.5254 C.ar    1  UNL1       -0.0611
     35 C          -3.6221   -0.8769    2.5469 C.ar    1  UNL1       -0.0506
     36 C          -4.0801   -0.8582    1.2526 C.ar    1  UNL1        0.0260
     37 C           0.2466   -2.4407    0.6479 C.ar    1  UNL1       -0.0370
     38 C           1.5080   -1.9658    0.4864 C.ar    1  UNL1       -0.0175
     39 N           7.3158   -0.0515   -0.6059 N.ar    1  UNL1       -0.2143
     40 H          11.0592    0.7672   -0.7538 H       1  UNL1        0.0426
     41 H           9.3990    1.3724   -0.6512 H       1  UNL1        0.0426
     42 H          10.0782    0.8234   -2.2870 H       1  UNL1        0.0426
     43 H          10.2660   -1.5204   -0.9848 H       1  UNL1        0.1486
     44 H           6.1686   -3.5436    0.1044 H       1  UNL1        0.0831
     45 H           4.5646   -1.7740    0.1643 H       1  UNL1        0.0654
     46 H           6.7279    2.2219   -0.6495 H       1  UNL1        0.0626
     47 H           5.3937    4.2728   -0.7355 H       1  UNL1        0.0633
     48 H           2.9175    4.1346   -0.4517 H       1  UNL1        0.0831
     49 H           0.8652    1.2414   -0.2214 H       1  UNL1        0.0655
     50 H          -1.4180    0.4042    0.0663 H       1  UNL1        0.0637
     51 H          -2.2744   -3.1172    1.0366 H       1  UNL1        0.1536
     52 H          -8.2788   -0.5493    0.4412 H       1  UNL1        0.0625
     53 H         -10.2228    0.6632   -0.4072 H       1  UNL1        0.0646
     54 H          -7.8313    2.7508   -3.1897 H       1  UNL1        0.0646
     55 H          -5.8496    1.5992   -2.3908 H       1  UNL1        0.0625
     56 H          -6.8965    0.9132    1.5881 H       1  UNL1        0.0624
     57 H          -6.1743    0.9216    3.9187 H       1  UNL1        0.0618
     58 H          -4.0702   -0.2123    4.5643 H       1  UNL1        0.0618
     59 H          -2.7093   -1.3560    2.8748 H       1  UNL1        0.0625
     60 H           0.0394   -3.4934    0.8991 H       1  UNL1        0.0637
     61 H           2.3380   -2.6262    0.6040 H       1  UNL1        0.0655
@<TRIPOS>BOND
     1     1     2    1
     2     2     3    1
     3     3     4   ar
     4     4     5   ar
     5     5     6   ar
     6     6     7   ar
     7     7     8    1
     8     8     9   ar
     9     9    10   ar
    10    10    11   ar
    11    11    12   ar
    12    12    13   ar
    13    13    14    1
    14    14    15    1
    15    15    16   ar
    16    16    17   ar
    17    17    18   ar
    18    18    19    1
    19    19    20    1
    20    20    21   ar
    21    21    22   ar
    22    22    23   ar
    23    23    24    1
    24    24    25   ar
    25    25    26   ar
    26    26    27   ar
    27    27    28    1
    28    27    29   ar
    29    29    30   ar
    30    23    31   ar
    31    31    32   ar
    32    32    33   ar
    33    33    34   ar
    34    34    35   ar
    35    35    36   ar
    36    18    37   ar
    37    37    38   ar
    38     7    39   ar
    39    39     3   ar
    40    13     8   ar
    41    38    15   ar
    42    36    20   ar
    43    30    24   ar
    44    36    31   ar
    45     1    40    1
    46     1    41    1
    47     1    42    1
    48     2    43    1
    49     5    44    1
    50     6    45    1
    51     9    46    1
    52    10    47    1
    53    11    48    1
    54    16    49    1
    55    17    50    1
    56    19    51    1
    57    25    52    1
    58    26    53    1
    59    29    54    1
    60    30    55    1
    61    32    56    1
    62    33    57    1
    63    34    58    1
    64    35    59    1
    65    37    60    1
    66    38    61    1
