@<TRIPOS>MOLECULE
*****
 61 65 0 0 0
SMALL
GASTEIGER

@<TRIPOS>ATOM
      1 O           0.3243    2.5411    1.4656 O.2     1  UNL1       -0.2492
      2 C           1.0915    1.6575    0.9470 C.2     1  UNL1        0.3223
      3 OXT         2.2138    2.0842    0.3128 O.3     1  UNL1       -0.4795
      4 CA          0.6989    0.2494    1.0811 C.3     1  UNL1        0.1103
      5 C           1.1955   -0.6855    0.0289 C.3     1  UNL1       -0.0017
      6 C           2.6924   -0.6646    0.0154 C.ar    1  UNL1       -0.0418
      7 C           3.4066   -1.3841    0.9799 C.ar    1  UNL1       -0.0577
      8 C           4.7847   -1.4070    0.9633 C.ar    1  UNL1       -0.0501
      9 C           5.5166   -0.7352    0.0134 C.ar    1  UNL1        0.0279
     10 C           4.8222   -0.0179   -0.9503 C.ar    1  UNL1        0.1365
     11 C           3.4336    0.0052   -0.9343 C.ar    1  UNL1       -0.0155
     12 O           5.7306    0.5171   -1.7176 O.2     1  UNL1       -0.4548
     13 C           6.9412    0.2272   -1.3586 C.ar    1  UNL1        0.1362
     14 C           8.1853    0.5520   -1.8469 C.ar    1  UNL1       -0.0187
     15 C           9.2960    0.0640   -1.2107 C.ar    1  UNL1       -0.0582
     16 C           9.2395   -0.7530   -0.0828 C.ar    1  UNL1       -0.0610
     17 C           7.9971   -1.0769    0.4032 C.ar    1  UNL1       -0.0504
     18 C           6.8750   -0.5939   -0.2260 C.ar    1  UNL1        0.0279
     19 N          -0.5520    0.0040    1.5915 N.3     1  UNL1       -0.2910
     20 C          -1.7684   -0.2233    0.8688 C.3     1  UNL1        0.1110
     21 C          -2.7625   -0.4556    1.9686 C.3     1  UNL1       -0.0222
     22 C          -4.1311   -0.7962    1.8966 C.3     1  UNL1       -0.0237
     23 C          -5.1822   -0.0660    1.2171 C.ar    1  UNL1       -0.0214
     24 C          -5.8531    1.0082    1.7417 C.ar    1  UNL1       -0.0565
     25 C          -6.7998    1.6624    1.0138 C.ar    1  UNL1       -0.0608
     26 C          -7.1176    1.2746   -0.2639 C.ar    1  UNL1       -0.0525
     27 C          -6.4720    0.2002   -0.8347 C.ar    1  UNL1        0.0007
     28 C          -6.8069   -0.2073   -2.1135 C.ar    1  UNL1       -0.0511
     29 C          -6.1800   -1.2969   -2.6739 C.ar    1  UNL1       -0.0430
     30 C          -5.2316   -1.9289   -1.9011 C.ar    1  UNL1        0.0283
     31 N          -4.9225   -1.5150   -0.6630 N.ar    1  UNL1       -0.2547
     32 C          -5.5223   -0.4360   -0.0707 C.ar    1  UNL1        0.0741
     33 P          -2.0979    1.0916   -0.2594 P.3     1  UNL1        0.3445
     34 O          -2.5870    2.3587    0.4481 O.2     1  UNL1       -0.2572
     35 O          -0.6489    1.5587   -1.0463 O.3     1  UNL1       -0.3230
     36 O          -3.1208    0.7181   -1.5595 O.3     1  UNL1       -0.3230
     37 HXT         2.5392    3.0454    0.2645 H       1  UNL1        0.2951
     38 HA          1.4220   -0.0709    1.9946 H       1  UNL1        0.0579
     39 H           0.8447   -1.7261    0.3259 H       1  UNL1        0.0334
     40 H           0.8626   -0.5183   -0.9948 H       1  UNL1        0.0334
     41 H           2.8145   -1.9103    1.7244 H       1  UNL1        0.0621
     42 H           5.3120   -1.9715    1.7222 H       1  UNL1        0.0625
     43 H           2.9171    0.5641   -1.7256 H       1  UNL1        0.0657
     44 H           8.2667    1.1885   -2.7267 H       1  UNL1        0.0654
     45 H          10.2634    0.3546   -1.6421 H       1  UNL1        0.0619
     46 H          10.1741   -1.0864    0.3465 H       1  UNL1        0.0618
     47 H           7.9260   -1.7053    1.2707 H       1  UNL1        0.0625
     48 H          -0.5901   -0.0934    2.6096 H       1  UNL1        0.1235
     49 H          -1.6989   -1.1812    0.2629 H       1  UNL1        0.0586
     50 H          -2.5543    0.3938    2.7598 H       1  UNL1        0.0289
     51 H          -2.2421   -1.3052    2.5762 H       1  UNL1        0.0289
     52 H          -4.5272   -0.8781    2.9889 H       1  UNL1        0.0314
     53 H          -4.2024   -1.9174    1.6244 H       1  UNL1        0.0314
     54 H          -5.6306    1.3353    2.7309 H       1  UNL1        0.0621
     55 H          -7.3432    2.5294    1.4322 H       1  UNL1        0.0618
     56 H          -7.8690    1.7995   -0.8338 H       1  UNL1        0.0624
     57 H          -7.5530    0.3031   -2.6993 H       1  UNL1        0.0625
     58 H          -6.4216   -1.6438   -3.6804 H       1  UNL1        0.0633
     59 H          -4.7493   -2.7906   -2.3663 H       1  UNL1        0.0830
     60 H          -0.8343    2.3442   -1.6356 H       1  UNL1        0.2198
     61 H          -3.8145    1.4100   -1.5961 H       1  UNL1        0.2198
@<TRIPOS>BOND
     1     1     2    2
     2     2     3    1
     3     2     4    1
     4     4     5    1
     5     5     6    1
     6     6     7   ar
     7     7     8   ar
     8     8     9   ar
     9     9    10   ar
    10    10    11   ar
    11    10    12   ar
    12    12    13   ar
    13    13    14   ar
    14    14    15   ar
    15    15    16   ar
    16    16    17   ar
    17    17    18   ar
    18     4    19    1
    19    19    20    1
    20    20    21    1
    21    21    22    1
    22    22    23    1
    23    23    24   ar
    24    24    25   ar
    25    25    26   ar
    26    26    27   ar
    27    27    28   ar
    28    28    29   ar
    29    29    30   ar
    30    30    31   ar
    31    31    32   ar
    32    20    33    1
    33    33    34    2
    34    33    35    1
    35    33    36    1
    36    11     6   ar
    37    18    13   ar
    38    32    23   ar
    39    18     9   ar
    40    32    27   ar
    41     3    37    1
    42     4    38    1
    43     5    39    1
    44     5    40    1
    45     7    41    1
    46     8    42    1
    47    11    43    1
    48    14    44    1
    49    15    45    1
    50    16    46    1
    51    17    47    1
    52    19    48    1
    53    20    49    1
    54    21    50    1
    55    21    51    1
    56    22    52    1
    57    22    53    1
    58    24    54    1
    59    25    55    1
    60    26    56    1
    61    28    57    1
    62    29    58    1
    63    30    59    1
    64    35    60    1
    65    36    61    1
