
     RDKit          3D

 61 65  0  0  0  0  0  0  0  0999 V2000
    0.3243    2.5411    1.4656 O   0  0  0  0  0  0  0  0  0  0  0  0
    1.0915    1.6575    0.9470 C   0  0  0  0  0  0  0  0  0  0  0  0
    2.2138    2.0842    0.3128 O   0  0  0  0  0  0  0  0  0  0  0  0
    0.6989    0.2494    1.0811 C   0  0  2  0  0  0  0  0  0  0  0  0
    1.1955   -0.6855    0.0289 C   0  0  0  0  0  0  0  0  0  0  0  0
    2.6924   -0.6646    0.0154 C   0  0  0  0  0  0  0  0  0  0  0  0
    3.4066   -1.3841    0.9799 C   0  0  0  0  0  0  0  0  0  0  0  0
    4.7847   -1.4070    0.9633 C   0  0  0  0  0  0  0  0  0  0  0  0
    5.5166   -0.7352    0.0134 C   0  0  0  0  0  0  0  0  0  0  0  0
    4.8222   -0.0179   -0.9503 C   0  0  0  0  0  0  0  0  0  0  0  0
    3.4336    0.0052   -0.9343 C   0  0  0  0  0  0  0  0  0  0  0  0
    5.7306    0.5171   -1.7176 O   0  0  0  0  0  0  0  0  0  0  0  0
    6.9412    0.2272   -1.3586 C   0  0  0  0  0  0  0  0  0  0  0  0
    8.1853    0.5520   -1.8469 C   0  0  0  0  0  0  0  0  0  0  0  0
    9.2960    0.0640   -1.2107 C   0  0  0  0  0  0  0  0  0  0  0  0
    9.2395   -0.7530   -0.0828 C   0  0  0  0  0  0  0  0  0  0  0  0
    7.9971   -1.0769    0.4032 C   0  0  0  0  0  0  0  0  0  0  0  0
    6.8750   -0.5939   -0.2260 C   0  0  0  0  0  0  0  0  0  0  0  0
   -0.5520    0.0040    1.5915 N   0  0  0  0  0  0  0  0  0  0  0  0
   -1.7684   -0.2233    0.8688 C   0  0  0  0  0  0  0  0  0  0  0  0
   -2.7625   -0.4556    1.9686 C   0  0  0  0  0  0  0  0  0  0  0  0
   -4.1311   -0.7962    1.8966 C   0  0  0  0  0  0  0  0  0  0  0  0
   -5.1822   -0.0660    1.2171 C   0  0  0  0  0  0  0  0  0  0  0  0
   -5.8531    1.0082    1.7417 C   0  0  0  0  0  0  0  0  0  0  0  0
   -6.7998    1.6624    1.0138 C   0  0  0  0  0  0  0  0  0  0  0  0
   -7.1176    1.2746   -0.2639 C   0  0  0  0  0  0  0  0  0  0  0  0
   -6.4720    0.2002   -0.8347 C   0  0  0  0  0  0  0  0  0  0  0  0
   -6.8069   -0.2073   -2.1135 C   0  0  0  0  0  0  0  0  0  0  0  0
   -6.1800   -1.2969   -2.6739 C   0  0  0  0  0  0  0  0  0  0  0  0
   -5.2316   -1.9289   -1.9011 C   0  0  0  0  0  0  0  0  0  0  0  0
   -4.9225   -1.5150   -0.6630 N   0  0  0  0  0  0  0  0  0  0  0  0
   -5.5223   -0.4360   -0.0707 C   0  0  0  0  0  0  0  0  0  0  0  0
   -2.0979    1.0916   -0.2594 P   0  0  0  0  0  5  0  0  0  0  0  0
   -2.5870    2.3587    0.4481 O   0  0  0  0  0  0  0  0  0  0  0  0
   -0.6489    1.5587   -1.0463 O   0  0  0  0  0  0  0  0  0  0  0  0
   -3.1208    0.7181   -1.5595 O   0  0  0  0  0  0  0  0  0  0  0  0
    2.5392    3.0454    0.2645 H   0  0  0  0  0  0  0  0  0  0  0  0
    1.4220   -0.0709    1.9946 H   0  0  0  0  0  0  0  0  0  0  0  0
    0.8447   -1.7261    0.3259 H   0  0  0  0  0  0  0  0  0  0  0  0
    0.8626   -0.5183   -0.9948 H   0  0  0  0  0  0  0  0  0  0  0  0
    2.8145   -1.9103    1.7244 H   0  0  0  0  0  0  0  0  0  0  0  0
    5.3120   -1.9715    1.7222 H   0  0  0  0  0  0  0  0  0  0  0  0
    2.9171    0.5641   -1.7256 H   0  0  0  0  0  0  0  0  0  0  0  0
    8.2667    1.1885   -2.7267 H   0  0  0  0  0  0  0  0  0  0  0  0
   10.2634    0.3546   -1.6421 H   0  0  0  0  0  0  0  0  0  0  0  0
   10.1741   -1.0864    0.3465 H   0  0  0  0  0  0  0  0  0  0  0  0
    7.9260   -1.7053    1.2707 H   0  0  0  0  0  0  0  0  0  0  0  0
   -0.5901   -0.0934    2.6096 H   0  0  0  0  0  0  0  0  0  0  0  0
   -1.6989   -1.1812    0.2629 H   0  0  0  0  0  0  0  0  0  0  0  0
   -2.5543    0.3938    2.7598 H   0  0  0  0  0  0  0  0  0  0  0  0
   -2.2421   -1.3052    2.5762 H   0  0  0  0  0  0  0  0  0  0  0  0
   -4.5272   -0.8781    2.9889 H   0  0  0  0  0  0  0  0  0  0  0  0
   -4.2024   -1.9174    1.6244 H   0  0  0  0  0  0  0  0  0  0  0  0
   -5.6306    1.3353    2.7309 H   0  0  0  0  0  0  0  0  0  0  0  0
   -7.3432    2.5294    1.4322 H   0  0  0  0  0  0  0  0  0  0  0  0
   -7.8690    1.7995   -0.8338 H   0  0  0  0  0  0  0  0  0  0  0  0
   -7.5530    0.3031   -2.6993 H   0  0  0  0  0  0  0  0  0  0  0  0
   -6.4216   -1.6438   -3.6804 H   0  0  0  0  0  0  0  0  0  0  0  0
   -4.7493   -2.7906   -2.3663 H   0  0  0  0  0  0  0  0  0  0  0  0
   -0.8343    2.3442   -1.6356 H   0  0  0  0  0  0  0  0  0  0  0  0
   -3.8145    1.4100   -1.5961 H   0  0  0  0  0  0  0  0  0  0  0  0
  1  2  2  0
  2  3  1  0
  2  4  1  0
  4  5  1  0
  5  6  1  0
  6  7  2  0
  7  8  1  0
  8  9  2  0
  9 10  1  0
 10 11  2  0
 10 12  1  0
 12 13  1  0
 13 14  2  0
 14 15  1  0
 15 16  2  0
 16 17  1  0
 17 18  2  0
  4 19  1  0
 19 20  1  0
 20 21  1  0
 21 22  1  0
 22 23  1  0
 23 24  2  0
 24 25  1  0
 25 26  2  0
 26 27  1  0
 27 28  2  0
 28 29  1  0
 29 30  2  0
 30 31  1  0
 31 32  2  0
 20 33  1  0
 33 34  2  0
 33 35  1  0
 33 36  1  0
 11  6  1  0
 18 13  1  0
 32 23  1  0
 18  9  1  0
 32 27  1  0
  3 37  1  0
  4 38  1  1
  5 39  1  0
  5 40  1  0
  7 41  1  0
  8 42  1  0
 11 43  1  0
 14 44  1  0
 15 45  1  0
 16 46  1  0
 17 47  1  0
 19 48  1  0
 20 49  1  0
 21 50  1  0
 21 51  1  0
 22 52  1  0
 22 53  1  0
 24 54  1  0
 25 55  1  0
 26 56  1  0
 28 57  1  0
 29 58  1  0
 30 59  1  0
 35 60  1  0
 36 61  1  0
M  END
$$$$
