
     RDKit          3D

123125  0  0  0  0  0  0  0  0999 V2000
   10.9346    4.5140   -0.7648 C   0  0  0  0  0  0  0  0  0  0  0  0
    9.7123    3.8886   -0.1207 C   0  0  1  0  0  0  0  0  0  0  0  0
    9.6382    2.4935   -0.4297 N   0  0  0  0  0  0  0  0  0  0  0  0
    8.5292    1.8629   -1.0176 C   0  0  0  0  0  0  0  0  0  0  0  0
    7.5227    2.6219   -1.2812 O   0  0  0  0  0  0  0  0  0  0  0  0
    7.9915    0.5884   -1.5033 C   0  0  2  0  0  0  0  0  0  0  0  0
    8.7829   -0.0687   -2.6018 C   0  0  0  0  0  0  0  0  0  0  0  0
   10.2045   -0.3710   -2.1784 C   0  0  0  0  0  0  0  0  0  0  0  0
   10.3058   -1.2455   -0.9537 C   0  0  0  0  0  0  0  0  0  0  0  0
   11.7530   -1.5037   -0.5484 C   0  0  1  0  0  0  0  0  0  0  0  0
   11.7492   -2.3528    0.6570 N   0  0  0  0  0  0  0  0  0  0  0  0
   12.5128   -2.2600   -1.5607 C   0  0  0  0  0  0  0  0  0  0  0  0
   13.1067   -3.4926   -1.3431 O   0  0  0  0  0  0  0  0  0  0  0  0
   12.7274   -1.8999   -2.7458 O   0  0  0  0  0  0  0  0  0  0  0  0
    6.6044    0.8177   -1.9696 N   0  0  0  0  0  0  0  0  0  0  0  0
    5.4454    0.0339   -1.6306 C   0  0  0  0  0  0  0  0  0  0  0  0
    5.9191   -0.8896   -0.8876 O   0  0  0  0  0  0  0  0  0  0  0  0
    4.2277    0.6636   -2.2943 C   0  0  0  0  0  0  0  0  0  0  0  0
    2.9860    0.0909   -1.6857 C   0  0  0  0  0  0  0  0  0  0  0  0
    2.7706    0.4853   -0.3009 C   0  0  1  0  0  0  0  0  0  0  0  0
    1.6405   -0.1613    0.3207 N   0  0  0  0  0  0  0  0  0  0  0  0
    1.2362   -0.4025    1.6160 C   0  0  0  0  0  0  0  0  0  0  0  0
    2.0497    0.0084    2.5356 O   0  0  0  0  0  0  0  0  0  0  0  0
    0.0566   -1.0437    2.2294 C   0  0  2  0  0  0  0  0  0  0  0  0
    0.3923   -2.5279    2.4497 C   0  0  0  0  0  0  0  0  0  0  0  0
   -1.0837   -0.9743    1.2912 N   0  0  0  0  0  0  0  0  0  0  0  0
   -2.1832   -0.1812    1.8045 C   0  0  0  0  0  0  0  0  0  0  0  0
   -2.1484    0.3804    2.9477 O   0  0  0  0  0  0  0  0  0  0  0  0
   -3.5465    0.2260    1.3078 C   0  0  1  0  0  0  0  0  0  0  0  0
   -3.5996    1.7403    1.2953 C   0  0  0  0  0  0  0  0  0  0  0  0
   -3.8145   -0.2909    0.0350 O   0  0  0  0  0  0  0  0  0  0  0  0
   -4.9386   -1.1055    0.0536 C   0  0  2  0  0  0  0  0  0  0  0  0
   -4.5225   -2.5095   -0.2874 C   0  0  1  0  0  0  0  0  0  0  0  0
   -5.1694   -3.4479    0.6055 N   0  0  0  0  0  0  0  0  0  0  0  0
   -4.4362   -4.2389    1.5650 C   0  0  0  0  0  0  0  0  0  0  0  0
   -5.3644   -5.1284    2.3544 C   0  0  0  0  0  0  0  0  0  0  0  0
   -3.1962   -4.0855    1.6066 O   0  0  0  0  0  0  0  0  0  0  0  0
   -4.6716   -2.8500   -1.7276 C   0  0  2  0  0  0  0  0  0  0  0  0
   -3.8511   -2.0268   -2.4821 O   0  0  0  0  0  0  0  0  0  0  0  0
   -4.6384   -0.8761   -2.7194 C   0  0  0  0  0  0  0  0  0  0  0  0
   -6.0110   -1.2064   -2.1607 C   0  0  1  0  0  0  0  0  0  0  0  0
   -5.9667   -2.5836   -2.1669 O   0  0  0  0  0  0  0  0  0  0  0  0
   -6.0689   -0.5931   -0.7832 C   0  0  1  0  0  0  0  0  0  0  0  0
   -7.2832   -0.7078   -0.1690 O   0  0  0  0  0  0  0  0  0  0  0  0
   -7.9965    0.4128    0.0682 C   0  0  2  0  0  0  0  0  0  0  0  0
   -8.1717    0.5289    1.4751 O   0  0  0  0  0  0  0  0  0  0  0  0
   -9.2524    1.3390    1.7794 C   0  0  2  0  0  0  0  0  0  0  0  0
   -9.1785    1.6886    3.2551 C   0  0  0  0  0  0  0  0  0  0  0  0
   -7.9678    2.3611    3.4919 O   0  0  0  0  0  0  0  0  0  0  0  0
  -10.5717    0.6625    1.5383 C   0  0  1  0  0  0  0  0  0  0  0  0
  -11.5045    1.5972    1.0912 O   0  0  0  0  0  0  0  0  0  0  0  0
  -10.3741   -0.3312    0.3967 C   0  0  2  0  0  0  0  0  0  0  0  0
   -9.8614   -1.4986    0.9630 O   0  0  0  0  0  0  0  0  0  0  0  0
   -9.3682    0.2313   -0.5812 C   0  0  1  0  0  0  0  0  0  0  0  0
   -9.8179    1.3915   -1.2899 N   0  0  0  0  0  0  0  0  0  0  0  0
   -9.9603    1.3756   -2.7201 C   0  0  0  0  0  0  0  0  0  0  0  0
  -10.4064    2.4435   -3.6486 C   0  0  0  0  0  0  0  0  0  0  0  0
   -9.6706    0.2876   -3.3330 O   0  0  0  0  0  0  0  0  0  0  0  0
    3.9470    0.6124    0.6242 C   0  0  0  0  0  0  0  0  0  0  0  0
    4.5579    0.2039    1.7831 O   0  0  0  0  0  0  0  0  0  0  0  0
    5.0223    1.2507    0.7222 O   0  0  0  0  0  0  0  0  0  0  0  0
    9.7806    3.9782    1.3860 C   0  0  0  0  0  0  0  0  0  0  0  0
    9.8641    5.2882    1.8921 O   0  0  0  0  0  0  0  0  0  0  0  0
    9.7752    3.0916    2.2818 O   0  0  0  0  0  0  0  0  0  0  0  0
   10.5857    5.1914   -1.5701 H   0  0  0  0  0  0  0  0  0  0  0  0
   11.5019    5.0532    0.0095 H   0  0  0  0  0  0  0  0  0  0  0  0
   11.5442    3.6993   -1.2377 H   0  0  0  0  0  0  0  0  0  0  0  0
    8.7988    4.3955   -0.4664 H   0  0  0  0  0  0  0  0  0  0  0  0
   10.3229    1.7187   -0.2848 H   0  0  0  0  0  0  0  0  0  0  0  0
    7.9145   -0.1767   -0.6952 H   0  0  0  0  0  0  0  0  0  0  0  0
    8.8297    0.5323   -3.5146 H   0  0  0  0  0  0  0  0  0  0  0  0
    8.3458   -1.0534   -2.8920 H   0  0  0  0  0  0  0  0  0  0  0  0
   10.5895   -1.0430   -3.0285 H   0  0  0  0  0  0  0  0  0  0  0  0
   10.8637    0.4961   -2.1764 H   0  0  0  0  0  0  0  0  0  0  0  0
    9.7532   -0.7794   -0.1191 H   0  0  0  0  0  0  0  0  0  0  0  0
    9.8207   -2.2406   -1.1193 H   0  0  0  0  0  0  0  0  0  0  0  0
   12.2337   -0.5316   -0.3309 H   0  0  0  0  0  0  0  0  0  0  0  0
   12.5014   -2.0283    1.2991 H   0  0  0  0  0  0  0  0  0  0  0  0
   10.8400   -2.2738    1.1798 H   0  0  0  0  0  0  0  0  0  0  0  0
   14.0068   -3.7468   -1.7276 H   0  0  0  0  0  0  0  0  0  0  0  0
    6.6176    1.6567   -2.6126 H   0  0  0  0  0  0  0  0  0  0  0  0
    4.3030    0.5001   -3.3725 H   0  0  0  0  0  0  0  0  0  0  0  0
    4.2568    1.7292   -2.0736 H   0  0  0  0  0  0  0  0  0  0  0  0
    2.9095   -1.0141   -1.8725 H   0  0  0  0  0  0  0  0  0  0  0  0
    2.1269    0.4969   -2.3100 H   0  0  0  0  0  0  0  0  0  0  0  0
    2.4180    1.6093   -0.3005 H   0  0  0  0  0  0  0  0  0  0  0  0
    0.9459   -0.5509   -0.3901 H   0  0  0  0  0  0  0  0  0  0  0  0
   -0.2414   -0.5667    3.1685 H   0  0  0  0  0  0  0  0  0  0  0  0
    1.4856   -2.6192    2.4025 H   0  0  0  0  0  0  0  0  0  0  0  0
    0.0570   -2.8799    3.4468 H   0  0  0  0  0  0  0  0  0  0  0  0
   -0.0500   -3.1255    1.6162 H   0  0  0  0  0  0  0  0  0  0  0  0
   -1.4083   -1.2967    0.3654 H   0  0  0  0  0  0  0  0  0  0  0  0
   -4.3150   -0.1509    1.9923 H   0  0  0  0  0  0  0  0  0  0  0  0
   -2.5980    2.1658    1.5296 H   0  0  0  0  0  0  0  0  0  0  0  0
   -4.2648    2.1207    2.1099 H   0  0  0  0  0  0  0  0  0  0  0  0
   -3.8638    2.1643    0.2995 H   0  0  0  0  0  0  0  0  0  0  0  0
   -5.3109   -1.1208    1.1166 H   0  0  0  0  0  0  0  0  0  0  0  0
   -3.4180   -2.6129   -0.0355 H   0  0  0  0  0  0  0  0  0  0  0  0
   -6.2259   -3.4775    0.4673 H   0  0  0  0  0  0  0  0  0  0  0  0
   -6.1946   -4.5065    2.6970 H   0  0  0  0  0  0  0  0  0  0  0  0
   -4.8122   -5.5417    3.2331 H   0  0  0  0  0  0  0  0  0  0  0  0
   -5.7570   -5.9627    1.7205 H   0  0  0  0  0  0  0  0  0  0  0  0
   -4.3897   -3.9086   -1.8604 H   0  0  0  0  0  0  0  0  0  0  0  0
   -4.2195    0.0076   -2.2193 H   0  0  0  0  0  0  0  0  0  0  0  0
   -4.6612   -0.7465   -3.8232 H   0  0  0  0  0  0  0  0  0  0  0  0
   -6.7451   -0.7516   -2.8547 H   0  0  0  0  0  0  0  0  0  0  0  0
   -5.8908    0.4852   -0.9576 H   0  0  0  0  0  0  0  0  0  0  0  0
   -7.5974    1.3771   -0.2481 H   0  0  0  0  0  0  0  0  0  0  0  0
   -9.2532    2.3134    1.2459 H   0  0  0  0  0  0  0  0  0  0  0  0
   -9.3387    0.8432    3.9252 H   0  0  0  0  0  0  0  0  0  0  0  0
   -9.9585    2.4992    3.3907 H   0  0  0  0  0  0  0  0  0  0  0  0
   -8.0069    3.2850    3.1222 H   0  0  0  0  0  0  0  0  0  0  0  0
  -10.8770    0.1603    2.4655 H   0  0  0  0  0  0  0  0  0  0  0  0
  -12.4111    1.2225    1.3274 H   0  0  0  0  0  0  0  0  0  0  0  0
  -11.2989   -0.5173   -0.1722 H   0  0  0  0  0  0  0  0  0  0  0  0
   -9.5294   -1.3533    1.8948 H   0  0  0  0  0  0  0  0  0  0  0  0
   -9.2387   -0.5716   -1.3561 H   0  0  0  0  0  0  0  0  0  0  0  0
  -10.0933    2.3344   -0.9528 H   0  0  0  0  0  0  0  0  0  0  0  0
   -9.7301    2.4932   -4.5439 H   0  0  0  0  0  0  0  0  0  0  0  0
  -11.4188    2.1623   -4.0113 H   0  0  0  0  0  0  0  0  0  0  0  0
  -10.4933    3.4437   -3.1685 H   0  0  0  0  0  0  0  0  0  0  0  0
    4.8064   -0.7637    2.0130 H   0  0  0  0  0  0  0  0  0  0  0  0
   10.0822    5.4501    2.8557 H   0  0  0  0  0  0  0  0  0  0  0  0
  1  2  1  0
  2  3  1  0
  3  4  1  0
  4  5  2  0
  4  6  1  0
  6  7  1  0
  7  8  1  0
  8  9  1  0
  9 10  1  0
 10 11  1  0
 10 12  1  0
 12 13  1  0
 12 14  2  0
  6 15  1  0
 15 16  1  0
 16 17  2  0
 16 18  1  0
 18 19  1  0
 19 20  1  0
 20 21  1  0
 21 22  1  0
 22 23  2  0
 22 24  1  0
 24 25  1  0
 24 26  1  0
 26 27  1  0
 27 28  2  0
 27 29  1  0
 29 30  1  0
 29 31  1  0
 31 32  1  0
 32 33  1  0
 33 34  1  0
 34 35  1  0
 35 36  1  0
 35 37  2  0
 33 38  1  0
 38 39  1  0
 39 40  1  0
 40 41  1  0
 41 42  1  0
 41 43  1  0
 43 44  1  0
 44 45  1  0
 45 46  1  0
 46 47  1  0
 47 48  1  0
 48 49  1  0
 47 50  1  0
 50 51  1  0
 50 52  1  0
 52 53  1  0
 52 54  1  0
 54 55  1  0
 55 56  1  0
 56 57  1  0
 56 58  2  0
 20 59  1  0
 59 60  1  0
 59 61  2  0
  2 62  1  0
 62 63  1  0
 62 64  2  0
 43 32  1  0
 54 45  1  0
 42 38  1  0
  1 65  1  0
  1 66  1  0
  1 67  1  0
  2 68  1  6
  3 69  1  0
  6 70  1  1
  7 71  1  0
  7 72  1  0
  8 73  1  0
  8 74  1  0
  9 75  1  0
  9 76  1  0
 10 77  1  1
 11 78  1  0
 11 79  1  0
 13 80  1  0
 15 81  1  0
 18 82  1  0
 18 83  1  0
 19 84  1  0
 19 85  1  0
 20 86  1  6
 21 87  1  0
 24 88  1  1
 25 89  1  0
 25 90  1  0
 25 91  1  0
 26 92  1  0
 29 93  1  1
 30 94  1  0
 30 95  1  0
 30 96  1  0
 32 97  1  1
 33 98  1  1
 34 99  1  0
 36100  1  0
 36101  1  0
 36102  1  0
 38103  1  1
 40104  1  0
 40105  1  0
 41106  1  6
 43107  1  6
 45108  1  6
 47109  1  6
 48110  1  0
 48111  1  0
 49112  1  0
 50113  1  1
 51114  1  0
 52115  1  6
 53116  1  0
 54117  1  6
 55118  1  0
 57119  1  0
 57120  1  0
 57121  1  0
 60122  1  0
 63123  1  0
M  END
$$$$
