@<TRIPOS>MOLECULE
*****
 123 125 0 0 0
SMALL
GASTEIGER

@<TRIPOS>ATOM
      1 CB         10.9346    4.5140   -0.7648 C.3     2  GLN2       -0.0362
      2 CA          9.7123    3.8886   -0.1207 C.3     2  GLN2        0.1174
      3 N           9.6382    2.4935   -0.4297 N.am    2  GLN2       -0.3010
      4 C           8.5292    1.8629   -1.0176 C.2     1  ALA1        0.2340
      5 O           7.5227    2.6219   -1.2812 O.2     1  ALA1       -0.2738
      6 CA          7.9915    0.5884   -1.5033 C.3     1  ALA1        0.0994
      7 C           8.7829   -0.0687   -2.6018 C.3     1  ALA1       -0.0259
      8 C          10.2045   -0.3710   -2.1784 C.3     1  ALA1       -0.0490
      9 C          10.3058   -1.2455   -0.9537 C.3     1  ALA1       -0.0273
     10 CA         11.7530   -1.5037   -0.5484 C.3     1  ALA1        0.1032
     11 N          11.7492   -2.3528    0.6570 N.3     1  ALA1       -0.3184
     12 C          12.5128   -2.2600   -1.5607 C.2     1  ALA1        0.3217
     13 O          13.1067   -3.4926   -1.3431 O.3     1  ALA1       -0.4795
     14 OXT        12.7274   -1.8999   -2.7458 O.2     1  ALA1       -0.2493
     15 N           6.6044    0.8177   -1.9696 N.am    2  GLN2       -0.3040
     16 CD          5.4454    0.0339   -1.6306 C.2     2  GLN2        0.2137
     17 OE1         5.9191   -0.8896   -0.8876 O.2     2  GLN2       -0.2758
     18 CG          4.2277    0.6636   -2.2943 C.3     2  GLN2        0.0262
     19 CB          2.9860    0.0909   -1.6857 C.3     2  GLN2       -0.0159
     20 CA          2.7706    0.4853   -0.3009 C.3     2  GLN2        0.1207
     21 N           1.6405   -0.1613    0.3207 N.am    2  GLN2       -0.3008
     22 C           1.2362   -0.4025    1.6160 C.2     1  ALA1        0.2337
     23 O           2.0497    0.0084    2.5356 O.2     1  ALA1       -0.2738
     24 CA          0.0566   -1.0437    2.2294 C.3     1  ALA1        0.0966
     25 CB          0.3923   -2.5279    2.4497 C.3     1  ALA1       -0.0381
     26 N          -1.0837   -0.9743    1.2912 N.am    1  ALA1       -0.3021
     27 C          -2.1832   -0.1812    1.8045 C.2     0  UNK0        0.2422
     28 O          -2.1484    0.3804    2.9477 O.2     0  UNK0       -0.2730
     29 C          -3.5465    0.2260    1.3078 C.3     0  UNK0        0.1321
     30 C          -3.5996    1.7403    1.2953 C.3     0  UNK0       -0.0301
     31 O          -3.8145   -0.2909    0.0350 O.3     0  UNK0       -0.3598
     32 C          -4.9386   -1.1055    0.0536 C.3     0  UNK0        0.1113
     33 C          -4.5225   -2.5095   -0.2874 C.3     0  UNK0        0.1026
     34 N          -5.1694   -3.4479    0.6055 N.am    0  UNK0       -0.3053
     35 C          -4.4362   -4.2389    1.5650 C.2     0  UNK0        0.2104
     36 C          -5.3644   -5.1284    2.3544 C.3     0  UNK0        0.0122
     37 O          -3.1962   -4.0855    1.6066 O.2     0  UNK0       -0.2761
     38 C          -4.6716   -2.8500   -1.7276 C.3     0  UNK0        0.1804
     39 O          -3.8511   -2.0268   -2.4821 O.3     0  UNK0       -0.3467
     40 C          -4.6384   -0.8761   -2.7194 C.3     0  UNK0        0.0795
     41 C          -6.0110   -1.2064   -2.1607 C.3     0  UNK0        0.1137
     42 O          -5.9667   -2.5836   -2.1669 O.3     0  UNK0       -0.3412
     43 C          -6.0689   -0.5931   -0.7832 C.3     0  UNK0        0.1180
     44 O          -7.2832   -0.7078   -0.1690 O.3     0  UNK0       -0.3408
     45 C          -7.9965    0.4128    0.0682 C.3     0  UNK0        0.1808
     46 O          -8.1717    0.5289    1.4751 O.3     0  UNK0       -0.3412
     47 C          -9.2524    1.3390    1.7794 C.3     0  UNK0        0.1130
     48 C          -9.1785    1.6886    3.2551 C.3     0  UNK0        0.0730
     49 O          -7.9678    2.3611    3.4919 O.3     0  UNK0       -0.3924
     50 C         -10.5717    0.6625    1.5383 C.3     0  UNK0        0.1112
     51 O         -11.5045    1.5972    1.0912 O.3     0  UNK0       -0.3865
     52 C         -10.3741   -0.3312    0.3967 C.3     0  UNK0        0.1065
     53 O          -9.8614   -1.4986    0.9630 O.3     0  UNK0       -0.3871
     54 C          -9.3682    0.2313   -0.5812 C.3     0  UNK0        0.1023
     55 N          -9.8179    1.3915   -1.2899 N.am    0  UNK0       -0.3053
     56 C          -9.9603    1.3756   -2.7201 C.2     0  UNK0        0.2104
     57 C         -10.4064    2.4435   -3.6486 C.3     0  UNK0        0.0122
     58 O          -9.6706    0.2876   -3.3330 O.2     0  UNK0       -0.2761
     59 C           3.9470    0.6124    0.6242 C.2     2  GLN2        0.3253
     60 O           4.5579    0.2039    1.7831 O.3     2  GLN2       -0.4793
     61 OXT         5.0223    1.2507    0.7222 O.2     2  GLN2       -0.2489
     62 C           9.7806    3.9782    1.3860 C.2     2  GLN2        0.3250
     63 O           9.8641    5.2882    1.8921 O.3     2  GLN2       -0.4793
     64 OXT         9.7752    3.0916    2.2818 O.2     2  GLN2       -0.2489
     65 HB1        10.5857    5.1914   -1.5701 H       2  GLN2        0.0253
     66 HB2        11.5019    5.0532    0.0095 H       2  GLN2        0.0253
     67 HB3        11.5442    3.6993   -1.2377 H       2  GLN2        0.0253
     68 HA          8.7988    4.3955   -0.4664 H       2  GLN2        0.0611
     69 H          10.3229    1.7187   -0.2848 H       2  GLN2        0.1496
     70 HA          7.9145   -0.1767   -0.6952 H       1  ALA1        0.0594
     71 H           8.8297    0.5323   -3.5146 H       1  ALA1        0.0288
     72 H           8.3458   -1.0534   -2.8920 H       1  ALA1        0.0288
     73 H          10.5895   -1.0430   -3.0285 H       1  ALA1        0.0267
     74 H          10.8637    0.4961   -2.1764 H       1  ALA1        0.0267
     75 H           9.7532   -0.7794   -0.1191 H       1  ALA1        0.0286
     76 H           9.8207   -2.2406   -1.1193 H       1  ALA1        0.0286
     77 HA         12.2337   -0.5316   -0.3309 H       1  ALA1        0.0574
     78 H1         12.5014   -2.0283    1.2991 H       1  ALA1        0.1190
     79 H2         10.8400   -2.2738    1.1798 H       1  ALA1        0.1190
     80 H          14.0068   -3.7468   -1.7276 H       1  ALA1        0.2951
     81 H           6.6176    1.6567   -2.6126 H       2  GLN2        0.1494
     82 HG1         4.3030    0.5001   -3.3725 H       2  GLN2        0.0359
     83 HG2         4.2568    1.7292   -2.0736 H       2  GLN2        0.0359
     84 HB1         2.9095   -1.0141   -1.8725 H       2  GLN2        0.0293
     85 HB2         2.1269    0.4969   -2.3100 H       2  GLN2        0.0293
     86 HA          2.4180    1.6093   -0.3005 H       2  GLN2        0.0614
     87 H           0.9459   -0.5509   -0.3901 H       2  GLN2        0.1496
     88 HA         -0.2414   -0.5667    3.1685 H       1  ALA1        0.0592
     89 HB1         1.4856   -2.6192    2.4025 H       1  ALA1        0.0252
     90 HB2         0.0570   -2.8799    3.4468 H       1  ALA1        0.0252
     91 HB3        -0.0500   -3.1255    1.6162 H       1  ALA1        0.0252
     92 H          -1.4083   -1.2967    0.3654 H       1  ALA1        0.1495
     93 H          -4.3150   -0.1509    1.9923 H       0  UNK0        0.0690
     94 H          -2.5980    2.1658    1.5296 H       0  UNK0        0.0259
     95 H          -4.2648    2.1207    2.1099 H       0  UNK0        0.0259
     96 H          -3.8638    2.1643    0.2995 H       0  UNK0        0.0259
     97 H          -5.3109   -1.1208    1.1166 H       0  UNK0        0.0643
     98 H          -3.4180   -2.6129   -0.0355 H       0  UNK0        0.0575
     99 H          -6.2259   -3.4775    0.4673 H       0  UNK0        0.1492
    100 H          -6.1946   -4.5065    2.6970 H       0  UNK0        0.0322
    101 H          -4.8122   -5.5417    3.2331 H       0  UNK0        0.0322
    102 H          -5.7570   -5.9627    1.7205 H       0  UNK0        0.0322
    103 H          -4.3897   -3.9086   -1.8604 H       0  UNK0        0.0930
    104 H          -4.2195    0.0076   -2.2193 H       0  UNK0        0.0587
    105 H          -4.6612   -0.7465   -3.8232 H       0  UNK0        0.0587
    106 H          -6.7451   -0.7516   -2.8547 H       0  UNK0        0.0647
    107 H          -5.8908    0.4852   -0.9576 H       0  UNK0        0.0650
    108 H          -7.5974    1.3771   -0.2481 H       0  UNK0        0.0930
    109 H          -9.2532    2.3134    1.2459 H       0  UNK0        0.0647
    110 H          -9.3387    0.8432    3.9252 H       0  UNK0        0.0584
    111 H          -9.9585    2.4992    3.3907 H       0  UNK0        0.0584
    112 H          -8.0069    3.2850    3.1222 H       0  UNK0        0.2095
    113 H         -10.8770    0.1603    2.4655 H       0  UNK0        0.0646
    114 H         -12.4111    1.2225    1.3274 H       0  UNK0        0.2100
    115 H         -11.2989   -0.5173   -0.1722 H       0  UNK0        0.0640
    116 H          -9.5294   -1.3533    1.8948 H       0  UNK0        0.2100
    117 H          -9.2387   -0.5716   -1.3561 H       0  UNK0        0.0575
    118 H         -10.0933    2.3344   -0.9528 H       0  UNK0        0.1492
    119 H          -9.7301    2.4932   -4.5439 H       0  UNK0        0.0322
    120 H         -11.4188    2.1623   -4.0113 H       0  UNK0        0.0322
    121 H         -10.4933    3.4437   -3.1685 H       0  UNK0        0.0322
    122 H           4.8064   -0.7637    2.0130 H       2  GLN2        0.2951
    123 H          10.0822    5.4501    2.8557 H       2  GLN2        0.2951
@<TRIPOS>BOND
     1     1     2    1
     2     2     3    1
     3     3     4   am
     4     4     5    2
     5     4     6    1
     6     6     7    1
     7     7     8    1
     8     8     9    1
     9     9    10    1
    10    10    11    1
    11    10    12    1
    12    12    13    1
    13    12    14    2
    14     6    15    1
    15    15    16   am
    16    16    17    2
    17    16    18    1
    18    18    19    1
    19    19    20    1
    20    20    21    1
    21    21    22   am
    22    22    23    2
    23    22    24    1
    24    24    25    1
    25    24    26    1
    26    26    27   am
    27    27    28    2
    28    27    29    1
    29    29    30    1
    30    29    31    1
    31    31    32    1
    32    32    33    1
    33    33    34    1
    34    34    35   am
    35    35    36    1
    36    35    37    2
    37    33    38    1
    38    38    39    1
    39    39    40    1
    40    40    41    1
    41    41    42    1
    42    41    43    1
    43    43    44    1
    44    44    45    1
    45    45    46    1
    46    46    47    1
    47    47    48    1
    48    48    49    1
    49    47    50    1
    50    50    51    1
    51    50    52    1
    52    52    53    1
    53    52    54    1
    54    54    55    1
    55    55    56   am
    56    56    57    1
    57    56    58    2
    58    20    59    1
    59    59    60    1
    60    59    61    2
    61     2    62    1
    62    62    63    1
    63    62    64    2
    64    43    32    1
    65    54    45    1
    66    42    38    1
    67     1    65    1
    68     1    66    1
    69     1    67    1
    70     2    68    1
    71     3    69    1
    72     6    70    1
    73     7    71    1
    74     7    72    1
    75     8    73    1
    76     8    74    1
    77     9    75    1
    78     9    76    1
    79    10    77    1
    80    11    78    1
    81    11    79    1
    82    13    80    1
    83    15    81    1
    84    18    82    1
    85    18    83    1
    86    19    84    1
    87    19    85    1
    88    20    86    1
    89    21    87    1
    90    24    88    1
    91    25    89    1
    92    25    90    1
    93    25    91    1
    94    26    92    1
    95    29    93    1
    96    30    94    1
    97    30    95    1
    98    30    96    1
    99    32    97    1
   100    33    98    1
   101    34    99    1
   102    36   100    1
   103    36   101    1
   104    36   102    1
   105    38   103    1
   106    40   104    1
   107    40   105    1
   108    41   106    1
   109    43   107    1
   110    45   108    1
   111    47   109    1
   112    48   110    1
   113    48   111    1
   114    49   112    1
   115    50   113    1
   116    51   114    1
   117    52   115    1
   118    53   116    1
   119    54   117    1
   120    55   118    1
   121    57   119    1
   122    57   120    1
   123    57   121    1
   124    60   122    1
   125    63   123    1
