@<TRIPOS>MOLECULE
*****
 32 31 0 0 0
SMALL
GASTEIGER

@<TRIPOS>ATOM
      1 C           5.0530    0.4870   -1.0464 C.3     1  UNL1       -0.0653
      2 C           3.6972    0.8986   -0.5457 C.3     1  UNL1       -0.0559
      3 C           2.8872   -0.3492   -0.2793 C.3     1  UNL1       -0.0533
      4 C           1.4837    0.0057    0.2373 C.3     1  UNL1       -0.0531
      5 C           0.8046   -1.3274    0.4544 C.3     1  UNL1       -0.0531
      6 C          -0.6085   -1.2015    0.9750 C.3     1  UNL1       -0.0530
      7 C          -1.4157   -0.4330   -0.0139 C.3     1  UNL1       -0.0526
      8 C          -2.8566   -0.2516    0.4078 C.3     1  UNL1       -0.0430
      9 C          -3.5537    0.5337   -0.6695 C.3     1  UNL1        0.0448
     10 C          -4.9811    0.7743   -0.3637 C.2     1  UNL1        0.3047
     11 O          -5.6976    1.4975   -1.3168 O.3     1  UNL1       -0.4806
     12 O          -5.5727    0.3776    0.6749 O.2     1  UNL1       -0.2510
     13 H           5.4249    1.1334   -1.8651 H       1  UNL1        0.0230
     14 H           5.7583    0.4685   -0.1784 H       1  UNL1        0.0230
     15 H           5.0171   -0.5645   -1.4077 H       1  UNL1        0.0230
     16 H           3.8349    1.5117    0.3649 H       1  UNL1        0.0263
     17 H           3.1850    1.5572   -1.2751 H       1  UNL1        0.0263
     18 H           2.7648   -0.8980   -1.2221 H       1  UNL1        0.0265
     19 H           3.3602   -0.9314    0.5378 H       1  UNL1        0.0265
     20 H           1.5118    0.5979    1.1552 H       1  UNL1        0.0265
     21 H           0.9811    0.5937   -0.5776 H       1  UNL1        0.0265
     22 H           0.7498   -1.7977   -0.5614 H       1  UNL1        0.0265
     23 H           1.4268   -1.9565    1.0993 H       1  UNL1        0.0265
     24 H          -0.5918   -0.6056    1.9210 H       1  UNL1        0.0265
     25 H          -1.0271   -2.2083    1.1565 H       1  UNL1        0.0265
     26 H          -0.9800    0.6072   -0.0771 H       1  UNL1        0.0265
     27 H          -1.3627   -0.8379   -1.0433 H       1  UNL1        0.0265
     28 H          -3.3037   -1.2657    0.3880 H       1  UNL1        0.0270
     29 H          -2.9637    0.1461    1.4136 H       1  UNL1        0.0270
     30 H          -3.0306    1.5078   -0.7380 H       1  UNL1        0.0377
     31 H          -3.4089   -0.0053   -1.6233 H       1  UNL1        0.0377
     32 H          -6.5862    1.9356   -1.1164 H       1  UNL1        0.2951
@<TRIPOS>BOND
     1     1     2    1
     2     2     3    1
     3     3     4    1
     4     4     5    1
     5     5     6    1
     6     6     7    1
     7     7     8    1
     8     8     9    1
     9     9    10    1
    10    10    11    1
    11    10    12    2
    12     1    13    1
    13     1    14    1
    14     1    15    1
    15     2    16    1
    16     2    17    1
    17     3    18    1
    18     3    19    1
    19     4    20    1
    20     4    21    1
    21     5    22    1
    22     5    23    1
    23     6    24    1
    24     6    25    1
    25     7    26    1
    26     7    27    1
    27     8    28    1
    28     8    29    1
    29     9    30    1
    30     9    31    1
    31    11    32    1
