
     RDKit          3D

 32 31  0  0  0  0  0  0  0  0999 V2000
    5.0530    0.4870   -1.0464 C   0  0  0  0  0  0  0  0  0  0  0  0
    3.6972    0.8986   -0.5457 C   0  0  0  0  0  0  0  0  0  0  0  0
    2.8872   -0.3492   -0.2793 C   0  0  0  0  0  0  0  0  0  0  0  0
    1.4837    0.0057    0.2373 C   0  0  0  0  0  0  0  0  0  0  0  0
    0.8046   -1.3274    0.4544 C   0  0  0  0  0  0  0  0  0  0  0  0
   -0.6085   -1.2015    0.9750 C   0  0  0  0  0  0  0  0  0  0  0  0
   -1.4157   -0.4330   -0.0139 C   0  0  0  0  0  0  0  0  0  0  0  0
   -2.8566   -0.2516    0.4078 C   0  0  0  0  0  0  0  0  0  0  0  0
   -3.5537    0.5337   -0.6695 C   0  0  0  0  0  0  0  0  0  0  0  0
   -4.9811    0.7743   -0.3637 C   0  0  0  0  0  0  0  0  0  0  0  0
   -5.6976    1.4975   -1.3168 O   0  0  0  0  0  0  0  0  0  0  0  0
   -5.5727    0.3776    0.6749 O   0  0  0  0  0  0  0  0  0  0  0  0
    5.4249    1.1334   -1.8651 H   0  0  0  0  0  0  0  0  0  0  0  0
    5.7583    0.4685   -0.1784 H   0  0  0  0  0  0  0  0  0  0  0  0
    5.0171   -0.5645   -1.4077 H   0  0  0  0  0  0  0  0  0  0  0  0
    3.8349    1.5117    0.3649 H   0  0  0  0  0  0  0  0  0  0  0  0
    3.1850    1.5572   -1.2751 H   0  0  0  0  0  0  0  0  0  0  0  0
    2.7648   -0.8980   -1.2221 H   0  0  0  0  0  0  0  0  0  0  0  0
    3.3602   -0.9314    0.5378 H   0  0  0  0  0  0  0  0  0  0  0  0
    1.5118    0.5979    1.1552 H   0  0  0  0  0  0  0  0  0  0  0  0
    0.9811    0.5937   -0.5776 H   0  0  0  0  0  0  0  0  0  0  0  0
    0.7498   -1.7977   -0.5614 H   0  0  0  0  0  0  0  0  0  0  0  0
    1.4268   -1.9565    1.0993 H   0  0  0  0  0  0  0  0  0  0  0  0
   -0.5918   -0.6056    1.9210 H   0  0  0  0  0  0  0  0  0  0  0  0
   -1.0271   -2.2083    1.1565 H   0  0  0  0  0  0  0  0  0  0  0  0
   -0.9800    0.6072   -0.0771 H   0  0  0  0  0  0  0  0  0  0  0  0
   -1.3627   -0.8379   -1.0433 H   0  0  0  0  0  0  0  0  0  0  0  0
   -3.3037   -1.2657    0.3880 H   0  0  0  0  0  0  0  0  0  0  0  0
   -2.9637    0.1461    1.4136 H   0  0  0  0  0  0  0  0  0  0  0  0
   -3.0306    1.5078   -0.7380 H   0  0  0  0  0  0  0  0  0  0  0  0
   -3.4089   -0.0053   -1.6233 H   0  0  0  0  0  0  0  0  0  0  0  0
   -6.5862    1.9356   -1.1164 H   0  0  0  0  0  0  0  0  0  0  0  0
  1  2  1  0
  2  3  1  0
  3  4  1  0
  4  5  1  0
  5  6  1  0
  6  7  1  0
  7  8  1  0
  8  9  1  0
  9 10  1  0
 10 11  1  0
 10 12  2  0
  1 13  1  0
  1 14  1  0
  1 15  1  0
  2 16  1  0
  2 17  1  0
  3 18  1  0
  3 19  1  0
  4 20  1  0
  4 21  1  0
  5 22  1  0
  5 23  1  0
  6 24  1  0
  6 25  1  0
  7 26  1  0
  7 27  1  0
  8 28  1  0
  8 29  1  0
  9 30  1  0
  9 31  1  0
 11 32  1  0
M  END
$$$$
