
     RDKit          3D

 44 46  0  0  0  0  0  0  0  0999 V2000
    1.4034   -3.9075    0.0898 C   0  0  0  0  0  0  0  0  0  0  0  0
    1.2312   -2.5284   -0.2169 O   0  0  0  0  0  0  0  0  0  0  0  0
    2.2970   -1.6765   -0.3104 C   0  0  0  0  0  0  0  0  0  0  0  0
    3.5795   -2.1856   -0.0959 C   0  0  0  0  0  0  0  0  0  0  0  0
    4.6880   -1.3789   -0.1756 C   0  0  0  0  0  0  0  0  0  0  0  0
    4.5265   -0.0504   -0.4707 C   0  0  0  0  0  0  0  0  0  0  0  0
    5.6698    0.8318   -0.5592 C   0  0  0  0  0  0  0  0  0  0  0  0
    5.5918    2.2926   -0.8269 C   0  0  0  0  0  0  0  0  0  0  0  0
    6.8208    0.3274   -0.3954 O   0  0  0  0  0  0  0  0  0  0  0  0
    3.2482    0.4453   -0.6826 C   0  0  0  0  0  0  0  0  0  0  0  0
    2.1139   -0.3487   -0.6078 C   0  0  0  0  0  0  0  0  0  0  0  0
    0.7533    0.2473   -0.8280 C   0  0  0  0  0  0  0  0  0  0  0  0
    0.0558    0.5135    0.8012 S   0  0  0  0  0  0  0  0  0  0  0  0
   -1.6018    1.1591    0.7679 C   0  0  0  0  0  0  0  0  0  0  0  0
   -1.9596    2.4542    0.7243 N   0  0  0  0  0  0  0  0  0  0  0  0
   -3.3131    2.4894    0.7215 C   0  0  0  0  0  0  0  0  0  0  0  0
   -4.2216    3.5295    0.6903 C   0  0  0  0  0  0  0  0  0  0  0  0
   -5.5804    3.2691    0.7007 C   0  0  0  0  0  0  0  0  0  0  0  0
   -6.5231    4.2432    0.6711 F   0  0  0  0  0  0  0  0  0  0  0  0
   -6.0379    1.9678    0.7430 C   0  0  0  0  0  0  0  0  0  0  0  0
   -5.1654    0.9120    0.7754 C   0  0  0  0  0  0  0  0  0  0  0  0
   -3.8077    1.1811    0.7647 C   0  0  0  0  0  0  0  0  0  0  0  0
   -2.7066    0.3964    0.7919 N   0  0  0  0  0  0  0  0  0  0  0  0
   -2.7011   -1.0466    0.8378 C   0  0  0  0  0  0  0  0  0  0  0  0
   -2.6724   -1.6414   -0.5386 C   0  0  0  0  0  0  0  0  0  0  0  0
   -2.6616   -0.8597   -1.5208 O   0  0  0  0  0  0  0  0  0  0  0  0
   -2.6577   -3.0101   -0.7411 O   0  0  0  0  0  0  0  0  0  0  0  0
    2.0178   -4.3545   -0.7110 H   0  0  0  0  0  0  0  0  0  0  0  0
    0.3881   -4.3840    0.0735 H   0  0  0  0  0  0  0  0  0  0  0  0
    1.9289   -4.0068    1.0406 H   0  0  0  0  0  0  0  0  0  0  0  0
    3.7127   -3.2347    0.1377 H   0  0  0  0  0  0  0  0  0  0  0  0
    5.6781   -1.8341    0.0005 H   0  0  0  0  0  0  0  0  0  0  0  0
    4.6444    2.7484   -0.5129 H   0  0  0  0  0  0  0  0  0  0  0  0
    5.7526    2.5207   -1.9013 H   0  0  0  0  0  0  0  0  0  0  0  0
    6.3945    2.8138   -0.2188 H   0  0  0  0  0  0  0  0  0  0  0  0
    3.1232    1.4933   -0.9178 H   0  0  0  0  0  0  0  0  0  0  0  0
    0.8773    1.1404   -1.4440 H   0  0  0  0  0  0  0  0  0  0  0  0
    0.1700   -0.4928   -1.4272 H   0  0  0  0  0  0  0  0  0  0  0  0
   -3.8797    4.5576    0.6573 H   0  0  0  0  0  0  0  0  0  0  0  0
   -7.1208    1.7622    0.7526 H   0  0  0  0  0  0  0  0  0  0  0  0
   -5.4472   -0.1278    0.8108 H   0  0  0  0  0  0  0  0  0  0  0  0
   -3.5823   -1.4166    1.4018 H   0  0  0  0  0  0  0  0  0  0  0  0
   -1.7933   -1.4234    1.3544 H   0  0  0  0  0  0  0  0  0  0  0  0
   -3.2335   -3.3875   -1.4836 H   0  0  0  0  0  0  0  0  0  0  0  0
  1  2  1  0
  2  3  1  0
  3  4  2  0
  4  5  1  0
  5  6  2  0
  6  7  1  0
  7  8  1  0
  7  9  2  0
  6 10  1  0
 10 11  2  0
 11 12  1  0
 12 13  1  0
 13 14  1  0
 14 15  2  0
 15 16  1  0
 16 17  2  0
 17 18  1  0
 18 19  1  0
 18 20  2  0
 20 21  1  0
 21 22  2  0
 22 23  1  0
 23 24  1  0
 24 25  1  0
 25 26  2  0
 25 27  1  0
 11  3  1  0
 23 14  1  0
 22 16  1  0
  1 28  1  0
  1 29  1  0
  1 30  1  0
  4 31  1  0
  5 32  1  0
  8 33  1  0
  8 34  1  0
  8 35  1  0
 10 36  1  0
 12 37  1  0
 12 38  1  0
 17 39  1  0
 20 40  1  0
 21 41  1  0
 24 42  1  0
 24 43  1  0
 27 44  1  0
M  END
$$$$
