@<TRIPOS>MOLECULE
*****
 44 46 0 0 0
SMALL
GASTEIGER

@<TRIPOS>ATOM
      1 C           1.4034   -3.9075    0.0898 C.3     1  UNL1        0.0788
      2 O           1.2312   -2.5284   -0.2169 O.3     1  UNL1       -0.4948
      3 C           2.2970   -1.6765   -0.3104 C.ar    1  UNL1        0.1241
      4 C           3.5795   -2.1856   -0.0959 C.ar    1  UNL1       -0.0190
      5 C           4.6880   -1.3789   -0.1756 C.ar    1  UNL1       -0.0478
      6 C           4.5265   -0.0504   -0.4707 C.ar    1  UNL1        0.0176
      7 C           5.6698    0.8318   -0.5592 C.2     1  UNL1        0.1601
      8 C           5.5918    2.2926   -0.8269 C.3     1  UNL1       -0.0014
      9 O           6.8208    0.3274   -0.3954 O.2     1  UNL1       -0.2924
     10 C           3.2482    0.4453   -0.6826 C.ar    1  UNL1       -0.0438
     11 C           2.1139   -0.3487   -0.6078 C.ar    1  UNL1        0.0051
     12 C           0.7533    0.2473   -0.8280 C.3     1  UNL1        0.0297
     13 S           0.0558    0.5135    0.8012 S.3     1  UNL1       -0.0828
     14 C          -1.6018    1.1591    0.7679 C.ar    1  UNL1        0.1707
     15 N          -1.9596    2.4542    0.7243 N.ar    1  UNL1       -0.2217
     16 C          -3.3131    2.4894    0.7215 C.ar    1  UNL1        0.0929
     17 C          -4.2216    3.5295    0.6903 C.ar    1  UNL1        0.0011
     18 C          -5.5804    3.2691    0.7007 C.ar    1  UNL1        0.1255
     19 F          -6.5231    4.2432    0.6711 F       1  UNL1       -0.2054
     20 C          -6.0379    1.9678    0.7430 C.ar    1  UNL1       -0.0244
     21 C          -5.1654    0.9120    0.7754 C.ar    1  UNL1       -0.0333
     22 C          -3.8077    1.1811    0.7647 C.ar    1  UNL1        0.0701
     23 N          -2.7066    0.3964    0.7919 N.ar    1  UNL1       -0.3078
     24 C          -2.7011   -1.0466    0.8378 C.3     1  UNL1        0.1226
     25 C          -2.6724   -1.6414   -0.5386 C.2     1  UNL1        0.3248
     26 O          -2.6616   -0.8597   -1.5208 O.2     1  UNL1       -0.2490
     27 O          -2.6577   -3.0101   -0.7411 O.3     1  UNL1       -0.4794
     28 H           2.0178   -4.3545   -0.7110 H       1  UNL1        0.0660
     29 H           0.3881   -4.3840    0.0735 H       1  UNL1        0.0660
     30 H           1.9289   -4.0068    1.0406 H       1  UNL1        0.0660
     31 H           3.7127   -3.2347    0.1377 H       1  UNL1        0.0654
     32 H           5.6781   -1.8341    0.0005 H       1  UNL1        0.0626
     33 H           4.6444    2.7484   -0.5129 H       1  UNL1        0.0309
     34 H           5.7526    2.5207   -1.9013 H       1  UNL1        0.0309
     35 H           6.3945    2.8138   -0.2188 H       1  UNL1        0.0309
     36 H           3.1232    1.4933   -0.9178 H       1  UNL1        0.0629
     37 H           0.8773    1.1404   -1.4440 H       1  UNL1        0.0430
     38 H           0.1700   -0.4928   -1.4272 H       1  UNL1        0.0430
     39 H          -3.8797    4.5576    0.6573 H       1  UNL1        0.0668
     40 H          -7.1208    1.7622    0.7526 H       1  UNL1        0.0647
     41 H          -5.4472   -0.1278    0.8108 H       1  UNL1        0.0640
     42 H          -3.5823   -1.4166    1.4018 H       1  UNL1        0.0608
     43 H          -1.7933   -1.4234    1.3544 H       1  UNL1        0.0608
     44 H          -3.2335   -3.3875   -1.4836 H       1  UNL1        0.2951
@<TRIPOS>BOND
     1     1     2    1
     2     2     3    1
     3     3     4   ar
     4     4     5   ar
     5     5     6   ar
     6     6     7    1
     7     7     8    1
     8     7     9    2
     9     6    10   ar
    10    10    11   ar
    11    11    12    1
    12    12    13    1
    13    13    14    1
    14    14    15   ar
    15    15    16   ar
    16    16    17   ar
    17    17    18   ar
    18    18    19    1
    19    18    20   ar
    20    20    21   ar
    21    21    22   ar
    22    22    23   ar
    23    23    24    1
    24    24    25    1
    25    25    26    2
    26    25    27    1
    27    11     3   ar
    28    23    14   ar
    29    22    16   ar
    30     1    28    1
    31     1    29    1
    32     1    30    1
    33     4    31    1
    34     5    32    1
    35     8    33    1
    36     8    34    1
    37     8    35    1
    38    10    36    1
    39    12    37    1
    40    12    38    1
    41    17    39    1
    42    20    40    1
    43    21    41    1
    44    24    42    1
    45    24    43    1
    46    27    44    1
