@<TRIPOS>MOLECULE
*****
 38 41 0 0 0
SMALL
GASTEIGER

@<TRIPOS>ATOM
      1 O          -3.2109   -2.1733    1.1342 O.2     1  UNL1       -0.2700
      2 C          -2.8488   -1.0587    0.4922 C.2     1  UNL1        0.2470
      3 C          -3.9414   -0.2056    0.1391 C.ar    1  UNL1        0.0369
      4 C          -3.8455    0.7869   -0.7926 C.ar    1  UNL1       -0.0496
      5 C          -4.9615    1.5855   -1.0997 C.ar    1  UNL1       -0.0610
      6 C          -6.1717    1.4034   -0.4864 C.ar    1  UNL1       -0.0617
      7 C          -6.2641    0.4016    0.4513 C.ar    1  UNL1       -0.0610
      8 C          -5.1957   -0.3829    0.7639 C.ar    1  UNL1       -0.0496
      9 N          -1.4668   -0.9876    0.3195 N.am    1  UNL1       -0.2912
     10 C          -0.6862   -2.1179    0.8753 C.3     1  UNL1        0.0223
     11 C           0.4177   -2.5047   -0.0974 C.3     1  UNL1        0.0233
     12 C           1.3182   -1.2911   -0.1358 C.ar    1  UNL1        0.1319
     13 O           2.5958   -1.0721   -0.0928 O.2     1  UNL1       -0.4387
     14 C           2.8747    0.2274   -0.1598 C.ar    1  UNL1        0.2465
     15 C           4.2370    0.7615   -0.1326 C.ar    1  UNL1        0.1257
     16 C           5.3309   -0.0770    0.0072 C.ar    1  UNL1       -0.0283
     17 C           6.6175    0.4024    0.0239 C.ar    1  UNL1       -0.0228
     18 C           6.8152    1.7546   -0.1024 C.ar    1  UNL1        0.1414
     19 F           8.0648    2.2584   -0.0926 F       1  UNL1       -0.2039
     20 C           5.6952    2.5818   -0.2436 C.ar    1  UNL1        0.0636
     21 N           4.4460    2.0808   -0.2569 N.ar    1  UNL1       -0.2474
     22 N           1.6957    0.8483   -0.2517 N.ar    1  UNL1       -0.2108
     23 C           0.7123   -0.0485   -0.2396 C.ar    1  UNL1        0.1003
     24 C          -0.7844    0.0621   -0.3373 C.3     1  UNL1        0.0605
     25 H          -2.9358    0.9803   -1.3189 H       1  UNL1        0.0625
     26 H          -4.8201    2.3642   -1.8521 H       1  UNL1        0.0618
     27 H          -7.0293    1.9982   -0.7103 H       1  UNL1        0.0618
     28 H          -7.1924    0.2208    0.9588 H       1  UNL1        0.0618
     29 H          -5.2970   -1.1533    1.5040 H       1  UNL1        0.0625
     30 H          -0.2370   -1.8688    1.8427 H       1  UNL1        0.0469
     31 H          -1.3517   -3.0143    0.9201 H       1  UNL1        0.0469
     32 H           0.9482   -3.3875    0.3006 H       1  UNL1        0.0359
     33 H           0.0242   -2.7406   -1.0863 H       1  UNL1        0.0359
     34 H           5.1625   -1.1289    0.1061 H       1  UNL1        0.0641
     35 H           7.4277   -0.2939    0.1364 H       1  UNL1        0.0647
     36 H           5.8956    3.6418   -0.3418 H       1  UNL1        0.0859
     37 H          -1.0820    1.0860    0.0026 H       1  UNL1        0.0530
     38 H          -0.9572    0.0608   -1.4659 H       1  UNL1        0.0530
@<TRIPOS>BOND
     1     1     2    2
     2     2     3    1
     3     3     4   ar
     4     4     5   ar
     5     5     6   ar
     6     6     7   ar
     7     7     8   ar
     8     2     9   am
     9     9    10    1
    10    10    11    1
    11    11    12    1
    12    12    13   ar
    13    13    14   ar
    14    14    15    1
    15    15    16   ar
    16    16    17   ar
    17    17    18   ar
    18    18    19    1
    19    18    20   ar
    20    20    21   ar
    21    14    22   ar
    22    22    23   ar
    23    23    24    1
    24     8     3   ar
    25    24     9    1
    26    23    12   ar
    27    21    15   ar
    28     4    25    1
    29     5    26    1
    30     6    27    1
    31     7    28    1
    32     8    29    1
    33    10    30    1
    34    10    31    1
    35    11    32    1
    36    11    33    1
    37    16    34    1
    38    17    35    1
    39    20    36    1
    40    24    37    1
    41    24    38    1
