
     RDKit          3D

 64 68  0  0  0  0  0  0  0  0999 V2000
   -4.1536    1.1710   -0.7386 C   0  0  2  0  0  0  0  0  0  0  0  0
   -4.2533    1.8764   -2.0683 C   0  0  0  0  0  0  0  0  0  0  0  0
   -3.8651    2.2001    0.2968 C   0  0  0  0  0  0  0  0  0  0  0  0
   -4.8793    3.1322    0.3677 C   0  0  0  0  0  0  0  0  0  0  0  0
   -4.8257    4.1968    1.2734 C   0  0  0  0  0  0  0  0  0  0  0  0
   -5.8157    5.1641    1.3895 O   0  0  0  0  0  0  0  0  0  0  0  0
   -3.7076    4.2607    2.0864 C   0  0  0  0  0  0  0  0  0  0  0  0
   -2.6987    3.3452    2.0253 C   0  0  0  0  0  0  0  0  0  0  0  0
   -2.7582    2.2818    1.1168 C   0  0  0  0  0  0  0  0  0  0  0  0
   -1.8420    1.2618    0.9078 O   0  0  0  0  0  0  0  0  0  0  0  0
   -1.7828    0.6955   -0.3946 C   0  0  1  0  0  0  0  0  0  0  0  0
   -0.6071   -0.1669   -0.5132 C   0  0  0  0  0  0  0  0  0  0  0  0
   -0.4473   -1.4098   -1.0829 C   0  0  0  0  0  0  0  0  0  0  0  0
    0.8041   -2.0364   -1.0583 C   0  0  0  0  0  0  0  0  0  0  0  0
    1.9222   -1.4344   -0.4643 C   0  0  0  0  0  0  0  0  0  0  0  0
    2.9664   -2.2842   -0.6037 O   0  0  0  0  0  0  0  0  0  0  0  0
    4.2858   -2.2022   -0.2232 C   0  0  0  0  0  0  0  0  0  0  0  0
    5.0730   -1.0917   -0.8295 C   0  0  0  0  0  0  0  0  0  0  0  0
    6.4525   -1.0746   -0.3796 N   0  0  0  0  0  0  0  0  0  0  0  0
    6.6145   -0.7333    1.0005 C   0  0  0  0  0  0  0  0  0  0  0  0
    7.9318   -0.0109    1.1386 C   0  0  0  0  0  0  0  0  0  0  0  0
    8.4548    0.1833   -0.2648 C   0  0  0  0  0  0  0  0  0  0  0  0
    7.2905   -0.1914   -1.1517 C   0  0  0  0  0  0  0  0  0  0  0  0
    1.7410   -0.1943    0.0984 C   0  0  0  0  0  0  0  0  0  0  0  0
    0.5092    0.4224    0.0741 C   0  0  0  0  0  0  0  0  0  0  0  0
   -3.0754    0.1113   -0.8277 C   0  0  1  0  0  0  0  0  0  0  0  0
   -3.5540   -1.0627   -0.1003 C   0  0  0  0  0  0  0  0  0  0  0  0
   -4.0842   -2.1737   -0.7733 C   0  0  0  0  0  0  0  0  0  0  0  0
   -4.5689   -3.3452   -0.2295 C   0  0  0  0  0  0  0  0  0  0  0  0
   -4.5060   -3.3873    1.1456 C   0  0  0  0  0  0  0  0  0  0  0  0
   -4.9842   -4.5539    1.7614 O   0  0  0  0  0  0  0  0  0  0  0  0
   -4.0137   -2.3751    1.9123 C   0  0  0  0  0  0  0  0  0  0  0  0
   -3.5473   -1.2321    1.2723 C   0  0  0  0  0  0  0  0  0  0  0  0
   -5.1229    0.6924   -0.5390 H   0  0  0  0  0  0  0  0  0  0  0  0
   -5.2832    2.2134   -2.2840 H   0  0  0  0  0  0  0  0  0  0  0  0
   -4.0126    1.1116   -2.8490 H   0  0  0  0  0  0  0  0  0  0  0  0
   -3.5088    2.6868   -2.2012 H   0  0  0  0  0  0  0  0  0  0  0  0
   -5.7910    3.1573   -0.2321 H   0  0  0  0  0  0  0  0  0  0  0  0
   -6.7753    4.9431    1.6717 H   0  0  0  0  0  0  0  0  0  0  0  0
   -3.5517    5.0338    2.8238 H   0  0  0  0  0  0  0  0  0  0  0  0
   -1.7951    3.3218    2.6213 H   0  0  0  0  0  0  0  0  0  0  0  0
   -1.5914    1.5685   -1.0901 H   0  0  0  0  0  0  0  0  0  0  0  0
   -1.3504   -1.7926   -1.5166 H   0  0  0  0  0  0  0  0  0  0  0  0
    0.7111   -3.0057   -1.5603 H   0  0  0  0  0  0  0  0  0  0  0  0
    4.3103   -2.0791    0.9048 H   0  0  0  0  0  0  0  0  0  0  0  0
    4.7491   -3.2027   -0.3878 H   0  0  0  0  0  0  0  0  0  0  0  0
    5.0923   -1.2369   -1.9294 H   0  0  0  0  0  0  0  0  0  0  0  0
    4.6458   -0.1179   -0.6163 H   0  0  0  0  0  0  0  0  0  0  0  0
    5.8037   -0.0098    1.2823 H   0  0  0  0  0  0  0  0  0  0  0  0
    6.5070   -1.5906    1.6921 H   0  0  0  0  0  0  0  0  0  0  0  0
    8.6560   -0.5853    1.7859 H   0  0  0  0  0  0  0  0  0  0  0  0
    7.8336    0.9840    1.6165 H   0  0  0  0  0  0  0  0  0  0  0  0
    8.7693    1.2298   -0.4544 H   0  0  0  0  0  0  0  0  0  0  0  0
    9.3626   -0.4532   -0.4632 H   0  0  0  0  0  0  0  0  0  0  0  0
    7.5959   -0.6121   -2.1249 H   0  0  0  0  0  0  0  0  0  0  0  0
    6.6877    0.7240   -1.3481 H   0  0  0  0  0  0  0  0  0  0  0  0
    2.6410    0.1893    0.5358 H   0  0  0  0  0  0  0  0  0  0  0  0
    0.5574    1.3981    0.5673 H   0  0  0  0  0  0  0  0  0  0  0  0
   -3.0217   -0.1669   -1.9040 H   0  0  0  0  0  0  0  0  0  0  0  0
   -4.1087   -2.0812   -1.8686 H   0  0  0  0  0  0  0  0  0  0  0  0
   -4.9438   -4.1056   -0.8902 H   0  0  0  0  0  0  0  0  0  0  0  0
   -6.0012   -4.6706    1.8070 H   0  0  0  0  0  0  0  0  0  0  0  0
   -3.9744   -2.4312    2.9874 H   0  0  0  0  0  0  0  0  0  0  0  0
   -3.1664   -0.4551    1.8858 H   0  0  0  0  0  0  0  0  0  0  0  0
  1  2  1  0
  1  3  1  0
  3  4  2  0
  4  5  1  0
  5  6  1  0
  5  7  2  0
  7  8  1  0
  8  9  2  0
  9 10  1  0
 10 11  1  0
 11 12  1  0
 12 13  2  0
 13 14  1  0
 14 15  2  0
 15 16  1  0
 16 17  1  0
 17 18  1  0
 18 19  1  0
 19 20  1  0
 20 21  1  0
 21 22  1  0
 22 23  1  0
 15 24  1  0
 24 25  2  0
 11 26  1  0
 26 27  1  0
 27 28  2  0
 28 29  1  0
 29 30  2  0
 30 31  1  0
 30 32  1  0
 32 33  2  0
 26  1  1  0
 33 27  1  0
  9  3  1  0
 25 12  1  0
 23 19  1  0
  1 34  1  1
  2 35  1  0
  2 36  1  0
  2 37  1  0
  4 38  1  0
  6 39  1  0
  7 40  1  0
  8 41  1  0
 11 42  1  6
 13 43  1  0
 14 44  1  0
 17 45  1  0
 17 46  1  0
 18 47  1  0
 18 48  1  0
 20 49  1  0
 20 50  1  0
 21 51  1  0
 21 52  1  0
 22 53  1  0
 22 54  1  0
 23 55  1  0
 23 56  1  0
 24 57  1  0
 25 58  1  0
 26 59  1  6
 28 60  1  0
 29 61  1  0
 31 62  1  0
 32 63  1  0
 33 64  1  0
M  END
$$$$
