@<TRIPOS>MOLECULE
*****
 70 73 0 0 0
SMALL
GASTEIGER

@<TRIPOS>ATOM
      1 C          -7.3347    3.9649   -2.1985 C.3     1  UNL1       -0.0652
      2 C          -5.8669    3.7592   -2.0247 C.3     1  UNL1       -0.0545
      3 C          -5.3679    4.0318   -0.6332 C.3     1  UNL1       -0.0376
      4 C          -6.0285    3.1360    0.3917 C.3     1  UNL1        0.0118
      5 N          -5.8217    1.7420    0.1816 N.pl3   1  UNL1       -0.3134
      6 C          -4.4793    1.1966    0.1993 C.ar    1  UNL1        0.2169
      7 N          -3.4309    1.9821    0.4063 N.ar    1  UNL1       -0.2221
      8 C          -2.2129    1.4967    0.4271 C.ar    1  UNL1        0.0466
      9 C          -1.9731    0.1265    0.2302 C.ar    1  UNL1        0.0948
     10 C          -0.5863   -0.2845    0.3006 C.2     1  UNL1        0.2530
     11 O          -0.1396   -1.4184    0.4636 O.2     1  UNL1       -0.2697
     12 N           0.4461    0.7074    0.1631 N.am    1  UNL1       -0.2814
     13 C           1.8172    0.2606    0.2402 C.ar    1  UNL1        0.0338
     14 C           2.4628    0.2362    1.4689 C.ar    1  UNL1       -0.0386
     15 C           3.7705   -0.1913    1.5706 C.ar    1  UNL1       -0.0336
     16 C           4.4469   -0.5992    0.4437 C.ar    1  UNL1        0.1056
     17 S           6.1242   -1.1552    0.5391 S.O2    1  UNL1        0.0610
     18 O           6.3184   -1.7264    1.9271 O.2     1  UNL1       -0.1528
     19 O           6.4249   -2.2023   -0.4703 O.2     1  UNL1       -0.1528
     20 N           7.1354    0.1881    0.3072 N.3     1  UNL1       -0.1722
     21 C           7.0095    1.2277    1.2774 C.3     1  UNL1        0.0440
     22 C           7.6457    2.4820    0.6632 C.3     1  UNL1        0.0621
     23 O           8.9865    2.1873    0.4571 O.3     1  UNL1       -0.3771
     24 C           9.1876    1.1418   -0.4279 C.3     1  UNL1        0.0621
     25 C           8.5154   -0.1476    0.0577 C.3     1  UNL1        0.0440
     26 C           3.7773   -0.5623   -0.7595 C.ar    1  UNL1       -0.0336
     27 C           2.4721   -0.1422   -0.9024 C.ar    1  UNL1       -0.0386
     28 C          -3.0147   -0.6953    0.0185 C.ar    1  UNL1        0.1363
     29 N          -3.0222   -2.0809   -0.1813 N.pl3   1  UNL1       -0.3253
     30 C          -2.1731   -3.1903   -0.1567 C.3     1  UNL1        0.0261
     31 C          -1.8201   -3.6495    1.2472 C.3     1  UNL1       -0.0109
     32 C          -2.7980   -4.6960    1.7597 C.3     1  UNL1        0.0493
     33 O          -4.0846   -4.4259    1.2748 O.3     1  UNL1       -0.3796
     34 C          -4.1478   -4.6853   -0.0960 C.3     1  UNL1        0.0493
     35 C          -2.8619   -4.4247   -0.7961 C.3     1  UNL1       -0.0109
     36 N          -4.2661   -0.0880    0.0144 N.ar    1  UNL1       -0.1990
     37 H          -7.8966    4.1253   -1.2656 H       1  UNL1        0.0230
     38 H          -7.5012    4.8356   -2.8942 H       1  UNL1        0.0230
     39 H          -7.7450    3.0863   -2.7590 H       1  UNL1        0.0230
     40 H          -5.2987    4.4131   -2.7180 H       1  UNL1        0.0263
     41 H          -5.5747    2.7185   -2.2780 H       1  UNL1        0.0263
     42 H          -4.2720    3.9406   -0.6345 H       1  UNL1        0.0280
     43 H          -5.6598    5.0805   -0.3486 H       1  UNL1        0.0280
     44 H          -7.1159    3.3312    0.4386 H       1  UNL1        0.0462
     45 H          -5.6359    3.3714    1.4225 H       1  UNL1        0.0462
     46 H          -6.5904    1.0805    0.0133 H       1  UNL1        0.1489
     47 H          -1.3937    2.1836    0.6155 H       1  UNL1        0.0839
     48 H           0.2784    1.7000    0.0028 H       1  UNL1        0.1551
     49 H           1.8980    0.5629    2.3177 H       1  UNL1        0.0637
     50 H           4.2855   -0.2143    2.5255 H       1  UNL1        0.0638
     51 H           7.5316    1.0254    2.2369 H       1  UNL1        0.0466
     52 H           5.9404    1.4006    1.5092 H       1  UNL1        0.0466
     53 H           7.5842    3.3448    1.3262 H       1  UNL1        0.0573
     54 H           7.1017    2.6975   -0.2922 H       1  UNL1        0.0573
     55 H          10.2741    1.0041   -0.5409 H       1  UNL1        0.0573
     56 H           8.6983    1.3720   -1.4005 H       1  UNL1        0.0573
     57 H           8.5475   -0.8781   -0.7576 H       1  UNL1        0.0466
     58 H           9.0664   -0.4601    0.9601 H       1  UNL1        0.0466
     59 H           4.3155   -0.8879   -1.6617 H       1  UNL1        0.0638
     60 H           1.9841   -0.1321   -1.8850 H       1  UNL1        0.0637
     61 H          -4.0631   -2.4139   -0.4783 H       1  UNL1        0.1478
     62 H          -1.2712   -3.0648   -0.8174 H       1  UNL1        0.0499
     63 H          -0.8223   -4.1242    1.2195 H       1  UNL1        0.0305
     64 H          -1.8529   -2.8260    1.9923 H       1  UNL1        0.0305
     65 H          -2.8046   -4.6405    2.8612 H       1  UNL1        0.0560
     66 H          -2.4916   -5.7241    1.4745 H       1  UNL1        0.0560
     67 H          -5.0052   -4.1304   -0.5184 H       1  UNL1        0.0560
     68 H          -4.4450   -5.7722   -0.2402 H       1  UNL1        0.0560
     69 H          -3.0182   -4.2354   -1.8797 H       1  UNL1        0.0305
     70 H          -2.1575   -5.2714   -0.7010 H       1  UNL1        0.0305
@<TRIPOS>BOND
     1     1     2    1
     2     2     3    1
     3     3     4    1
     4     4     5    1
     5     5     6    1
     6     6     7   ar
     7     7     8   ar
     8     8     9   ar
     9     9    10    1
    10    10    11    2
    11    10    12   am
    12    12    13    1
    13    13    14   ar
    14    14    15   ar
    15    15    16   ar
    16    16    17    1
    17    17    18    2
    18    17    19    2
    19    17    20    1
    20    20    21    1
    21    21    22    1
    22    22    23    1
    23    23    24    1
    24    24    25    1
    25    16    26   ar
    26    26    27   ar
    27     9    28   ar
    28    28    29    1
    29    29    30    1
    30    30    31    1
    31    31    32    1
    32    32    33    1
    33    33    34    1
    34    34    35    1
    35    28    36   ar
    36    36     6   ar
    37    27    13   ar
    38    35    30    1
    39    25    20    1
    40     1    37    1
    41     1    38    1
    42     1    39    1
    43     2    40    1
    44     2    41    1
    45     3    42    1
    46     3    43    1
    47     4    44    1
    48     4    45    1
    49     5    46    1
    50     8    47    1
    51    12    48    1
    52    14    49    1
    53    15    50    1
    54    21    51    1
    55    21    52    1
    56    22    53    1
    57    22    54    1
    58    24    55    1
    59    24    56    1
    60    25    57    1
    61    25    58    1
    62    26    59    1
    63    27    60    1
    64    29    61    1
    65    30    62    1
    66    31    63    1
    67    31    64    1
    68    32    65    1
    69    32    66    1
    70    34    67    1
    71    34    68    1
    72    35    69    1
    73    35    70    1
