
     RDKit          3D

 70 73  0  0  0  0  0  0  0  0999 V2000
   -7.3347    3.9649   -2.1985 C   0  0  0  0  0  0  0  0  0  0  0  0
   -5.8669    3.7592   -2.0247 C   0  0  0  0  0  0  0  0  0  0  0  0
   -5.3679    4.0318   -0.6332 C   0  0  0  0  0  0  0  0  0  0  0  0
   -6.0285    3.1360    0.3917 C   0  0  0  0  0  0  0  0  0  0  0  0
   -5.8217    1.7420    0.1816 N   0  0  0  0  0  0  0  0  0  0  0  0
   -4.4793    1.1966    0.1993 C   0  0  0  0  0  0  0  0  0  0  0  0
   -3.4309    1.9821    0.4063 N   0  0  0  0  0  0  0  0  0  0  0  0
   -2.2129    1.4967    0.4271 C   0  0  0  0  0  0  0  0  0  0  0  0
   -1.9731    0.1265    0.2302 C   0  0  0  0  0  0  0  0  0  0  0  0
   -0.5863   -0.2845    0.3006 C   0  0  0  0  0  0  0  0  0  0  0  0
   -0.1396   -1.4184    0.4636 O   0  0  0  0  0  0  0  0  0  0  0  0
    0.4461    0.7074    0.1631 N   0  0  0  0  0  0  0  0  0  0  0  0
    1.8172    0.2606    0.2402 C   0  0  0  0  0  0  0  0  0  0  0  0
    2.4628    0.2362    1.4689 C   0  0  0  0  0  0  0  0  0  0  0  0
    3.7705   -0.1913    1.5706 C   0  0  0  0  0  0  0  0  0  0  0  0
    4.4469   -0.5992    0.4437 C   0  0  0  0  0  0  0  0  0  0  0  0
    6.1242   -1.1552    0.5391 S   0  0  0  0  0  6  0  0  0  0  0  0
    6.3184   -1.7264    1.9271 O   0  0  0  0  0  0  0  0  0  0  0  0
    6.4249   -2.2023   -0.4703 O   0  0  0  0  0  0  0  0  0  0  0  0
    7.1354    0.1881    0.3072 N   0  0  0  0  0  0  0  0  0  0  0  0
    7.0095    1.2277    1.2774 C   0  0  0  0  0  0  0  0  0  0  0  0
    7.6457    2.4820    0.6632 C   0  0  0  0  0  0  0  0  0  0  0  0
    8.9865    2.1873    0.4571 O   0  0  0  0  0  0  0  0  0  0  0  0
    9.1876    1.1418   -0.4279 C   0  0  0  0  0  0  0  0  0  0  0  0
    8.5154   -0.1476    0.0577 C   0  0  0  0  0  0  0  0  0  0  0  0
    3.7773   -0.5623   -0.7595 C   0  0  0  0  0  0  0  0  0  0  0  0
    2.4721   -0.1422   -0.9024 C   0  0  0  0  0  0  0  0  0  0  0  0
   -3.0147   -0.6953    0.0185 C   0  0  0  0  0  0  0  0  0  0  0  0
   -3.0222   -2.0809   -0.1813 N   0  0  0  0  0  0  0  0  0  0  0  0
   -2.1731   -3.1903   -0.1567 C   0  0  0  0  0  0  0  0  0  0  0  0
   -1.8201   -3.6495    1.2472 C   0  0  0  0  0  0  0  0  0  0  0  0
   -2.7980   -4.6960    1.7597 C   0  0  0  0  0  0  0  0  0  0  0  0
   -4.0846   -4.4259    1.2748 O   0  0  0  0  0  0  0  0  0  0  0  0
   -4.1478   -4.6853   -0.0960 C   0  0  0  0  0  0  0  0  0  0  0  0
   -2.8619   -4.4247   -0.7961 C   0  0  0  0  0  0  0  0  0  0  0  0
   -4.2661   -0.0880    0.0144 N   0  0  0  0  0  0  0  0  0  0  0  0
   -7.8966    4.1253   -1.2656 H   0  0  0  0  0  0  0  0  0  0  0  0
   -7.5012    4.8356   -2.8942 H   0  0  0  0  0  0  0  0  0  0  0  0
   -7.7450    3.0863   -2.7590 H   0  0  0  0  0  0  0  0  0  0  0  0
   -5.2987    4.4131   -2.7180 H   0  0  0  0  0  0  0  0  0  0  0  0
   -5.5747    2.7185   -2.2780 H   0  0  0  0  0  0  0  0  0  0  0  0
   -4.2720    3.9406   -0.6345 H   0  0  0  0  0  0  0  0  0  0  0  0
   -5.6598    5.0805   -0.3486 H   0  0  0  0  0  0  0  0  0  0  0  0
   -7.1159    3.3312    0.4386 H   0  0  0  0  0  0  0  0  0  0  0  0
   -5.6359    3.3714    1.4225 H   0  0  0  0  0  0  0  0  0  0  0  0
   -6.5904    1.0805    0.0133 H   0  0  0  0  0  0  0  0  0  0  0  0
   -1.3937    2.1836    0.6155 H   0  0  0  0  0  0  0  0  0  0  0  0
    0.2784    1.7000    0.0028 H   0  0  0  0  0  0  0  0  0  0  0  0
    1.8980    0.5629    2.3177 H   0  0  0  0  0  0  0  0  0  0  0  0
    4.2855   -0.2143    2.5255 H   0  0  0  0  0  0  0  0  0  0  0  0
    7.5316    1.0254    2.2369 H   0  0  0  0  0  0  0  0  0  0  0  0
    5.9404    1.4006    1.5092 H   0  0  0  0  0  0  0  0  0  0  0  0
    7.5842    3.3448    1.3262 H   0  0  0  0  0  0  0  0  0  0  0  0
    7.1017    2.6975   -0.2922 H   0  0  0  0  0  0  0  0  0  0  0  0
   10.2741    1.0041   -0.5409 H   0  0  0  0  0  0  0  0  0  0  0  0
    8.6983    1.3720   -1.4005 H   0  0  0  0  0  0  0  0  0  0  0  0
    8.5475   -0.8781   -0.7576 H   0  0  0  0  0  0  0  0  0  0  0  0
    9.0664   -0.4601    0.9601 H   0  0  0  0  0  0  0  0  0  0  0  0
    4.3155   -0.8879   -1.6617 H   0  0  0  0  0  0  0  0  0  0  0  0
    1.9841   -0.1321   -1.8850 H   0  0  0  0  0  0  0  0  0  0  0  0
   -4.0631   -2.4139   -0.4783 H   0  0  0  0  0  0  0  0  0  0  0  0
   -1.2712   -3.0648   -0.8174 H   0  0  0  0  0  0  0  0  0  0  0  0
   -0.8223   -4.1242    1.2195 H   0  0  0  0  0  0  0  0  0  0  0  0
   -1.8529   -2.8260    1.9923 H   0  0  0  0  0  0  0  0  0  0  0  0
   -2.8046   -4.6405    2.8612 H   0  0  0  0  0  0  0  0  0  0  0  0
   -2.4916   -5.7241    1.4745 H   0  0  0  0  0  0  0  0  0  0  0  0
   -5.0052   -4.1304   -0.5184 H   0  0  0  0  0  0  0  0  0  0  0  0
   -4.4450   -5.7722   -0.2402 H   0  0  0  0  0  0  0  0  0  0  0  0
   -3.0182   -4.2354   -1.8797 H   0  0  0  0  0  0  0  0  0  0  0  0
   -2.1575   -5.2714   -0.7010 H   0  0  0  0  0  0  0  0  0  0  0  0
  1  2  1  0
  2  3  1  0
  3  4  1  0
  4  5  1  0
  5  6  1  0
  6  7  2  0
  7  8  1  0
  8  9  2  0
  9 10  1  0
 10 11  2  0
 10 12  1  0
 12 13  1  0
 13 14  2  0
 14 15  1  0
 15 16  2  0
 16 17  1  0
 17 18  2  0
 17 19  2  0
 17 20  1  0
 20 21  1  0
 21 22  1  0
 22 23  1  0
 23 24  1  0
 24 25  1  0
 16 26  1  0
 26 27  2  0
  9 28  1  0
 28 29  1  0
 29 30  1  0
 30 31  1  0
 31 32  1  0
 32 33  1  0
 33 34  1  0
 34 35  1  0
 28 36  2  0
 36  6  1  0
 27 13  1  0
 35 30  1  0
 25 20  1  0
  1 37  1  0
  1 38  1  0
  1 39  1  0
  2 40  1  0
  2 41  1  0
  3 42  1  0
  3 43  1  0
  4 44  1  0
  4 45  1  0
  5 46  1  0
  8 47  1  0
 12 48  1  0
 14 49  1  0
 15 50  1  0
 21 51  1  0
 21 52  1  0
 22 53  1  0
 22 54  1  0
 24 55  1  0
 24 56  1  0
 25 57  1  0
 25 58  1  0
 26 59  1  0
 27 60  1  0
 29 61  1  0
 30 62  1  0
 31 63  1  0
 31 64  1  0
 32 65  1  0
 32 66  1  0
 34 67  1  0
 34 68  1  0
 35 69  1  0
 35 70  1  0
M  END
$$$$
