@<TRIPOS>MOLECULE
*****
 44 47 0 0 0
SMALL
GASTEIGER

@<TRIPOS>ATOM
      1 C           7.9578   -0.2289    0.2652 C.3     1  UNL1       -0.0176
      2 C           6.4913   -0.0135    0.1253 C.ar    1  UNL1        0.1009
      3 N           5.5291   -0.8821    0.5215 N.ar    1  UNL1       -0.0798
      4 O           4.3856   -0.3740    0.2470 O.2     1  UNL1       -0.3364
      5 C           4.4449    0.7872   -0.3132 C.ar    1  UNL1        0.2554
      6 N           3.4053    1.6482   -0.7559 N.pl3   1  UNL1       -0.1821
      7 S           1.7469    1.1464   -0.5551 S.O2    1  UNL1        0.0758
      8 O           0.8164    2.2425   -0.9753 O.2     1  UNL1       -0.1499
      9 O           1.5730    0.9616    0.9335 O.2     1  UNL1       -0.1499
     10 C           1.4090   -0.3246   -1.4459 C.ar    1  UNL1        0.1261
     11 C           0.1466   -0.9074   -1.4161 C.ar    1  UNL1        0.0814
     12 S           0.2728   -2.3288   -2.4371 S.2     1  UNL1       -0.0918
     13 C           1.9826   -2.1306   -2.8841 C.ar    1  UNL1       -0.0217
     14 C           2.3586   -0.9586   -2.2060 C.ar    1  UNL1       -0.0273
     15 C          -1.0146   -0.4574   -0.7065 C.2     1  UNL1        0.1759
     16 O          -0.9599    0.5635   -0.0146 O.2     1  UNL1       -0.2911
     17 C          -2.2575   -1.2564   -0.8385 C.3     1  UNL1        0.0366
     18 C          -3.3784   -0.7016   -0.0775 C.ar    1  UNL1       -0.0333
     19 C          -3.7967   -1.2543    1.1245 C.ar    1  UNL1       -0.0123
     20 C          -4.8644   -0.7222    1.8436 C.ar    1  UNL1        0.1665
     21 C          -5.5170    0.3940    1.3266 C.ar    1  UNL1        0.1665
     22 O          -6.5573    0.7823    2.1843 O.3     1  UNL1       -0.4526
     23 C          -6.2450    0.1908    3.4387 C.3     1  UNL1        0.2332
     24 O          -5.5406   -0.9837    3.0227 O.3     1  UNL1       -0.4526
     25 C          -5.0868    0.9271    0.1335 C.ar    1  UNL1       -0.0130
     26 C          -4.0211    0.4012   -0.5903 C.ar    1  UNL1       -0.0432
     27 C          -3.6338    1.0463   -1.8669 C.3     1  UNL1       -0.0393
     28 C           5.7936    1.0513   -0.4072 C.ar    1  UNL1        0.1262
     29 CL          6.5577    2.4689   -1.0746 Cl      1  UNL1       -0.0762
     30 H           8.3622   -0.7575   -0.6375 H       1  UNL1        0.0294
     31 H           8.5185    0.7288    0.3378 H       1  UNL1        0.0294
     32 H           8.2026   -0.8496    1.1379 H       1  UNL1        0.0294
     33 H           3.6271    2.5646   -1.1949 H       1  UNL1        0.1768
     34 H           2.6124   -2.7557   -3.5290 H       1  UNL1        0.0694
     35 H           3.3814   -0.6292   -2.3278 H       1  UNL1        0.0643
     36 H          -2.4833   -1.4044   -1.9168 H       1  UNL1        0.0394
     37 H          -2.0333   -2.2704   -0.4493 H       1  UNL1        0.0394
     38 H          -3.3087   -2.1130    1.5393 H       1  UNL1        0.0658
     39 H          -5.5538    0.9230    3.9336 H       1  UNL1        0.1166
     40 H          -7.1274   -0.0253    4.0471 H       1  UNL1        0.1166
     41 H          -5.5900    1.8082   -0.2903 H       1  UNL1        0.0658
     42 H          -2.7498    1.7048   -1.7540 H       1  UNL1        0.0278
     43 H          -4.4527    1.6951   -2.2425 H       1  UNL1        0.0278
     44 H          -3.4035    0.2934   -2.6468 H       1  UNL1        0.0278
@<TRIPOS>BOND
     1     1     2    1
     2     2     3   ar
     3     3     4   ar
     4     4     5   ar
     5     5     6    1
     6     6     7    1
     7     7     8    2
     8     7     9    2
     9     7    10    1
    10    10    11   ar
    11    11    12   ar
    12    12    13   ar
    13    13    14   ar
    14    11    15    1
    15    15    16    2
    16    15    17    1
    17    17    18    1
    18    18    19   ar
    19    19    20   ar
    20    20    21   ar
    21    21    22    1
    22    22    23    1
    23    23    24    1
    24    21    25   ar
    25    25    26   ar
    26    26    27    1
    27     5    28   ar
    28    28    29    1
    29    28     2   ar
    30    14    10   ar
    31    26    18   ar
    32    24    20    1
    33     1    30    1
    34     1    31    1
    35     1    32    1
    36     6    33    1
    37    13    34    1
    38    14    35    1
    39    17    36    1
    40    17    37    1
    41    19    38    1
    42    23    39    1
    43    23    40    1
    44    25    41    1
    45    27    42    1
    46    27    43    1
    47    27    44    1
