@<TRIPOS>MOLECULE
*****
 12 11 0 0 0
SMALL
GASTEIGER

@<TRIPOS>ATOM
      1 C           1.3140   -0.2156    0.1664 C.3     1  UNL1       -0.0392
      2 C           0.0663    0.3806   -0.4499 C.3     1  UNL1        0.0496
      3 C          -1.1000   -0.5344   -0.0967 C.3     1  UNL1       -0.0392
      4 O          -0.1926    1.6329    0.1209 O.3     1  UNL1       -0.3923
      5 H           2.2226    0.3474   -0.1283 H       1  UNL1        0.0254
      6 H           1.1871   -0.1585    1.2626 H       1  UNL1        0.0254
      7 H           1.3585   -1.2792   -0.1494 H       1  UNL1        0.0254
      8 H           0.1798    0.4784   -1.5526 H       1  UNL1        0.0588
      9 H          -1.7895   -0.4890   -0.9620 H       1  UNL1        0.0254
     10 H          -0.7662   -1.5610    0.1227 H       1  UNL1        0.0254
     11 H          -1.6365   -0.1195    0.7921 H       1  UNL1        0.0254
     12 H          -0.8436    1.5179    0.8741 H       1  UNL1        0.2098
@<TRIPOS>BOND
     1     1     2    1
     2     2     3    1
     3     2     4    1
     4     1     5    1
     5     1     6    1
     6     1     7    1
     7     2     8    1
     8     3     9    1
     9     3    10    1
    10     3    11    1
    11     4    12    1
