@<TRIPOS>MOLECULE
*****
 40 39 0 0 0
SMALL
GASTEIGER

@<TRIPOS>ATOM
      1 C          -1.4436    4.0366    0.4229 C.3     1  UNL1        0.0000
      2 C          -2.2071    2.9200   -0.2705 C.3     1  UNL1        0.0000
      3 C          -1.3696    2.4073   -1.4094 C.3     1  UNL1        0.0000
      4 C          -0.0456    1.8624   -0.9836 C.3     1  UNL1        0.0000
      5 SN         -0.1836    0.2284    0.3697 Sn      1  UNL1        0.0000
      6 C          -1.2955   -1.4038   -0.5079 C.3     1  UNL1        0.0000
      7 C          -1.4036   -2.4808    0.5235 C.3     1  UNL1        0.0000
      8 C          -2.1822   -3.6655   -0.0405 C.3     1  UNL1        0.0000
      9 C          -3.5713   -3.2100   -0.4360 C.3     1  UNL1        0.0000
     10 C           1.7896   -0.5215    0.7624 C.3     1  UNL1        0.0000
     11 C           2.7387    0.6164    0.5740 C.3     1  UNL1        0.0000
     12 C           4.1792    0.2441    0.8165 C.3     1  UNL1        0.0000
     13 C           4.6726   -0.8475   -0.1066 C.3     1  UNL1        0.0000
     14 H          -2.0817    4.9360    0.5955 H       1  UNL1        0.0000
     15 H          -0.5848    4.3934   -0.1825 H       1  UNL1        0.0000
     16 H          -1.0717    3.6450    1.3849 H       1  UNL1        0.0000
     17 H          -2.5343    2.1298    0.4189 H       1  UNL1        0.0000
     18 H          -3.1232    3.3918   -0.6823 H       1  UNL1        0.0000
     19 H          -1.1751    3.2451   -2.1097 H       1  UNL1        0.0000
     20 H          -1.9423    1.6418   -1.9717 H       1  UNL1        0.0000
     21 H           0.5007    1.5290   -1.8792 H       1  UNL1        0.0000
     22 H           0.5779    2.6380   -0.4939 H       1  UNL1        0.0000
     23 H          -2.2607   -1.0569   -0.8987 H       1  UNL1        0.0000
     24 H          -0.6426   -1.7798   -1.3482 H       1  UNL1        0.0000
     25 H          -0.3850   -2.8255    0.7731 H       1  UNL1        0.0000
     26 H          -1.8648   -2.0884    1.4352 H       1  UNL1        0.0000
     27 H          -1.6682   -4.0540   -0.9218 H       1  UNL1        0.0000
     28 H          -2.2837   -4.4638    0.7051 H       1  UNL1        0.0000
     29 H          -4.1990   -4.0905   -0.6690 H       1  UNL1        0.0000
     30 H          -3.5483   -2.5848   -1.3501 H       1  UNL1        0.0000
     31 H          -4.0542   -2.6485    0.4128 H       1  UNL1        0.0000
     32 H           2.0439   -1.2951   -0.0036 H       1  UNL1        0.0000
     33 H           1.8562   -0.9927    1.7641 H       1  UNL1        0.0000
     34 H           2.5200    1.4741    1.2352 H       1  UNL1        0.0000
     35 H           2.6299    0.9584   -0.4807 H       1  UNL1        0.0000
     36 H           4.3482   -0.0616    1.8533 H       1  UNL1        0.0000
     37 H           4.7710    1.1545    0.5844 H       1  UNL1        0.0000
     38 H           5.7708   -0.7065   -0.2173 H       1  UNL1        0.0000
     39 H           4.5348   -1.8543    0.3645 H       1  UNL1        0.0000
     40 H           4.1881   -0.8208   -1.0960 H       1  UNL1        0.0000
@<TRIPOS>BOND
     1     1     2    1
     2     2     3    1
     3     3     4    1
     4     4     5    1
     5     5     6    1
     6     6     7    1
     7     7     8    1
     8     8     9    1
     9     5    10    1
    10    10    11    1
    11    11    12    1
    12    12    13    1
    13     1    14    1
    14     1    15    1
    15     1    16    1
    16     2    17    1
    17     2    18    1
    18     3    19    1
    19     3    20    1
    20     4    21    1
    21     4    22    1
    22     6    23    1
    23     6    24    1
    24     7    25    1
    25     7    26    1
    26     8    27    1
    27     8    28    1
    28     9    29    1
    29     9    30    1
    30     9    31    1
    31    10    32    1
    32    10    33    1
    33    11    34    1
    34    11    35    1
    35    12    36    1
    36    12    37    1
    37    13    38    1
    38    13    39    1
    39    13    40    1
