@<TRIPOS>MOLECULE
*****
 61 64 0 0 0
SMALL
GASTEIGER

@<TRIPOS>ATOM
      1 O          -4.9052    6.8313   -0.5354 O.3     1  UNL1       -0.4771
      2 C          -4.3122    5.8880    0.2589 C.2     1  UNL1        0.3376
      3 O          -4.4842    6.6439    1.2480 O.2     1  UNL1       -0.2451
      4 C          -3.6886    4.5803    0.2957 C.ar    1  UNL1        0.0730
      5 C          -3.5590    3.8466   -0.8609 C.ar    1  UNL1        0.0762
      6 C          -2.9688    2.6057   -0.8370 C.ar    1  UNL1       -0.0046
      7 C          -2.5271    2.1588    0.3950 C.ar    1  UNL1        0.1293
      8 O          -1.9194    0.9193    0.5156 O.3     1  UNL1       -0.4541
      9 C          -0.5786    0.6727    0.3993 C.ar    1  UNL1        0.1496
     10 C          -0.1662   -0.6368    0.5532 C.ar    1  UNL1        0.0782
     11 N          -1.1325   -1.6731    0.8237 N.am    1  UNL1       -0.2785
     12 C          -1.6701   -2.2879   -0.3314 C.2     1  UNL1        0.2486
     13 O          -1.2126   -1.8258   -1.4271 O.2     1  UNL1       -0.2698
     14 C          -2.6609   -3.3567   -0.2625 C.ar    1  UNL1        0.0434
     15 C          -3.1930   -3.8979    0.8900 C.ar    1  UNL1        0.0277
     16 C          -4.1300   -4.9119    0.8429 C.ar    1  UNL1        0.2739
     17 C          -4.5635   -5.4160   -0.3731 C.ar    1  UNL1        0.0156
     18 C          -4.0469   -4.8924   -1.5552 C.ar    1  UNL1       -0.0546
     19 C          -3.1142   -3.8817   -1.4564 C.ar    1  UNL1       -0.0492
     20 N          -4.6142   -5.3986    2.0908 N.pl3   1  UNL1        0.0796
     21 O          -4.1957   -4.9105    3.3119 O.co2   1  UNL1       -0.5760
     22 O          -5.4603   -6.3116    2.1339 O.2     1  UNL1        0.0414
     23 C           1.1895   -0.9353    0.4431 C.ar    1  UNL1       -0.0156
     24 C           2.0743    0.0968    0.1826 C.ar    1  UNL1        0.0357
     25 N           3.4703   -0.1453    0.0592 N.am    1  UNL1       -0.2814
     26 C           4.3110   -0.4663   -1.0349 C.2     1  UNL1        0.2485
     27 O           3.7217   -0.5633   -2.1418 O.2     1  UNL1       -0.2698
     28 C           5.7361   -0.6461   -0.7692 C.ar    1  UNL1        0.0434
     29 C           6.3971   -0.5454    0.4267 C.ar    1  UNL1        0.0277
     30 C           7.7600   -0.7559    0.4556 C.ar    1  UNL1        0.2739
     31 C           8.5206   -1.0637   -0.6376 C.ar    1  UNL1        0.0156
     32 C           7.8316   -1.1616   -1.8433 C.ar    1  UNL1       -0.0546
     33 C           6.4648   -0.9569   -1.9093 C.ar    1  UNL1       -0.0492
     34 N           8.3867   -0.6368    1.7275 N.pl3   1  UNL1        0.0796
     35 O           9.7390   -0.8237    1.8849 O.co2   1  UNL1       -0.5760
     36 O           7.8006   -0.3645    2.7735 O.2     1  UNL1        0.0414
     37 C           1.6499    1.4147    0.0288 C.ar    1  UNL1       -0.0369
     38 C           0.3198    1.7002    0.1379 C.ar    1  UNL1       -0.0157
     39 C          -2.6686    2.9108    1.5338 C.ar    1  UNL1       -0.0185
     40 C          -3.2634    4.1657    1.5207 C.ar    1  UNL1       -0.0435
     41 C          -4.0110    4.2870   -2.1617 C.2     1  UNL1        0.3377
     42 O          -4.6348    5.3880   -2.7140 O.3     1  UNL1       -0.4771
     43 O          -3.9107    3.6517   -3.2278 O.2     1  UNL1       -0.2451
     44 H          -4.3757    7.5552   -1.0439 H       1  UNL1        0.2954
     45 H          -2.8254    1.9661   -1.6830 H       1  UNL1        0.0663
     46 H          -1.4416   -1.9790    1.7781 H       1  UNL1        0.1552
     47 H          -2.8346   -3.4832    1.8218 H       1  UNL1        0.0693
     48 H          -5.2994   -6.2099   -0.3214 H       1  UNL1        0.0685
     49 H          -4.4009   -5.3020   -2.4767 H       1  UNL1        0.0620
     50 H          -2.7270   -3.4906   -2.3934 H       1  UNL1        0.0625
     51 H           1.5385   -1.9535    0.5595 H       1  UNL1        0.0656
     52 H           3.7647   -0.0209    1.0541 H       1  UNL1        0.1551
     53 H           5.7741   -0.3035    1.2629 H       1  UNL1        0.0693
     54 H           9.5877   -1.2134   -0.5268 H       1  UNL1        0.0685
     55 H           8.4274   -1.4067   -2.7226 H       1  UNL1        0.0620
     56 H           6.0525   -1.0637   -2.9116 H       1  UNL1        0.0625
     57 H           2.3438    2.2048   -0.1726 H       1  UNL1        0.0637
     58 H          -0.0838    2.6974    0.0310 H       1  UNL1        0.0655
     59 H          -2.3044    2.5179    2.4880 H       1  UNL1        0.0654
     60 H          -3.3762    4.7597    2.4149 H       1  UNL1        0.0627
     61 H          -5.6013    5.4295   -2.9464 H       1  UNL1        0.2954
@<TRIPOS>UNITY_ATOM_ATTR
20 1
charge 1
21 1
charge -1
34 1
charge 1
35 1
charge -1
@<TRIPOS>BOND
     1     1     2    1
     2     2     3    2
     3     2     4    1
     4     4     5   ar
     5     5     6   ar
     6     6     7   ar
     7     7     8    1
     8     8     9    1
     9     9    10   ar
    10    10    11    1
    11    11    12   am
    12    12    13    2
    13    12    14    1
    14    14    15   ar
    15    15    16   ar
    16    16    17   ar
    17    17    18   ar
    18    18    19   ar
    19    16    20    1
    20    20    21    1
    21    20    22    2
    22    10    23   ar
    23    23    24   ar
    24    24    25    1
    25    25    26   am
    26    26    27    2
    27    26    28    1
    28    28    29   ar
    29    29    30   ar
    30    30    31   ar
    31    31    32   ar
    32    32    33   ar
    33    30    34    1
    34    34    35    1
    35    34    36    2
    36    24    37   ar
    37    37    38   ar
    38     7    39   ar
    39    39    40   ar
    40     5    41    1
    41    41    42    1
    42    41    43    2
    43    40     4   ar
    44    38     9   ar
    45    19    14   ar
    46    33    28   ar
    47     1    44    1
    48     6    45    1
    49    11    46    1
    50    15    47    1
    51    17    48    1
    52    18    49    1
    53    19    50    1
    54    23    51    1
    55    25    52    1
    56    29    53    1
    57    31    54    1
    58    32    55    1
    59    33    56    1
    60    37    57    1
    61    38    58    1
    62    39    59    1
    63    40    60    1
    64    42    61    1
