@<TRIPOS>MOLECULE
*****
 15 16 0 0 0
SMALL
GASTEIGER

@<TRIPOS>ATOM
      1 CL         -3.4895   -1.2549    0.2188 Cl      1  UNL1       -0.0835
      2 C          -1.9324   -0.4575    0.1645 C.ar    1  UNL1        0.0431
      3 C          -0.7963   -1.2231   -0.1211 C.ar    1  UNL1       -0.0163
      4 C           0.3941   -0.5256   -0.1465 C.ar    1  UNL1        0.0887
      5 C           0.5743    0.8239    0.0767 C.ar    1  UNL1        0.1569
      6 O           1.8507    1.1129   -0.0344 O.2     1  UNL1       -0.4076
      7 C           2.5068   -0.0076   -0.3231 C.ar    1  UNL1        0.4186
      8 O           3.7563    0.2113   -0.4434 O.2     1  UNL1       -0.2229
      9 N           1.6146   -1.0076   -0.3911 N.ar    1  UNL1       -0.2880
     10 C          -0.5928    1.5404    0.3572 C.ar    1  UNL1       -0.0157
     11 C          -1.8285    0.9055    0.3999 C.ar    1  UNL1       -0.0398
     12 H          -0.8349   -2.2785   -0.3087 H       1  UNL1        0.0654
     13 H           2.0192   -1.9290   -0.6112 H       1  UNL1        0.1721
     14 H          -0.5203    2.5932    0.5401 H       1  UNL1        0.0655
     15 H          -2.7215    1.4963    0.6223 H       1  UNL1        0.0633
@<TRIPOS>BOND
     1     1     2    1
     2     2     3   ar
     3     3     4   ar
     4     4     5   ar
     5     5     6   ar
     6     6     7   ar
     7     7     8    2
     8     7     9   ar
     9     5    10   ar
    10    10    11   ar
    11    11     2   ar
    12     9     4   ar
    13     3    12    1
    14     9    13    1
    15    10    14    1
    16    11    15    1
