@<TRIPOS>MOLECULE
*****
 39 42 0 0 0
SMALL
GASTEIGER

@<TRIPOS>ATOM
      1 N          -3.3406    1.3260    3.6188 N.1     1  UNL1       -0.1893
      2 C          -2.1631    1.5144    3.4077 C.1     1  UNL1        0.1192
      3 C          -0.7875    1.7487    3.1796 C.ar    1  UNL1        0.1438
      4 C           0.0569    2.6040    3.8358 C.ar    1  UNL1        0.0643
      5 N           1.2754    2.5216    3.3004 N.ar    1  UNL1       -0.2348
      6 C           1.2536    1.6245    2.2979 C.ar    1  UNL1        0.1385
      7 C           2.2140    1.1676    1.4273 C.ar    1  UNL1       -0.0181
      8 C           1.8442    0.2131    0.4802 C.ar    1  UNL1       -0.0477
      9 C           0.5675   -0.2819    0.3884 C.ar    1  UNL1        0.0173
     10 C           0.1306   -1.2733   -0.5758 C.ar    1  UNL1        0.0780
     11 C          -0.6138   -0.9122   -1.6946 C.ar    1  UNL1        0.0968
     12 C          -1.0373    0.4259   -2.0705 C.ar    1  UNL1        0.0040
     13 C          -2.4101    0.6783   -2.2146 C.ar    1  UNL1       -0.0497
     14 C          -2.8491    1.9396   -2.5677 C.ar    1  UNL1       -0.0244
     15 C          -1.9459    2.9626   -2.7822 C.ar    1  UNL1        0.1417
     16 F          -2.3644    4.2246   -3.1343 F       1  UNL1       -0.2040
     17 C          -0.6046    2.6706   -2.6294 C.ar    1  UNL1        0.0767
     18 CL          0.6216    3.9150   -2.8817 Cl      1  UNL1       -0.0806
     19 C          -0.1329    1.4190   -2.2768 C.ar    1  UNL1       -0.0313
     20 N          -0.8721   -2.0716   -2.3515 N.ar    1  UNL1       -0.2351
     21 C          -0.3175   -3.0908   -1.6741 C.ar    1  UNL1        0.0972
     22 N           0.3126   -2.5959   -0.5599 N.ar    1  UNL1       -0.3241
     23 C           1.0156   -3.3955    0.4036 C.3     1  UNL1        0.0852
     24 C           2.4441   -3.6774    0.1163 C.3     1  UNL1        0.2569
     25 F           2.6133   -4.3423   -1.0883 F       1  UNL1       -0.2073
     26 F           3.3023   -2.6212    0.2520 F       1  UNL1       -0.2073
     27 C          -0.3452    0.2408    1.3154 C.ar    1  UNL1        0.0216
     28 N           0.0045    1.1567    2.2253 N.ar    1  UNL1       -0.2906
     29 H          -0.2149    3.2496    4.6633 H       1  UNL1        0.0859
     30 H           3.2159    1.5603    1.5059 H       1  UNL1        0.0654
     31 H           2.6204   -0.1141   -0.1936 H       1  UNL1        0.0626
     32 H          -3.0719   -0.1480   -2.0399 H       1  UNL1        0.0625
     33 H          -3.8907    2.1216   -2.6734 H       1  UNL1        0.0647
     34 H           0.9280    1.2274   -2.1657 H       1  UNL1        0.0640
     35 H          -0.3213   -4.1436   -1.8992 H       1  UNL1        0.1029
     36 H           0.9620   -2.9247    1.4137 H       1  UNL1        0.0548
     37 H           0.4636   -4.3727    0.5215 H       1  UNL1        0.0548
     38 H           2.8145   -4.4300    0.8961 H       1  UNL1        0.1037
     39 H          -1.3779   -0.1169    1.2859 H       1  UNL1        0.0820
@<TRIPOS>BOND
     1     1     2    3
     2     2     3    1
     3     3     4   ar
     4     4     5   ar
     5     5     6   ar
     6     6     7   ar
     7     7     8   ar
     8     8     9   ar
     9     9    10    1
    10    10    11   ar
    11    11    12    1
    12    12    13   ar
    13    13    14   ar
    14    14    15   ar
    15    15    16    1
    16    15    17   ar
    17    17    18    1
    18    17    19   ar
    19    11    20   ar
    20    20    21   ar
    21    21    22   ar
    22    22    23    1
    23    23    24    1
    24    24    25    1
    25    24    26    1
    26     9    27   ar
    27    27    28   ar
    28    28     3   ar
    29    28     6   ar
    30    22    10   ar
    31    19    12   ar
    32     4    29    1
    33     7    30    1
    34     8    31    1
    35    13    32    1
    36    14    33    1
    37    19    34    1
    38    21    35    1
    39    23    36    1
    40    23    37    1
    41    24    38    1
    42    27    39    1
