
     RDKit          3D

 39 42  0  0  0  0  0  0  0  0999 V2000
   -3.3406    1.3260    3.6188 N   0  0  0  0  0  0  0  0  0  0  0  0
   -2.1631    1.5144    3.4077 C   0  0  0  0  0  0  0  0  0  0  0  0
   -0.7875    1.7487    3.1796 C   0  0  0  0  0  0  0  0  0  0  0  0
    0.0569    2.6040    3.8358 C   0  0  0  0  0  0  0  0  0  0  0  0
    1.2754    2.5216    3.3004 N   0  0  0  0  0  0  0  0  0  0  0  0
    1.2536    1.6245    2.2979 C   0  0  0  0  0  0  0  0  0  0  0  0
    2.2140    1.1676    1.4273 C   0  0  0  0  0  0  0  0  0  0  0  0
    1.8442    0.2131    0.4802 C   0  0  0  0  0  0  0  0  0  0  0  0
    0.5675   -0.2819    0.3884 C   0  0  0  0  0  0  0  0  0  0  0  0
    0.1306   -1.2733   -0.5758 C   0  0  0  0  0  0  0  0  0  0  0  0
   -0.6138   -0.9122   -1.6946 C   0  0  0  0  0  0  0  0  0  0  0  0
   -1.0373    0.4259   -2.0705 C   0  0  0  0  0  0  0  0  0  0  0  0
   -2.4101    0.6783   -2.2146 C   0  0  0  0  0  0  0  0  0  0  0  0
   -2.8491    1.9396   -2.5677 C   0  0  0  0  0  0  0  0  0  0  0  0
   -1.9459    2.9626   -2.7822 C   0  0  0  0  0  0  0  0  0  0  0  0
   -2.3644    4.2246   -3.1343 F   0  0  0  0  0  0  0  0  0  0  0  0
   -0.6046    2.6706   -2.6294 C   0  0  0  0  0  0  0  0  0  0  0  0
    0.6216    3.9150   -2.8817 Cl  0  0  0  0  0  0  0  0  0  0  0  0
   -0.1329    1.4190   -2.2768 C   0  0  0  0  0  0  0  0  0  0  0  0
   -0.8721   -2.0716   -2.3515 N   0  0  0  0  0  0  0  0  0  0  0  0
   -0.3175   -3.0908   -1.6741 C   0  0  0  0  0  0  0  0  0  0  0  0
    0.3126   -2.5959   -0.5599 N   0  0  0  0  0  0  0  0  0  0  0  0
    1.0156   -3.3955    0.4036 C   0  0  0  0  0  0  0  0  0  0  0  0
    2.4441   -3.6774    0.1163 C   0  0  0  0  0  0  0  0  0  0  0  0
    2.6133   -4.3423   -1.0883 F   0  0  0  0  0  0  0  0  0  0  0  0
    3.3023   -2.6212    0.2520 F   0  0  0  0  0  0  0  0  0  0  0  0
   -0.3452    0.2408    1.3154 C   0  0  0  0  0  0  0  0  0  0  0  0
    0.0045    1.1567    2.2253 N   0  0  0  0  0  0  0  0  0  0  0  0
   -0.2149    3.2496    4.6633 H   0  0  0  0  0  0  0  0  0  0  0  0
    3.2159    1.5603    1.5059 H   0  0  0  0  0  0  0  0  0  0  0  0
    2.6204   -0.1141   -0.1936 H   0  0  0  0  0  0  0  0  0  0  0  0
   -3.0719   -0.1480   -2.0399 H   0  0  0  0  0  0  0  0  0  0  0  0
   -3.8907    2.1216   -2.6734 H   0  0  0  0  0  0  0  0  0  0  0  0
    0.9280    1.2274   -2.1657 H   0  0  0  0  0  0  0  0  0  0  0  0
   -0.3213   -4.1436   -1.8992 H   0  0  0  0  0  0  0  0  0  0  0  0
    0.9620   -2.9247    1.4137 H   0  0  0  0  0  0  0  0  0  0  0  0
    0.4636   -4.3727    0.5215 H   0  0  0  0  0  0  0  0  0  0  0  0
    2.8145   -4.4300    0.8961 H   0  0  0  0  0  0  0  0  0  0  0  0
   -1.3779   -0.1169    1.2859 H   0  0  0  0  0  0  0  0  0  0  0  0
  1  2  3  0
  2  3  1  0
  3  4  2  0
  4  5  1  0
  5  6  2  0
  6  7  1  0
  7  8  2  0
  8  9  1  0
  9 10  1  0
 10 11  2  0
 11 12  1  0
 12 13  2  0
 13 14  1  0
 14 15  2  0
 15 16  1  0
 15 17  1  0
 17 18  1  0
 17 19  2  0
 11 20  1  0
 20 21  2  0
 21 22  1  0
 22 23  1  0
 23 24  1  0
 24 25  1  0
 24 26  1  0
  9 27  2  0
 27 28  1  0
 28  3  1  0
 28  6  1  0
 22 10  1  0
 19 12  1  0
  4 29  1  0
  7 30  1  0
  8 31  1  0
 13 32  1  0
 14 33  1  0
 19 34  1  0
 21 35  1  0
 23 36  1  0
 23 37  1  0
 24 38  1  0
 27 39  1  0
M  END
$$$$
