@<TRIPOS>MOLECULE
*****
 40 42 0 0 0
SMALL
GASTEIGER

@<TRIPOS>ATOM
      1 C           6.3294    0.5216    1.4880 C.3     1  UNL1       -0.0638
      2 C           6.2129   -0.6279    0.5314 C.3     1  UNL1       -0.0360
      3 C           4.7591   -0.9893    0.2356 C.3     1  UNL1        0.0706
      4 S           4.0050    0.4509   -0.4763 S.O2    1  UNL1       -0.0030
      5 O           4.1658    1.6168    0.4457 O.2     1  UNL1       -0.1694
      6 O           4.7232    0.7935   -1.7532 O.2     1  UNL1       -0.1694
      7 C           2.3297    0.1758   -0.8655 C.ar    1  UNL1        0.0902
      8 C           2.0139   -0.3091   -2.1216 C.ar    1  UNL1       -0.0347
      9 C           0.7247   -0.5555   -2.5158 C.ar    1  UNL1       -0.0324
     10 C          -0.3078   -0.3185   -1.6452 C.ar    1  UNL1        0.0896
     11 N          -1.6478   -0.4532   -1.7231 N.ar    1  UNL1       -0.2277
     12 C          -2.1877   -0.0682   -0.5549 C.ar    1  UNL1        0.1393
     13 C          -3.6232   -0.0865   -0.2942 C.ar    1  UNL1        0.0178
     14 C          -4.5328   -0.5052   -1.2411 C.ar    1  UNL1       -0.0511
     15 C          -5.8897   -0.5286   -1.0114 C.ar    1  UNL1       -0.0606
     16 C          -6.4013   -0.1252    0.2013 C.ar    1  UNL1       -0.0501
     17 C          -5.5051    0.2949    1.1549 C.ar    1  UNL1        0.0555
     18 C          -6.0576    0.7356    2.4782 C.3     1  UNL1        0.4174
     19 F          -6.9668    1.7310    2.2431 F       1  UNL1       -0.1659
     20 F          -6.5955   -0.3664    3.0874 F       1  UNL1       -0.1659
     21 F          -5.0122    1.2110    3.2591 F       1  UNL1       -0.1659
     22 C          -4.1506    0.3174    0.9230 C.ar    1  UNL1       -0.0395
     23 N          -1.1837    0.3006    0.2353 N.ar    1  UNL1       -0.3378
     24 C          -0.0165    0.1655   -0.3862 C.ar    1  UNL1        0.0683
     25 C           1.3021    0.4139    0.0069 C.ar    1  UNL1       -0.0114
     26 H           7.2161    0.3549    2.1571 H       1  UNL1        0.0230
     27 H           6.5395    1.4707    0.9328 H       1  UNL1        0.0230
     28 H           5.4476    0.6444    2.1413 H       1  UNL1        0.0230
     29 H           6.7645   -0.4484   -0.4007 H       1  UNL1        0.0278
     30 H           6.6915   -1.5202    1.0195 H       1  UNL1        0.0278
     31 H           4.2254   -1.2773    1.1611 H       1  UNL1        0.0504
     32 H           4.7748   -1.8413   -0.4524 H       1  UNL1        0.0504
     33 H           2.8242   -0.5075   -2.8386 H       1  UNL1        0.0637
     34 H           0.5090   -0.9322   -3.4979 H       1  UNL1        0.0640
     35 H          -4.1711   -0.8298   -2.2063 H       1  UNL1        0.0625
     36 H          -6.5844   -0.8597   -1.7656 H       1  UNL1        0.0618
     37 H          -7.4691   -0.1325    0.4125 H       1  UNL1        0.0623
     38 H          -3.4599    0.6459    1.6711 H       1  UNL1        0.0630
     39 H          -1.3181    0.6475    1.2116 H       1  UNL1        0.1674
     40 H           1.5225    0.7906    0.9883 H       1  UNL1        0.0658
@<TRIPOS>BOND
     1     1     2    1
     2     2     3    1
     3     3     4    1
     4     4     5    2
     5     4     6    2
     6     4     7    1
     7     7     8   ar
     8     8     9   ar
     9     9    10   ar
    10    10    11   ar
    11    11    12   ar
    12    12    13    1
    13    13    14   ar
    14    14    15   ar
    15    15    16   ar
    16    16    17   ar
    17    17    18    1
    18    18    19    1
    19    18    20    1
    20    18    21    1
    21    17    22   ar
    22    12    23   ar
    23    23    24   ar
    24    24    25   ar
    25    25     7   ar
    26    24    10   ar
    27    22    13   ar
    28     1    26    1
    29     1    27    1
    30     1    28    1
    31     2    29    1
    32     2    30    1
    33     3    31    1
    34     3    32    1
    35     8    33    1
    36     9    34    1
    37    14    35    1
    38    15    36    1
    39    16    37    1
    40    22    38    1
    41    23    39    1
    42    25    40    1
