
     RDKit          3D

 40 42  0  0  0  0  0  0  0  0999 V2000
    6.3294    0.5216    1.4880 C   0  0  0  0  0  0  0  0  0  0  0  0
    6.2129   -0.6279    0.5314 C   0  0  0  0  0  0  0  0  0  0  0  0
    4.7591   -0.9893    0.2356 C   0  0  0  0  0  0  0  0  0  0  0  0
    4.0050    0.4509   -0.4763 S   0  0  0  0  0  6  0  0  0  0  0  0
    4.1658    1.6168    0.4457 O   0  0  0  0  0  0  0  0  0  0  0  0
    4.7232    0.7935   -1.7532 O   0  0  0  0  0  0  0  0  0  0  0  0
    2.3297    0.1758   -0.8655 C   0  0  0  0  0  0  0  0  0  0  0  0
    2.0139   -0.3091   -2.1216 C   0  0  0  0  0  0  0  0  0  0  0  0
    0.7247   -0.5555   -2.5158 C   0  0  0  0  0  0  0  0  0  0  0  0
   -0.3078   -0.3185   -1.6452 C   0  0  0  0  0  0  0  0  0  0  0  0
   -1.6478   -0.4532   -1.7231 N   0  0  0  0  0  0  0  0  0  0  0  0
   -2.1877   -0.0682   -0.5549 C   0  0  0  0  0  0  0  0  0  0  0  0
   -3.6232   -0.0865   -0.2942 C   0  0  0  0  0  0  0  0  0  0  0  0
   -4.5328   -0.5052   -1.2411 C   0  0  0  0  0  0  0  0  0  0  0  0
   -5.8897   -0.5286   -1.0114 C   0  0  0  0  0  0  0  0  0  0  0  0
   -6.4013   -0.1252    0.2013 C   0  0  0  0  0  0  0  0  0  0  0  0
   -5.5051    0.2949    1.1549 C   0  0  0  0  0  0  0  0  0  0  0  0
   -6.0576    0.7356    2.4782 C   0  0  0  0  0  0  0  0  0  0  0  0
   -6.9668    1.7310    2.2431 F   0  0  0  0  0  0  0  0  0  0  0  0
   -6.5955   -0.3664    3.0874 F   0  0  0  0  0  0  0  0  0  0  0  0
   -5.0122    1.2110    3.2591 F   0  0  0  0  0  0  0  0  0  0  0  0
   -4.1506    0.3174    0.9230 C   0  0  0  0  0  0  0  0  0  0  0  0
   -1.1837    0.3006    0.2353 N   0  0  0  0  0  0  0  0  0  0  0  0
   -0.0165    0.1655   -0.3862 C   0  0  0  0  0  0  0  0  0  0  0  0
    1.3021    0.4139    0.0069 C   0  0  0  0  0  0  0  0  0  0  0  0
    7.2161    0.3549    2.1571 H   0  0  0  0  0  0  0  0  0  0  0  0
    6.5395    1.4707    0.9328 H   0  0  0  0  0  0  0  0  0  0  0  0
    5.4476    0.6444    2.1413 H   0  0  0  0  0  0  0  0  0  0  0  0
    6.7645   -0.4484   -0.4007 H   0  0  0  0  0  0  0  0  0  0  0  0
    6.6915   -1.5202    1.0195 H   0  0  0  0  0  0  0  0  0  0  0  0
    4.2254   -1.2773    1.1611 H   0  0  0  0  0  0  0  0  0  0  0  0
    4.7748   -1.8413   -0.4524 H   0  0  0  0  0  0  0  0  0  0  0  0
    2.8242   -0.5075   -2.8386 H   0  0  0  0  0  0  0  0  0  0  0  0
    0.5090   -0.9322   -3.4979 H   0  0  0  0  0  0  0  0  0  0  0  0
   -4.1711   -0.8298   -2.2063 H   0  0  0  0  0  0  0  0  0  0  0  0
   -6.5844   -0.8597   -1.7656 H   0  0  0  0  0  0  0  0  0  0  0  0
   -7.4691   -0.1325    0.4125 H   0  0  0  0  0  0  0  0  0  0  0  0
   -3.4599    0.6459    1.6711 H   0  0  0  0  0  0  0  0  0  0  0  0
   -1.3181    0.6475    1.2116 H   0  0  0  0  0  0  0  0  0  0  0  0
    1.5225    0.7906    0.9883 H   0  0  0  0  0  0  0  0  0  0  0  0
  1  2  1  0
  2  3  1  0
  3  4  1  0
  4  5  2  0
  4  6  2  0
  4  7  1  0
  7  8  2  0
  8  9  1  0
  9 10  2  0
 10 11  1  0
 11 12  2  0
 12 13  1  0
 13 14  2  0
 14 15  1  0
 15 16  2  0
 16 17  1  0
 17 18  1  0
 18 19  1  0
 18 20  1  0
 18 21  1  0
 17 22  2  0
 12 23  1  0
 23 24  1  0
 24 25  2  0
 25  7  1  0
 24 10  1  0
 22 13  1  0
  1 26  1  0
  1 27  1  0
  1 28  1  0
  2 29  1  0
  2 30  1  0
  3 31  1  0
  3 32  1  0
  8 33  1  0
  9 34  1  0
 14 35  1  0
 15 36  1  0
 16 37  1  0
 22 38  1  0
 23 39  1  0
 25 40  1  0
M  END
$$$$
