@<TRIPOS>MOLECULE
*****
 50 52 0 0 0
SMALL
GASTEIGER

@<TRIPOS>ATOM
      1 C          -2.4960   -1.4528    0.8683 C.3     1  UNL1       -0.0352
      2 C          -3.3329   -0.2874    0.3393 C.3     1  UNL1        0.0952
      3 C          -2.4113    0.8182    0.0034 C.ar    1  UNL1        0.0197
      4 C          -1.0425    0.6258    0.0594 C.ar    1  UNL1       -0.0321
      5 C          -0.1554    1.6254   -0.2512 C.ar    1  UNL1        0.0369
      6 N           1.2515    1.5120   -0.2192 N.am    1  UNL1       -0.2801
      7 C           2.0048    0.3709    0.1329 C.2     1  UNL1        0.2681
      8 O           1.4338   -0.6858    0.4619 O.2     1  UNL1       -0.2681
      9 C           3.4600    0.4306    0.1110 C.ar    1  UNL1        0.1439
     10 C           4.1903   -0.6745    0.4520 C.ar    1  UNL1        0.0619
     11 N           5.5547   -0.6026    0.4265 N.ar    1  UNL1       -0.2177
     12 C           6.2157    0.4922    0.0855 C.ar    1  UNL1        0.2337
     13 O           7.5683    0.5519    0.0659 O.3     1  UNL1       -0.4663
     14 C           8.4245   -0.4934    0.3807 C.3     1  UNL1        0.1858
     15 C           8.3445   -1.7100   -0.4867 C.3     1  UNL1        0.4236
     16 F           8.6294   -1.3595   -1.8137 F       1  UNL1       -0.1671
     17 F           7.1594   -2.3744   -0.3838 F       1  UNL1       -0.1671
     18 F           9.3840   -2.5672   -0.1008 F       1  UNL1       -0.1671
     19 C           5.4640    1.6115   -0.2599 C.ar    1  UNL1        0.0899
     20 N           4.1154    1.5439   -0.2358 N.ar    1  UNL1       -0.2435
     21 C          -0.7210    2.8471   -0.6268 C.ar    1  UNL1       -0.0023
     22 C          -2.0703    3.0644   -0.6906 C.ar    1  UNL1        0.1605
     23 F          -2.5968    4.2497   -1.0551 F       1  UNL1       -0.2024
     24 C          -2.9338    2.0215   -0.3666 C.ar    1  UNL1        0.1640
     25 F          -4.2526    2.2243   -0.4233 F       1  UNL1       -0.2021
     26 C          -4.0752   -0.6964   -0.8967 C.3     1  UNL1        0.0223
     27 C          -5.5414   -0.7477   -0.7174 C.3     1  UNL1        0.1997
     28 C          -6.2007   -1.7270   -1.6982 C.3     1  UNL1        0.4266
     29 F          -7.5523   -1.6846   -1.4333 F       1  UNL1       -0.1669
     30 F          -5.7325   -3.0016   -1.4938 F       1  UNL1       -0.1669
     31 F          -5.9467   -1.2868   -2.9605 F       1  UNL1       -0.1669
     32 O          -5.8944   -1.0863    0.6032 O.2     1  UNL1       -0.4534
     33 C          -5.3971   -0.2626    1.6010 C.2     1  UNL1        0.2765
     34 N          -6.1235    0.1788    2.7303 N.pl3   1  UNL1       -0.3134
     35 N          -4.1752    0.0984    1.4408 N.2     1  UNL1       -0.2257
     36 H          -1.8946   -1.0616    1.7015 H       1  UNL1        0.0256
     37 H          -3.1704   -2.2631    1.2445 H       1  UNL1        0.0256
     38 H          -1.8398   -1.8866    0.1098 H       1  UNL1        0.0256
     39 H          -0.6505   -0.3347    0.3521 H       1  UNL1        0.0640
     40 H           1.8444    2.3632   -0.4845 H       1  UNL1        0.1552
     41 H           3.7228   -1.6104    0.7433 H       1  UNL1        0.0854
     42 H           8.2568   -0.8666    1.4418 H       1  UNL1        0.0788
     43 H           9.5000   -0.1382    0.4056 H       1  UNL1        0.0788
     44 H           6.0166    2.4975   -0.5360 H       1  UNL1        0.0884
     45 H          -0.0460    3.6445   -0.8745 H       1  UNL1        0.0666
     46 H          -3.7073   -1.7085   -1.2654 H       1  UNL1        0.0330
     47 H          -3.8312    0.0008   -1.7568 H       1  UNL1        0.0330
     48 H          -5.9632    0.2466   -1.0142 H       1  UNL1        0.0826
     49 H          -5.8323    1.0255    3.2323 H       1  UNL1        0.1466
     50 H          -6.9540   -0.3557    3.0522 H       1  UNL1        0.1466
@<TRIPOS>BOND
     1     2     1    1
     2     2     3    1
     3     3     4   ar
     4     4     5   ar
     5     5     6    1
     6     6     7   am
     7     7     8    2
     8     7     9    1
     9     9    10   ar
    10    10    11   ar
    11    11    12   ar
    12    12    13    1
    13    13    14    1
    14    14    15    1
    15    15    16    1
    16    15    17    1
    17    15    18    1
    18    12    19   ar
    19    19    20   ar
    20     5    21   ar
    21    21    22   ar
    22    22    23    1
    23    22    24   ar
    24    24    25    1
    25     2    26    1
    26    26    27    1
    27    27    28    1
    28    28    29    1
    29    28    30    1
    30    28    31    1
    31    27    32    1
    32    32    33    1
    33    33    34    1
    34    33    35    2
    35    35     2    1
    36    24     3   ar
    37    20     9   ar
    38     1    36    1
    39     1    37    1
    40     1    38    1
    41     4    39    1
    42     6    40    1
    43    10    41    1
    44    14    42    1
    45    14    43    1
    46    19    44    1
    47    21    45    1
    48    26    46    1
    49    26    47    1
    50    27    48    1
    51    34    49    1
    52    34    50    1
