
     RDKit          3D

 50 52  0  0  0  0  0  0  0  0999 V2000
   -2.4960   -1.4528    0.8683 C   0  0  0  0  0  0  0  0  0  0  0  0
   -3.3329   -0.2874    0.3393 C   0  0  1  0  0  0  0  0  0  0  0  0
   -2.4113    0.8182    0.0034 C   0  0  0  0  0  0  0  0  0  0  0  0
   -1.0425    0.6258    0.0594 C   0  0  0  0  0  0  0  0  0  0  0  0
   -0.1554    1.6254   -0.2512 C   0  0  0  0  0  0  0  0  0  0  0  0
    1.2515    1.5120   -0.2192 N   0  0  0  0  0  0  0  0  0  0  0  0
    2.0048    0.3709    0.1329 C   0  0  0  0  0  0  0  0  0  0  0  0
    1.4338   -0.6858    0.4619 O   0  0  0  0  0  0  0  0  0  0  0  0
    3.4600    0.4306    0.1110 C   0  0  0  0  0  0  0  0  0  0  0  0
    4.1903   -0.6745    0.4520 C   0  0  0  0  0  0  0  0  0  0  0  0
    5.5547   -0.6026    0.4265 N   0  0  0  0  0  0  0  0  0  0  0  0
    6.2157    0.4922    0.0855 C   0  0  0  0  0  0  0  0  0  0  0  0
    7.5683    0.5519    0.0659 O   0  0  0  0  0  0  0  0  0  0  0  0
    8.4245   -0.4934    0.3807 C   0  0  0  0  0  0  0  0  0  0  0  0
    8.3445   -1.7100   -0.4867 C   0  0  0  0  0  0  0  0  0  0  0  0
    8.6294   -1.3595   -1.8137 F   0  0  0  0  0  0  0  0  0  0  0  0
    7.1594   -2.3744   -0.3838 F   0  0  0  0  0  0  0  0  0  0  0  0
    9.3840   -2.5672   -0.1008 F   0  0  0  0  0  0  0  0  0  0  0  0
    5.4640    1.6115   -0.2599 C   0  0  0  0  0  0  0  0  0  0  0  0
    4.1154    1.5439   -0.2358 N   0  0  0  0  0  0  0  0  0  0  0  0
   -0.7210    2.8471   -0.6268 C   0  0  0  0  0  0  0  0  0  0  0  0
   -2.0703    3.0644   -0.6906 C   0  0  0  0  0  0  0  0  0  0  0  0
   -2.5968    4.2497   -1.0551 F   0  0  0  0  0  0  0  0  0  0  0  0
   -2.9338    2.0215   -0.3666 C   0  0  0  0  0  0  0  0  0  0  0  0
   -4.2526    2.2243   -0.4233 F   0  0  0  0  0  0  0  0  0  0  0  0
   -4.0752   -0.6964   -0.8967 C   0  0  0  0  0  0  0  0  0  0  0  0
   -5.5414   -0.7477   -0.7174 C   0  0  1  0  0  0  0  0  0  0  0  0
   -6.2007   -1.7270   -1.6982 C   0  0  0  0  0  0  0  0  0  0  0  0
   -7.5523   -1.6846   -1.4333 F   0  0  0  0  0  0  0  0  0  0  0  0
   -5.7325   -3.0016   -1.4938 F   0  0  0  0  0  0  0  0  0  0  0  0
   -5.9467   -1.2868   -2.9605 F   0  0  0  0  0  0  0  0  0  0  0  0
   -5.8944   -1.0863    0.6032 O   0  0  0  0  0  0  0  0  0  0  0  0
   -5.3971   -0.2626    1.6010 C   0  0  0  0  0  0  0  0  0  0  0  0
   -6.1235    0.1788    2.7303 N   0  0  0  0  0  0  0  0  0  0  0  0
   -4.1752    0.0984    1.4408 N   0  0  0  0  0  0  0  0  0  0  0  0
   -1.8946   -1.0616    1.7015 H   0  0  0  0  0  0  0  0  0  0  0  0
   -3.1704   -2.2631    1.2445 H   0  0  0  0  0  0  0  0  0  0  0  0
   -1.8398   -1.8866    0.1098 H   0  0  0  0  0  0  0  0  0  0  0  0
   -0.6505   -0.3347    0.3521 H   0  0  0  0  0  0  0  0  0  0  0  0
    1.8444    2.3632   -0.4845 H   0  0  0  0  0  0  0  0  0  0  0  0
    3.7228   -1.6104    0.7433 H   0  0  0  0  0  0  0  0  0  0  0  0
    8.2568   -0.8666    1.4418 H   0  0  0  0  0  0  0  0  0  0  0  0
    9.5000   -0.1382    0.4056 H   0  0  0  0  0  0  0  0  0  0  0  0
    6.0166    2.4975   -0.5360 H   0  0  0  0  0  0  0  0  0  0  0  0
   -0.0460    3.6445   -0.8745 H   0  0  0  0  0  0  0  0  0  0  0  0
   -3.7073   -1.7085   -1.2654 H   0  0  0  0  0  0  0  0  0  0  0  0
   -3.8312    0.0008   -1.7568 H   0  0  0  0  0  0  0  0  0  0  0  0
   -5.9632    0.2466   -1.0142 H   0  0  0  0  0  0  0  0  0  0  0  0
   -5.8323    1.0255    3.2323 H   0  0  0  0  0  0  0  0  0  0  0  0
   -6.9540   -0.3557    3.0522 H   0  0  0  0  0  0  0  0  0  0  0  0
  2  1  1  1
  2  3  1  0
  3  4  2  0
  4  5  1  0
  5  6  1  0
  6  7  1  0
  7  8  2  0
  7  9  1  0
  9 10  2  0
 10 11  1  0
 11 12  2  0
 12 13  1  0
 13 14  1  0
 14 15  1  0
 15 16  1  0
 15 17  1  0
 15 18  1  0
 12 19  1  0
 19 20  2  0
  5 21  2  0
 21 22  1  0
 22 23  1  0
 22 24  2  0
 24 25  1  0
  2 26  1  0
 26 27  1  0
 27 28  1  0
 28 29  1  0
 28 30  1  0
 28 31  1  0
 27 32  1  0
 32 33  1  0
 33 34  1  0
 33 35  2  0
 35  2  1  0
 24  3  1  0
 20  9  1  0
  1 36  1  0
  1 37  1  0
  1 38  1  0
  4 39  1  0
  6 40  1  0
 10 41  1  0
 14 42  1  0
 14 43  1  0
 19 44  1  0
 21 45  1  0
 26 46  1  0
 26 47  1  0
 27 48  1  6
 34 49  1  0
 34 50  1  0
M  END
$$$$
