@<TRIPOS>MOLECULE
*****
 101 107 0 0 0
SMALL
GASTEIGER

@<TRIPOS>ATOM
      1 C          -8.7469    5.3883    0.1488 C.3     1  UNL1        0.0788
      2 O          -8.8714    4.1485   -0.5016 O.3     1  UNL1       -0.4950
      3 C          -7.8077    3.2506   -0.4755 C.ar    1  UNL1        0.1226
      4 C          -6.6671    3.6036    0.1844 C.ar    1  UNL1        0.0013
      5 C          -5.5959    2.7132    0.2183 C.ar    1  UNL1        0.0378
      6 N          -4.4404    3.0801    0.9322 N.pl3   1  UNL1       -0.2834
      7 C          -3.1551    2.5724    0.6236 C.ar    1  UNL1        0.2226
      8 N          -2.9737    1.8282   -0.4691 N.ar    1  UNL1       -0.2225
      9 C          -1.7634    1.3480   -0.7672 C.ar    1  UNL1        0.0362
     10 C          -0.7168    1.6417    0.0802 C.ar    1  UNL1        0.0186
     11 C          -0.8824    2.4116    1.2198 C.ar    1  UNL1        0.2249
     12 O           0.1169    2.7371    2.0965 O.3     1  UNL1       -0.4373
     13 C           1.4307    2.3690    2.0712 C.ar    1  UNL1        0.1381
     14 C           2.4158    3.3631    1.8905 C.ar    1  UNL1       -0.0169
     15 C           3.7477    3.0192    1.8645 C.ar    1  UNL1       -0.0363
     16 C           4.1595    1.7055    2.0127 C.ar    1  UNL1        0.0427
     17 N           5.5452    1.4338    1.9922 N.am    1  UNL1       -0.2686
     18 C           6.2981    1.1104    0.8351 C.2     1  UNL1        0.3092
     19 O           5.7109    1.0288   -0.2835 O.2     1  UNL1       -0.2521
     20 N           7.6961    0.8820    0.9236 N.am    1  UNL1       -0.2538
     21 C           8.5150    0.5432   -0.1935 C.ar    1  UNL1        0.1299
     22 C           9.0815    1.4573   -1.0516 C.ar    1  UNL1        0.0018
     23 C           9.8097    0.7186   -1.9742 C.ar    1  UNL1        0.0679
     24 C          10.6135    1.2714   -3.1220 C.3     1  UNL1       -0.0025
     25 C           9.5865    1.8684   -4.0666 C.3     1  UNL1       -0.0572
     26 C          11.5529    2.3181   -2.5859 C.3     1  UNL1       -0.0572
     27 N           9.6423   -0.5637   -1.6249 N.ar    1  UNL1       -0.1694
     28 N           8.8725   -0.7049   -0.5622 N.ar    1  UNL1       -0.2181
     29 C           8.4962   -1.9333    0.0863 C.ar    1  UNL1        0.0674
     30 C           7.6185   -2.8218   -0.4878 C.ar    1  UNL1       -0.0359
     31 C           7.2672   -4.0115    0.1629 C.ar    1  UNL1       -0.0568
     32 C           7.7920   -4.3256    1.3977 C.ar    1  UNL1       -0.0503
     33 C           7.4574   -5.5726    2.1359 C.3     1  UNL1       -0.0397
     34 C           8.6728   -3.4311    1.9708 C.ar    1  UNL1       -0.0568
     35 C           9.0138   -2.2589    1.3217 C.ar    1  UNL1       -0.0359
     36 C           3.2044    0.7328    2.1890 C.ar    1  UNL1        0.0069
     37 C           3.5876   -0.5715    2.3490 C.ar    1  UNL1       -0.0521
     38 C           2.6487   -1.5538    2.5390 C.ar    1  UNL1       -0.0611
     39 C           1.3188   -1.2289    2.5693 C.ar    1  UNL1       -0.0611
     40 C           0.8976    0.0958    2.4085 C.ar    1  UNL1       -0.0505
     41 C           1.8522    1.0646    2.2178 C.ar    1  UNL1        0.0262
     42 N          -2.1245    2.8645    1.4635 N.ar    1  UNL1       -0.1789
     43 C          -5.7357    1.5028   -0.4214 C.ar    1  UNL1       -0.0281
     44 C          -6.8894    1.1194   -1.1022 C.ar    1  UNL1        0.0419
     45 C          -6.9585   -0.1880   -1.7275 C.2     1  UNL1        0.2443
     46 O          -6.0135   -1.0334   -1.5519 O.2     1  UNL1       -0.2702
     47 N          -8.0389   -0.5881   -2.5382 N.am    1  UNL1       -0.3101
     48 C          -8.1522   -1.8925   -3.1703 C.3     1  UNL1        0.0247
     49 C          -8.1876   -3.0006   -2.1096 C.3     1  UNL1        0.0146
     50 N          -9.3296   -2.7289   -1.2739 N.3     1  UNL1       -0.2965
     51 C         -10.5745   -2.9037   -1.9422 C.3     1  UNL1        0.0225
     52 C         -11.7331   -2.9923   -1.0014 C.3     1  UNL1        0.0604
     53 O         -11.4558   -2.3024    0.1538 O.3     1  UNL1       -0.3772
     54 C         -10.4283   -2.8291    0.9056 C.3     1  UNL1        0.0604
     55 C          -9.2494   -3.2528    0.0523 C.3     1  UNL1        0.0225
     56 C          -7.9282    2.0158   -1.1196 C.ar    1  UNL1       -0.0077
     57 H          -7.8903    5.9413   -0.2553 H       1  UNL1        0.0660
     58 H          -8.6311    5.2529    1.2588 H       1  UNL1        0.0660
     59 H          -9.7152    5.9390    0.0048 H       1  UNL1        0.0660
     60 H          -6.5482    4.5616    0.6956 H       1  UNL1        0.0673
     61 H          -4.5644    3.7708    1.7377 H       1  UNL1        0.1550
     62 H          -1.5425    0.7350   -1.6406 H       1  UNL1        0.0832
     63 H           0.2854    1.2613   -0.1479 H       1  UNL1        0.0686
     64 H           2.0603    4.3758    1.7788 H       1  UNL1        0.0655
     65 H           4.4889    3.7874    1.7265 H       1  UNL1        0.0637
     66 H           6.1063    1.4638    2.9011 H       1  UNL1        0.1564
     67 H           8.1802    0.9548    1.8687 H       1  UNL1        0.1578
     68 H           8.9984    2.5394   -1.0429 H       1  UNL1        0.0671
     69 H          11.1104    0.4101   -3.5982 H       1  UNL1        0.0359
     70 H           9.2509    2.8696   -3.7432 H       1  UNL1        0.0236
     71 H           8.7306    1.1403   -4.1391 H       1  UNL1        0.0236
     72 H           9.9704    1.9713   -5.1066 H       1  UNL1        0.0236
     73 H          11.9751    2.8743   -3.4604 H       1  UNL1        0.0236
     74 H          12.4182    1.8018   -2.1154 H       1  UNL1        0.0236
     75 H          11.0532    2.9935   -1.8553 H       1  UNL1        0.0236
     76 H           7.1998   -2.5800   -1.4641 H       1  UNL1        0.0639
     77 H           6.5738   -4.6894   -0.3145 H       1  UNL1        0.0621
     78 H           8.4295   -6.0856    2.3542 H       1  UNL1        0.0278
     79 H           6.8357   -6.2592    1.5688 H       1  UNL1        0.0278
     80 H           7.0386   -5.3020    3.1295 H       1  UNL1        0.0278
     81 H           9.0932   -3.6779    2.9545 H       1  UNL1        0.0621
     82 H           9.7151   -1.5569    1.7884 H       1  UNL1        0.0639
     83 H           4.6622   -0.8509    2.3272 H       1  UNL1        0.0624
     84 H           3.0048   -2.5667    2.6586 H       1  UNL1        0.0618
     85 H           0.5538   -1.9796    2.7169 H       1  UNL1        0.0618
     86 H          -0.1534    0.2886    2.4585 H       1  UNL1        0.0625
     87 H          -4.9447    0.7528   -0.4210 H       1  UNL1        0.0644
     88 H          -8.8224    0.1179   -2.6990 H       1  UNL1        0.1490
     89 H          -9.0612   -1.9385   -3.8032 H       1  UNL1        0.0475
     90 H          -7.2400   -2.0439   -3.7979 H       1  UNL1        0.0475
     91 H          -7.2740   -2.9439   -1.5032 H       1  UNL1        0.0442
     92 H          -8.3118   -3.9809   -2.6171 H       1  UNL1        0.0442
     93 H         -10.5454   -3.8823   -2.5048 H       1  UNL1        0.0449
     94 H         -10.7834   -2.1417   -2.7154 H       1  UNL1        0.0449
     95 H         -11.9384   -4.0455   -0.7138 H       1  UNL1        0.0572
     96 H         -12.6209   -2.5128   -1.4742 H       1  UNL1        0.0572
     97 H         -10.0940   -2.0606    1.6277 H       1  UNL1        0.0572
     98 H         -10.8277   -3.6678    1.5066 H       1  UNL1        0.0572
     99 H          -8.3216   -2.9817    0.5810 H       1  UNL1        0.0449
    100 H          -9.2582   -4.3658    0.0173 H       1  UNL1        0.0449
    101 H          -8.8482    1.7917   -1.6231 H       1  UNL1        0.0662
@<TRIPOS>BOND
     1     1     2    1
     2     2     3    1
     3     3     4   ar
     4     4     5   ar
     5     5     6    1
     6     6     7    1
     7     7     8   ar
     8     8     9   ar
     9     9    10   ar
    10    10    11   ar
    11    11    12    1
    12    12    13    1
    13    13    14   ar
    14    14    15   ar
    15    15    16   ar
    16    16    17    1
    17    17    18   am
    18    18    19    2
    19    18    20   am
    20    20    21    1
    21    21    22   ar
    22    22    23   ar
    23    23    24    1
    24    24    25    1
    25    24    26    1
    26    23    27   ar
    27    27    28   ar
    28    28    29    1
    29    29    30   ar
    30    30    31   ar
    31    31    32   ar
    32    32    33    1
    33    32    34   ar
    34    34    35   ar
    35    16    36   ar
    36    36    37   ar
    37    37    38   ar
    38    38    39   ar
    39    39    40   ar
    40    40    41   ar
    41    11    42   ar
    42     5    43   ar
    43    43    44   ar
    44    44    45    1
    45    45    46    2
    46    45    47   am
    47    47    48    1
    48    48    49    1
    49    49    50    1
    50    50    51    1
    51    51    52    1
    52    52    53    1
    53    53    54    1
    54    54    55    1
    55    44    56   ar
    56    56     3   ar
    57    42     7   ar
    58    55    50    1
    59    41    13   ar
    60    28    21   ar
    61    35    29   ar
    62    41    36   ar
    63     1    57    1
    64     1    58    1
    65     1    59    1
    66     4    60    1
    67     6    61    1
    68     9    62    1
    69    10    63    1
    70    14    64    1
    71    15    65    1
    72    17    66    1
    73    20    67    1
    74    22    68    1
    75    24    69    1
    76    25    70    1
    77    25    71    1
    78    25    72    1
    79    26    73    1
    80    26    74    1
    81    26    75    1
    82    30    76    1
    83    31    77    1
    84    33    78    1
    85    33    79    1
    86    33    80    1
    87    34    81    1
    88    35    82    1
    89    37    83    1
    90    38    84    1
    91    39    85    1
    92    40    86    1
    93    43    87    1
    94    47    88    1
    95    48    89    1
    96    48    90    1
    97    49    91    1
    98    49    92    1
    99    51    93    1
   100    51    94    1
   101    52    95    1
   102    52    96    1
   103    54    97    1
   104    54    98    1
   105    55    99    1
   106    55   100    1
   107    56   101    1
