
     RDKit          3D

101107  0  0  0  0  0  0  0  0999 V2000
   -8.7469    5.3883    0.1488 C   0  0  0  0  0  0  0  0  0  0  0  0
   -8.8714    4.1485   -0.5016 O   0  0  0  0  0  0  0  0  0  0  0  0
   -7.8077    3.2506   -0.4755 C   0  0  0  0  0  0  0  0  0  0  0  0
   -6.6671    3.6036    0.1844 C   0  0  0  0  0  0  0  0  0  0  0  0
   -5.5959    2.7132    0.2183 C   0  0  0  0  0  0  0  0  0  0  0  0
   -4.4404    3.0801    0.9322 N   0  0  0  0  0  0  0  0  0  0  0  0
   -3.1551    2.5724    0.6236 C   0  0  0  0  0  0  0  0  0  0  0  0
   -2.9737    1.8282   -0.4691 N   0  0  0  0  0  0  0  0  0  0  0  0
   -1.7634    1.3480   -0.7672 C   0  0  0  0  0  0  0  0  0  0  0  0
   -0.7168    1.6417    0.0802 C   0  0  0  0  0  0  0  0  0  0  0  0
   -0.8824    2.4116    1.2198 C   0  0  0  0  0  0  0  0  0  0  0  0
    0.1169    2.7371    2.0965 O   0  0  0  0  0  0  0  0  0  0  0  0
    1.4307    2.3690    2.0712 C   0  0  0  0  0  0  0  0  0  0  0  0
    2.4158    3.3631    1.8905 C   0  0  0  0  0  0  0  0  0  0  0  0
    3.7477    3.0192    1.8645 C   0  0  0  0  0  0  0  0  0  0  0  0
    4.1595    1.7055    2.0127 C   0  0  0  0  0  0  0  0  0  0  0  0
    5.5452    1.4338    1.9922 N   0  0  0  0  0  0  0  0  0  0  0  0
    6.2981    1.1104    0.8351 C   0  0  0  0  0  0  0  0  0  0  0  0
    5.7109    1.0288   -0.2835 O   0  0  0  0  0  0  0  0  0  0  0  0
    7.6961    0.8820    0.9236 N   0  0  0  0  0  0  0  0  0  0  0  0
    8.5150    0.5432   -0.1935 C   0  0  0  0  0  0  0  0  0  0  0  0
    9.0815    1.4573   -1.0516 C   0  0  0  0  0  0  0  0  0  0  0  0
    9.8097    0.7186   -1.9742 C   0  0  0  0  0  0  0  0  0  0  0  0
   10.6135    1.2714   -3.1220 C   0  0  0  0  0  0  0  0  0  0  0  0
    9.5865    1.8684   -4.0666 C   0  0  0  0  0  0  0  0  0  0  0  0
   11.5529    2.3181   -2.5859 C   0  0  0  0  0  0  0  0  0  0  0  0
    9.6423   -0.5637   -1.6249 N   0  0  0  0  0  0  0  0  0  0  0  0
    8.8725   -0.7049   -0.5622 N   0  0  0  0  0  0  0  0  0  0  0  0
    8.4962   -1.9333    0.0863 C   0  0  0  0  0  0  0  0  0  0  0  0
    7.6185   -2.8218   -0.4878 C   0  0  0  0  0  0  0  0  0  0  0  0
    7.2672   -4.0115    0.1629 C   0  0  0  0  0  0  0  0  0  0  0  0
    7.7920   -4.3256    1.3977 C   0  0  0  0  0  0  0  0  0  0  0  0
    7.4574   -5.5726    2.1359 C   0  0  0  0  0  0  0  0  0  0  0  0
    8.6728   -3.4311    1.9708 C   0  0  0  0  0  0  0  0  0  0  0  0
    9.0138   -2.2589    1.3217 C   0  0  0  0  0  0  0  0  0  0  0  0
    3.2044    0.7328    2.1890 C   0  0  0  0  0  0  0  0  0  0  0  0
    3.5876   -0.5715    2.3490 C   0  0  0  0  0  0  0  0  0  0  0  0
    2.6487   -1.5538    2.5390 C   0  0  0  0  0  0  0  0  0  0  0  0
    1.3188   -1.2289    2.5693 C   0  0  0  0  0  0  0  0  0  0  0  0
    0.8976    0.0958    2.4085 C   0  0  0  0  0  0  0  0  0  0  0  0
    1.8522    1.0646    2.2178 C   0  0  0  0  0  0  0  0  0  0  0  0
   -2.1245    2.8645    1.4635 N   0  0  0  0  0  0  0  0  0  0  0  0
   -5.7357    1.5028   -0.4214 C   0  0  0  0  0  0  0  0  0  0  0  0
   -6.8894    1.1194   -1.1022 C   0  0  0  0  0  0  0  0  0  0  0  0
   -6.9585   -0.1880   -1.7275 C   0  0  0  0  0  0  0  0  0  0  0  0
   -6.0135   -1.0334   -1.5519 O   0  0  0  0  0  0  0  0  0  0  0  0
   -8.0389   -0.5881   -2.5382 N   0  0  0  0  0  0  0  0  0  0  0  0
   -8.1522   -1.8925   -3.1703 C   0  0  0  0  0  0  0  0  0  0  0  0
   -8.1876   -3.0006   -2.1096 C   0  0  0  0  0  0  0  0  0  0  0  0
   -9.3296   -2.7289   -1.2739 N   0  0  0  0  0  0  0  0  0  0  0  0
  -10.5745   -2.9037   -1.9422 C   0  0  0  0  0  0  0  0  0  0  0  0
  -11.7331   -2.9923   -1.0014 C   0  0  0  0  0  0  0  0  0  0  0  0
  -11.4558   -2.3024    0.1538 O   0  0  0  0  0  0  0  0  0  0  0  0
  -10.4283   -2.8291    0.9056 C   0  0  0  0  0  0  0  0  0  0  0  0
   -9.2494   -3.2528    0.0523 C   0  0  0  0  0  0  0  0  0  0  0  0
   -7.9282    2.0158   -1.1196 C   0  0  0  0  0  0  0  0  0  0  0  0
   -7.8903    5.9413   -0.2553 H   0  0  0  0  0  0  0  0  0  0  0  0
   -8.6311    5.2529    1.2588 H   0  0  0  0  0  0  0  0  0  0  0  0
   -9.7152    5.9390    0.0048 H   0  0  0  0  0  0  0  0  0  0  0  0
   -6.5482    4.5616    0.6956 H   0  0  0  0  0  0  0  0  0  0  0  0
   -4.5644    3.7708    1.7377 H   0  0  0  0  0  0  0  0  0  0  0  0
   -1.5425    0.7350   -1.6406 H   0  0  0  0  0  0  0  0  0  0  0  0
    0.2854    1.2613   -0.1479 H   0  0  0  0  0  0  0  0  0  0  0  0
    2.0603    4.3758    1.7788 H   0  0  0  0  0  0  0  0  0  0  0  0
    4.4889    3.7874    1.7265 H   0  0  0  0  0  0  0  0  0  0  0  0
    6.1063    1.4638    2.9011 H   0  0  0  0  0  0  0  0  0  0  0  0
    8.1802    0.9548    1.8687 H   0  0  0  0  0  0  0  0  0  0  0  0
    8.9984    2.5394   -1.0429 H   0  0  0  0  0  0  0  0  0  0  0  0
   11.1104    0.4101   -3.5982 H   0  0  0  0  0  0  0  0  0  0  0  0
    9.2509    2.8696   -3.7432 H   0  0  0  0  0  0  0  0  0  0  0  0
    8.7306    1.1403   -4.1391 H   0  0  0  0  0  0  0  0  0  0  0  0
    9.9704    1.9713   -5.1066 H   0  0  0  0  0  0  0  0  0  0  0  0
   11.9751    2.8743   -3.4604 H   0  0  0  0  0  0  0  0  0  0  0  0
   12.4182    1.8018   -2.1154 H   0  0  0  0  0  0  0  0  0  0  0  0
   11.0532    2.9935   -1.8553 H   0  0  0  0  0  0  0  0  0  0  0  0
    7.1998   -2.5800   -1.4641 H   0  0  0  0  0  0  0  0  0  0  0  0
    6.5738   -4.6894   -0.3145 H   0  0  0  0  0  0  0  0  0  0  0  0
    8.4295   -6.0856    2.3542 H   0  0  0  0  0  0  0  0  0  0  0  0
    6.8357   -6.2592    1.5688 H   0  0  0  0  0  0  0  0  0  0  0  0
    7.0386   -5.3020    3.1295 H   0  0  0  0  0  0  0  0  0  0  0  0
    9.0932   -3.6779    2.9545 H   0  0  0  0  0  0  0  0  0  0  0  0
    9.7151   -1.5569    1.7884 H   0  0  0  0  0  0  0  0  0  0  0  0
    4.6622   -0.8509    2.3272 H   0  0  0  0  0  0  0  0  0  0  0  0
    3.0048   -2.5667    2.6586 H   0  0  0  0  0  0  0  0  0  0  0  0
    0.5538   -1.9796    2.7169 H   0  0  0  0  0  0  0  0  0  0  0  0
   -0.1534    0.2886    2.4585 H   0  0  0  0  0  0  0  0  0  0  0  0
   -4.9447    0.7528   -0.4210 H   0  0  0  0  0  0  0  0  0  0  0  0
   -8.8224    0.1179   -2.6990 H   0  0  0  0  0  0  0  0  0  0  0  0
   -9.0612   -1.9385   -3.8032 H   0  0  0  0  0  0  0  0  0  0  0  0
   -7.2400   -2.0439   -3.7979 H   0  0  0  0  0  0  0  0  0  0  0  0
   -7.2740   -2.9439   -1.5032 H   0  0  0  0  0  0  0  0  0  0  0  0
   -8.3118   -3.9809   -2.6171 H   0  0  0  0  0  0  0  0  0  0  0  0
  -10.5454   -3.8823   -2.5048 H   0  0  0  0  0  0  0  0  0  0  0  0
  -10.7834   -2.1417   -2.7154 H   0  0  0  0  0  0  0  0  0  0  0  0
  -11.9384   -4.0455   -0.7138 H   0  0  0  0  0  0  0  0  0  0  0  0
  -12.6209   -2.5128   -1.4742 H   0  0  0  0  0  0  0  0  0  0  0  0
  -10.0940   -2.0606    1.6277 H   0  0  0  0  0  0  0  0  0  0  0  0
  -10.8277   -3.6678    1.5066 H   0  0  0  0  0  0  0  0  0  0  0  0
   -8.3216   -2.9817    0.5810 H   0  0  0  0  0  0  0  0  0  0  0  0
   -9.2582   -4.3658    0.0173 H   0  0  0  0  0  0  0  0  0  0  0  0
   -8.8482    1.7917   -1.6231 H   0  0  0  0  0  0  0  0  0  0  0  0
  1  2  1  0
  2  3  1  0
  3  4  2  0
  4  5  1  0
  5  6  1  0
  6  7  1  0
  7  8  2  0
  8  9  1  0
  9 10  2  0
 10 11  1  0
 11 12  1  0
 12 13  1  0
 13 14  2  0
 14 15  1  0
 15 16  2  0
 16 17  1  0
 17 18  1  0
 18 19  2  0
 18 20  1  0
 20 21  1  0
 21 22  2  0
 22 23  1  0
 23 24  1  0
 24 25  1  0
 24 26  1  0
 23 27  2  0
 27 28  1  0
 28 29  1  0
 29 30  2  0
 30 31  1  0
 31 32  2  0
 32 33  1  0
 32 34  1  0
 34 35  2  0
 16 36  1  0
 36 37  2  0
 37 38  1  0
 38 39  2  0
 39 40  1  0
 40 41  2  0
 11 42  2  0
  5 43  2  0
 43 44  1  0
 44 45  1  0
 45 46  2  0
 45 47  1  0
 47 48  1  0
 48 49  1  0
 49 50  1  0
 50 51  1  0
 51 52  1  0
 52 53  1  0
 53 54  1  0
 54 55  1  0
 44 56  2  0
 56  3  1  0
 42  7  1  0
 55 50  1  0
 41 13  1  0
 28 21  1  0
 35 29  1  0
 41 36  1  0
  1 57  1  0
  1 58  1  0
  1 59  1  0
  4 60  1  0
  6 61  1  0
  9 62  1  0
 10 63  1  0
 14 64  1  0
 15 65  1  0
 17 66  1  0
 20 67  1  0
 22 68  1  0
 24 69  1  0
 25 70  1  0
 25 71  1  0
 25 72  1  0
 26 73  1  0
 26 74  1  0
 26 75  1  0
 30 76  1  0
 31 77  1  0
 33 78  1  0
 33 79  1  0
 33 80  1  0
 34 81  1  0
 35 82  1  0
 37 83  1  0
 38 84  1  0
 39 85  1  0
 40 86  1  0
 43 87  1  0
 47 88  1  0
 48 89  1  0
 48 90  1  0
 49 91  1  0
 49 92  1  0
 51 93  1  0
 51 94  1  0
 52 95  1  0
 52 96  1  0
 54 97  1  0
 54 98  1  0
 55 99  1  0
 55100  1  0
 56101  1  0
M  END
$$$$
