
     RDKit          3D

 55 57  0  0  0  0  0  0  0  0999 V2000
    2.0897   -1.4026   -0.2521 O   0  0  0  0  0  0  0  0  0  0  0  0
    1.5897   -1.6893    0.8453 C   0  0  0  0  0  0  0  0  0  0  0  0
    0.5545   -0.8232    1.4625 C   0  0  0  0  0  0  0  0  0  0  0  0
    0.3067    0.3317    0.5554 C   0  0  1  0  0  0  0  0  0  0  0  0
   -0.7364    1.2915    1.0750 C   0  0  0  0  0  0  0  0  0  0  0  0
   -2.0728    0.6728    1.2849 C   0  0  0  0  0  0  0  0  0  0  0  0
   -2.5913    0.1253   -0.0023 C   0  0  0  0  0  0  0  0  0  0  0  0
   -3.9746   -0.5220    0.1656 C   0  0  0  0  0  0  0  0  0  0  0  0
   -4.9385    0.5069    0.6645 C   0  0  0  0  0  0  0  0  0  0  0  0
   -6.3786    0.1635    0.4156 C   0  0  0  0  0  0  0  0  0  0  0  0
   -6.5430    0.0260   -1.0997 C   0  0  0  0  0  0  0  0  0  0  0  0
   -5.7476   -1.1744   -1.4969 C   0  0  0  0  0  0  0  0  0  0  0  0
   -4.3130   -1.1311   -1.1409 C   0  0  0  0  0  0  0  0  0  0  0  0
    1.6149    1.0303    0.3512 C   0  0  0  0  0  0  0  0  0  0  0  0
    2.2971    1.2013   -0.7924 N   0  0  0  0  0  0  0  0  0  0  0  0
    3.4365    1.8911   -0.5330 C   0  0  0  0  0  0  0  0  0  0  0  0
    4.4961    2.3144   -1.4634 C   0  0  0  0  0  0  0  0  0  0  0  0
    5.5101    1.2257   -1.5236 C   0  0  0  0  0  0  0  0  0  0  0  0
    6.5482    1.2923   -0.6112 C   0  0  0  0  0  0  0  0  0  0  0  0
    7.4920    0.2764   -0.6693 C   0  0  0  0  0  0  0  0  0  0  0  0
    7.3903   -0.7476   -1.5978 C   0  0  0  0  0  0  0  0  0  0  0  0
    6.3793   -0.7913   -2.4689 N   0  0  0  0  0  0  0  0  0  0  0  0
    5.4618    0.1908   -2.4169 C   0  0  0  0  0  0  0  0  0  0  0  0
    3.4025    2.1200    0.7981 N   0  0  0  0  0  0  0  0  0  0  0  0
    2.3081    1.5982    1.3046 O   0  0  0  0  0  0  0  0  0  0  0  0
    2.0560   -2.8805    1.4759 N   0  0  0  0  0  0  0  0  0  0  0  0
    3.0011   -3.6489    0.8872 O   0  0  0  0  0  0  0  0  0  0  0  0
    0.9235   -0.5426    2.4611 H   0  0  0  0  0  0  0  0  0  0  0  0
   -0.3721   -1.4609    1.5301 H   0  0  0  0  0  0  0  0  0  0  0  0
    0.0078   -0.0613   -0.4374 H   0  0  0  0  0  0  0  0  0  0  0  0
   -0.7879    2.1605    0.3885 H   0  0  0  0  0  0  0  0  0  0  0  0
   -0.3158    1.7084    2.0352 H   0  0  0  0  0  0  0  0  0  0  0  0
   -2.1182   -0.0377    2.1216 H   0  0  0  0  0  0  0  0  0  0  0  0
   -2.7674    1.5128    1.5777 H   0  0  0  0  0  0  0  0  0  0  0  0
   -1.9179   -0.6907   -0.3368 H   0  0  0  0  0  0  0  0  0  0  0  0
   -2.6326    0.9229   -0.7510 H   0  0  0  0  0  0  0  0  0  0  0  0
   -3.8450   -1.2998    0.9473 H   0  0  0  0  0  0  0  0  0  0  0  0
   -4.7456    1.5008    0.1938 H   0  0  0  0  0  0  0  0  0  0  0  0
   -4.8177    0.6043    1.7712 H   0  0  0  0  0  0  0  0  0  0  0  0
   -7.0011    0.9690    0.8237 H   0  0  0  0  0  0  0  0  0  0  0  0
   -6.5921   -0.8181    0.8789 H   0  0  0  0  0  0  0  0  0  0  0  0
   -6.2214    0.9454   -1.6045 H   0  0  0  0  0  0  0  0  0  0  0  0
   -7.6179   -0.2042   -1.3098 H   0  0  0  0  0  0  0  0  0  0  0  0
   -6.2694   -2.0873   -1.1072 H   0  0  0  0  0  0  0  0  0  0  0  0
   -5.8260   -1.2571   -2.6205 H   0  0  0  0  0  0  0  0  0  0  0  0
   -3.9299   -2.1938   -1.1319 H   0  0  0  0  0  0  0  0  0  0  0  0
   -3.7451   -0.6542   -1.9924 H   0  0  0  0  0  0  0  0  0  0  0  0
    4.0520    2.5227   -2.4585 H   0  0  0  0  0  0  0  0  0  0  0  0
    4.9262    3.2631   -1.0847 H   0  0  0  0  0  0  0  0  0  0  0  0
    6.6074    2.1033    0.1065 H   0  0  0  0  0  0  0  0  0  0  0  0
    8.3273    0.2751    0.0195 H   0  0  0  0  0  0  0  0  0  0  0  0
    8.1436   -1.5204   -1.6129 H   0  0  0  0  0  0  0  0  0  0  0  0
    4.6378    0.1547   -3.1273 H   0  0  0  0  0  0  0  0  0  0  0  0
    1.6694   -3.1573    2.3869 H   0  0  0  0  0  0  0  0  0  0  0  0
    3.5894   -4.1047    1.5636 H   0  0  0  0  0  0  0  0  0  0  0  0
  1  2  2  0
  2  3  1  0
  3  4  1  0
  4  5  1  0
  5  6  1  0
  6  7  1  0
  7  8  1  0
  8  9  1  0
  9 10  1  0
 10 11  1  0
 11 12  1  0
 12 13  1  0
  4 14  1  0
 14 15  2  0
 15 16  1  0
 16 17  1  0
 17 18  1  0
 18 19  2  0
 19 20  1  0
 20 21  2  0
 21 22  1  0
 22 23  2  0
 16 24  2  0
 24 25  1  0
  2 26  1  0
 26 27  1  0
 13  8  1  0
 25 14  1  0
 23 18  1  0
  3 28  1  0
  3 29  1  0
  4 30  1  6
  5 31  1  0
  5 32  1  0
  6 33  1  0
  6 34  1  0
  7 35  1  0
  7 36  1  0
  8 37  1  0
  9 38  1  0
  9 39  1  0
 10 40  1  0
 10 41  1  0
 11 42  1  0
 11 43  1  0
 12 44  1  0
 12 45  1  0
 13 46  1  0
 13 47  1  0
 17 48  1  0
 17 49  1  0
 19 50  1  0
 20 51  1  0
 21 52  1  0
 23 53  1  0
 26 54  1  0
 27 55  1  0
M  END
$$$$
