@<TRIPOS>MOLECULE
*****
 55 57 0 0 0
SMALL
GASTEIGER

@<TRIPOS>ATOM
      1 O           2.0897   -1.4026   -0.2521 O.2     1  UNL1       -0.2737
      2 C           1.5897   -1.6893    0.8453 C.2     1  UNL1        0.2362
      3 C           0.5545   -0.8232    1.4625 C.3     1  UNL1        0.0372
      4 C           0.3067    0.3317    0.5554 C.3     1  UNL1        0.0464
      5 C          -0.7364    1.2915    1.0750 C.3     1  UNL1       -0.0413
      6 C          -2.0728    0.6728    1.2849 C.3     1  UNL1       -0.0521
      7 C          -2.5913    0.1253   -0.0023 C.3     1  UNL1       -0.0502
      8 C          -3.9746   -0.5220    0.1656 C.3     1  UNL1       -0.0410
      9 C          -4.9385    0.5069    0.6645 C.3     1  UNL1       -0.0502
     10 C          -6.3786    0.1635    0.4156 C.3     1  UNL1       -0.0528
     11 C          -6.5430    0.0260   -1.0997 C.3     1  UNL1       -0.0530
     12 C          -5.7476   -1.1744   -1.4969 C.3     1  UNL1       -0.0528
     13 C          -4.3130   -1.1311   -1.1409 C.3     1  UNL1       -0.0502
     14 C           1.6149    1.0303    0.3512 C.ar    1  UNL1        0.2309
     15 N           2.2971    1.2013   -0.7924 N.ar    1  UNL1       -0.1955
     16 C           3.4365    1.8911   -0.5330 C.ar    1  UNL1        0.1761
     17 C           4.4961    2.3144   -1.4634 C.3     1  UNL1        0.0372
     18 C           5.5101    1.2257   -1.5236 C.ar    1  UNL1       -0.0219
     19 C           6.5482    1.2923   -0.6112 C.ar    1  UNL1       -0.0553
     20 C           7.4920    0.2764   -0.6693 C.ar    1  UNL1       -0.0433
     21 C           7.3903   -0.7476   -1.5978 C.ar    1  UNL1        0.0276
     22 N           6.3793   -0.7913   -2.4689 N.ar    1  UNL1       -0.2630
     23 C           5.4618    0.1908   -2.4169 C.ar    1  UNL1        0.0311
     24 N           3.4025    2.1200    0.7981 N.ar    1  UNL1       -0.0610
     25 O           2.3081    1.5982    1.3046 O.2     1  UNL1       -0.3377
     26 N           2.0560   -2.8805    1.4759 N.am    1  UNL1       -0.1975
     27 O           3.0011   -3.6489    0.8872 O.3     1  UNL1       -0.2952
     28 H           0.9235   -0.5426    2.4611 H       1  UNL1        0.0366
     29 H          -0.3721   -1.4609    1.5301 H       1  UNL1        0.0366
     30 H           0.0078   -0.0613   -0.4374 H       1  UNL1        0.0401
     31 H          -0.7879    2.1605    0.3885 H       1  UNL1        0.0273
     32 H          -0.3158    1.7084    2.0352 H       1  UNL1        0.0273
     33 H          -2.1182   -0.0377    2.1216 H       1  UNL1        0.0266
     34 H          -2.7674    1.5128    1.5777 H       1  UNL1        0.0266
     35 H          -1.9179   -0.6907   -0.3368 H       1  UNL1        0.0268
     36 H          -2.6326    0.9229   -0.7510 H       1  UNL1        0.0268
     37 H          -3.8450   -1.2998    0.9473 H       1  UNL1        0.0301
     38 H          -4.7456    1.5008    0.1938 H       1  UNL1        0.0268
     39 H          -4.8177    0.6043    1.7712 H       1  UNL1        0.0268
     40 H          -7.0011    0.9690    0.8237 H       1  UNL1        0.0265
     41 H          -6.5921   -0.8181    0.8789 H       1  UNL1        0.0265
     42 H          -6.2214    0.9454   -1.6045 H       1  UNL1        0.0265
     43 H          -7.6179   -0.2042   -1.3098 H       1  UNL1        0.0265
     44 H          -6.2694   -2.0873   -1.1072 H       1  UNL1        0.0265
     45 H          -5.8260   -1.2571   -2.6205 H       1  UNL1        0.0265
     46 H          -3.9299   -2.1938   -1.1319 H       1  UNL1        0.0268
     47 H          -3.7451   -0.6542   -1.9924 H       1  UNL1        0.0268
     48 H           4.0520    2.5227   -2.4585 H       1  UNL1        0.0394
     49 H           4.9262    3.2631   -1.0847 H       1  UNL1        0.0394
     50 H           6.6074    2.1033    0.1065 H       1  UNL1        0.0621
     51 H           8.3273    0.2751    0.0195 H       1  UNL1        0.0633
     52 H           8.1436   -1.5204   -1.6129 H       1  UNL1        0.0829
     53 H           4.6378    0.1547   -3.1273 H       1  UNL1        0.0832
     54 H           1.6694   -3.1573    2.3869 H       1  UNL1        0.1822
     55 H           3.5894   -4.1047    1.5636 H       1  UNL1        0.2414
@<TRIPOS>BOND
     1     1     2    2
     2     2     3    1
     3     3     4    1
     4     4     5    1
     5     5     6    1
     6     6     7    1
     7     7     8    1
     8     8     9    1
     9     9    10    1
    10    10    11    1
    11    11    12    1
    12    12    13    1
    13     4    14    1
    14    14    15   ar
    15    15    16   ar
    16    16    17    1
    17    17    18    1
    18    18    19   ar
    19    19    20   ar
    20    20    21   ar
    21    21    22   ar
    22    22    23   ar
    23    16    24   ar
    24    24    25   ar
    25     2    26   am
    26    26    27    1
    27    13     8    1
    28    25    14   ar
    29    23    18   ar
    30     3    28    1
    31     3    29    1
    32     4    30    1
    33     5    31    1
    34     5    32    1
    35     6    33    1
    36     6    34    1
    37     7    35    1
    38     7    36    1
    39     8    37    1
    40     9    38    1
    41     9    39    1
    42    10    40    1
    43    10    41    1
    44    11    42    1
    45    11    43    1
    46    12    44    1
    47    12    45    1
    48    13    46    1
    49    13    47    1
    50    17    48    1
    51    17    49    1
    52    19    50    1
    53    20    51    1
    54    21    52    1
    55    23    53    1
    56    26    54    1
    57    27    55    1
