@<TRIPOS>MOLECULE
*****
 46 49 0 0 0
SMALL
GASTEIGER

@<TRIPOS>ATOM
      1 C          -1.5646   -2.8411   -1.2489 C.3     1  UNL1       -0.0116
      2 C          -1.1631   -1.4412   -0.8580 C.3     1  UNL1        0.2143
      3 O          -1.4906   -0.4886   -1.8402 O.3     1  UNL1       -0.4283
      4 C          -1.9809    0.6251   -1.1831 C.2     1  UNL1        0.4277
      5 O          -2.1583    1.7428   -1.7776 O.2     1  UNL1       -0.2241
      6 N          -2.2644    0.4127    0.1940 N.am    1  UNL1       -0.1185
      7 N          -2.7566    1.2521    1.1729 N.pl3   1  UNL1       -0.2525
      8 C          -4.1762    1.0528    1.0589 C.ar    1  UNL1        0.0452
      9 C          -4.9655    0.1167    1.6968 C.ar    1  UNL1       -0.0394
     10 C          -6.3108    0.0897    1.4525 C.ar    1  UNL1       -0.0600
     11 C          -6.9569    0.9526    0.5917 C.ar    1  UNL1       -0.0616
     12 C          -6.1449    1.8949   -0.0471 C.ar    1  UNL1       -0.0600
     13 C          -4.7860    1.9484    0.1773 C.ar    1  UNL1       -0.0394
     14 C          -1.8985   -0.9556    0.3304 C.2     1  UNL1        0.2893
     15 O          -2.1396   -1.7286    1.3228 O.2     1  UNL1       -0.2687
     16 C           0.3192   -1.3884   -0.6932 C.ar    1  UNL1        0.0048
     17 C           1.1272   -0.8887   -1.7221 C.ar    1  UNL1       -0.0509
     18 C           2.4852   -0.7873   -1.7019 C.ar    1  UNL1       -0.0189
     19 C           3.1338   -1.2159   -0.5616 C.ar    1  UNL1        0.1285
     20 O           4.5214   -1.1057   -0.5568 O.3     1  UNL1       -0.4560
     21 C           5.1013    0.0456   -0.0835 C.ar    1  UNL1        0.1284
     22 C           6.4902   -0.0149   -0.1587 C.ar    1  UNL1       -0.0193
     23 C           7.2757    1.0503    0.2704 C.ar    1  UNL1       -0.0583
     24 C           6.6899    2.1928    0.7813 C.ar    1  UNL1       -0.0615
     25 C           5.3115    2.2322    0.8472 C.ar    1  UNL1       -0.0583
     26 C           4.5338    1.1818    0.4241 C.ar    1  UNL1       -0.0193
     27 C           2.3906   -1.7195    0.4899 C.ar    1  UNL1       -0.0189
     28 C           1.0239   -1.8050    0.4300 C.ar    1  UNL1       -0.0509
     29 H          -1.2612   -3.0195   -2.2958 H       1  UNL1        0.0276
     30 H          -0.9570   -3.5277   -0.6243 H       1  UNL1        0.0276
     31 H          -2.6392   -3.0314   -1.0473 H       1  UNL1        0.0276
     32 H          -2.3149    1.8884    1.8522 H       1  UNL1        0.1708
     33 H          -4.4233   -0.5282    2.3516 H       1  UNL1        0.0636
     34 H          -6.9109   -0.6615    1.9711 H       1  UNL1        0.0618
     35 H          -8.0326    0.9124    0.4117 H       1  UNL1        0.0618
     36 H          -6.6923    2.5583   -0.7190 H       1  UNL1        0.0618
     37 H          -4.3201    2.7377   -0.3998 H       1  UNL1        0.0636
     38 H           0.5902   -0.5564   -2.6123 H       1  UNL1        0.0623
     39 H           3.0247   -0.3867   -2.5480 H       1  UNL1        0.0654
     40 H           7.0880   -0.8505   -0.5385 H       1  UNL1        0.0654
     41 H           8.3583    1.0473    0.2304 H       1  UNL1        0.0619
     42 H           7.2746    3.0350    1.1217 H       1  UNL1        0.0618
     43 H           4.7812    3.0910    1.2346 H       1  UNL1        0.0619
     44 H           3.4474    1.1329    0.4414 H       1  UNL1        0.0654
     45 H           2.9188   -2.0528    1.3811 H       1  UNL1        0.0654
     46 H           0.4216   -2.1980    1.2460 H       1  UNL1        0.0623
@<TRIPOS>BOND
     1     2     1    1
     2     2     3    1
     3     3     4    1
     4     4     5    2
     5     4     6   am
     6     6     7    1
     7     7     8    1
     8     8     9   ar
     9     9    10   ar
    10    10    11   ar
    11    11    12   ar
    12    12    13   ar
    13     6    14   am
    14    14    15    2
    15     2    16    1
    16    16    17   ar
    17    17    18   ar
    18    18    19   ar
    19    19    20    1
    20    20    21    1
    21    21    22   ar
    22    22    23   ar
    23    23    24   ar
    24    24    25   ar
    25    25    26   ar
    26    19    27   ar
    27    27    28   ar
    28    14     2    1
    29    28    16   ar
    30    13     8   ar
    31    26    21   ar
    32     1    29    1
    33     1    30    1
    34     1    31    1
    35     7    32    1
    36     9    33    1
    37    10    34    1
    38    11    35    1
    39    12    36    1
    40    13    37    1
    41    17    38    1
    42    18    39    1
    43    22    40    1
    44    23    41    1
    45    24    42    1
    46    25    43    1
    47    26    44    1
    48    27    45    1
    49    28    46    1
