@<TRIPOS>MOLECULE
*****
 47 50 0 0 0
SMALL
GASTEIGER

@<TRIPOS>ATOM
      1 N           7.5827    2.5486   -3.2912 N.1     1  UNL1       -0.1908
      2 C           6.7060    2.1572   -2.6117 C.1     1  UNL1        0.1007
      3 C           5.6572    1.6762   -1.7752 C.ar    1  UNL1        0.0702
      4 C           4.3498    2.0352   -2.0373 C.ar    1  UNL1        0.0458
      5 N           3.3421    1.6034   -1.2665 N.ar    1  UNL1       -0.2487
      6 C           3.5365    0.7889   -0.1820 C.ar    1  UNL1        0.1311
      7 C           2.3463    0.3900    0.6049 C.2     1  UNL1        0.2669
      8 O           2.3497   -0.4998    1.4735 O.2     1  UNL1       -0.2682
      9 N           1.1116    1.0673    0.3614 N.am    1  UNL1       -0.2802
     10 C          -0.1044    0.7727    1.0479 C.ar    1  UNL1        0.0342
     11 C          -0.3828    1.2681    2.2926 C.ar    1  UNL1       -0.0377
     12 C          -1.5210    1.0645    3.0135 C.ar    1  UNL1       -0.0243
     13 C          -2.4912    0.2581    2.3900 C.ar    1  UNL1        0.1292
     14 F          -3.6634    0.0631    3.0617 F       1  UNL1       -0.2051
     15 C          -2.2839   -0.2699    1.1559 C.ar    1  UNL1        0.0228
     16 C          -3.3128   -1.1769    0.5206 C.3     1  UNL1        0.1603
     17 C          -3.3372   -2.4566    1.3202 C.3     1  UNL1        0.2686
     18 F          -4.2609   -3.3525    0.8009 F       1  UNL1       -0.2062
     19 F          -3.4337   -2.2633    2.6429 F       1  UNL1       -0.2062
     20 N          -4.5570   -0.5006    0.4378 N.2     1  UNL1       -0.2194
     21 C          -4.8773    0.3376   -0.4519 C.2     1  UNL1        0.2764
     22 N          -6.1504    1.0151   -0.5082 N.pl3   1  UNL1       -0.3134
     23 O          -3.8777    0.5835   -1.4243 O.2     1  UNL1       -0.4622
     24 C          -3.1554   -0.5385   -1.8775 C.3     1  UNL1        0.1091
     25 C          -3.8188   -1.8926   -1.9342 C.3     1  UNL1       -0.0064
     26 C          -2.8002   -1.5387   -0.8882 C.3     1  UNL1        0.0344
     27 C          -1.1091   -0.0286    0.4702 C.ar    1  UNL1       -0.0321
     28 C           4.8040    0.4161    0.1057 C.ar    1  UNL1        0.0095
     29 C           5.0760   -0.4416    1.2920 C.3     1  UNL1        0.0714
     30 O           4.7215   -1.7438    1.0110 O.3     1  UNL1       -0.3903
     31 C           5.8827    0.8409   -0.6689 C.ar    1  UNL1       -0.0353
     32 H           4.1330    2.6945   -2.8979 H       1  UNL1        0.0843
     33 H           1.1393    1.8240   -0.3759 H       1  UNL1        0.1552
     34 H           0.3796    1.8885    2.7671 H       1  UNL1        0.0637
     35 H          -1.7156    1.4662    3.9948 H       1  UNL1        0.0647
     36 H          -2.3215   -2.9267    1.1237 H       1  UNL1        0.1047
     37 H          -6.4128    1.7169    0.2054 H       1  UNL1        0.1466
     38 H          -6.7886    0.7746   -1.2823 H       1  UNL1        0.1466
     39 H          -2.4391   -0.3619   -2.7258 H       1  UNL1        0.0737
     40 H          -3.5216   -2.5971   -2.7143 H       1  UNL1        0.0306
     41 H          -4.8715   -1.9100   -1.5625 H       1  UNL1        0.0306
     42 H          -1.8702   -2.1145   -0.9176 H       1  UNL1        0.0366
     43 H          -0.8829   -0.4118   -0.5113 H       1  UNL1        0.0640
     44 H           4.4731   -0.0674    2.1347 H       1  UNL1        0.0608
     45 H           6.1399   -0.3565    1.6139 H       1  UNL1        0.0608
     46 H           5.3475   -2.3609    1.4987 H       1  UNL1        0.2098
     47 H           6.8827    0.5587   -0.4570 H       1  UNL1        0.0635
@<TRIPOS>BOND
     1     1     2    3
     2     2     3    1
     3     3     4   ar
     4     4     5   ar
     5     5     6   ar
     6     6     7    1
     7     7     8    2
     8     7     9   am
     9     9    10    1
    10    10    11   ar
    11    11    12   ar
    12    12    13   ar
    13    13    14    1
    14    13    15   ar
    15    15    16    1
    16    16    17    1
    17    17    18    1
    18    17    19    1
    19    16    20    1
    20    20    21    2
    21    21    22    1
    22    21    23    1
    23    23    24    1
    24    24    25    1
    25    25    26    1
    26    15    27   ar
    27     6    28   ar
    28    28    29    1
    29    29    30    1
    30    28    31   ar
    31    31     3   ar
    32    27    10   ar
    33    26    16    1
    34    26    24    1
    35     4    32    1
    36     9    33    1
    37    11    34    1
    38    12    35    1
    39    17    36    1
    40    22    37    1
    41    22    38    1
    42    24    39    1
    43    25    40    1
    44    25    41    1
    45    26    42    1
    46    27    43    1
    47    29    44    1
    48    29    45    1
    49    30    46    1
    50    31    47    1
