
     RDKit          3D

 47 50  0  0  0  0  0  0  0  0999 V2000
    7.5827    2.5486   -3.2912 N   0  0  0  0  0  0  0  0  0  0  0  0
    6.7060    2.1572   -2.6117 C   0  0  0  0  0  0  0  0  0  0  0  0
    5.6572    1.6762   -1.7752 C   0  0  0  0  0  0  0  0  0  0  0  0
    4.3498    2.0352   -2.0373 C   0  0  0  0  0  0  0  0  0  0  0  0
    3.3421    1.6034   -1.2665 N   0  0  0  0  0  0  0  0  0  0  0  0
    3.5365    0.7889   -0.1820 C   0  0  0  0  0  0  0  0  0  0  0  0
    2.3463    0.3900    0.6049 C   0  0  0  0  0  0  0  0  0  0  0  0
    2.3497   -0.4998    1.4735 O   0  0  0  0  0  0  0  0  0  0  0  0
    1.1116    1.0673    0.3614 N   0  0  0  0  0  0  0  0  0  0  0  0
   -0.1044    0.7727    1.0479 C   0  0  0  0  0  0  0  0  0  0  0  0
   -0.3828    1.2681    2.2926 C   0  0  0  0  0  0  0  0  0  0  0  0
   -1.5210    1.0645    3.0135 C   0  0  0  0  0  0  0  0  0  0  0  0
   -2.4912    0.2581    2.3900 C   0  0  0  0  0  0  0  0  0  0  0  0
   -3.6634    0.0631    3.0617 F   0  0  0  0  0  0  0  0  0  0  0  0
   -2.2839   -0.2699    1.1559 C   0  0  0  0  0  0  0  0  0  0  0  0
   -3.3128   -1.1769    0.5206 C   0  0  1  0  0  0  0  0  0  0  0  0
   -3.3372   -2.4566    1.3202 C   0  0  0  0  0  0  0  0  0  0  0  0
   -4.2609   -3.3525    0.8009 F   0  0  0  0  0  0  0  0  0  0  0  0
   -3.4337   -2.2633    2.6429 F   0  0  0  0  0  0  0  0  0  0  0  0
   -4.5570   -0.5006    0.4378 N   0  0  0  0  0  0  0  0  0  0  0  0
   -4.8773    0.3376   -0.4519 C   0  0  0  0  0  0  0  0  0  0  0  0
   -6.1504    1.0151   -0.5082 N   0  0  0  0  0  0  0  0  0  0  0  0
   -3.8777    0.5835   -1.4243 O   0  0  0  0  0  0  0  0  0  0  0  0
   -3.1554   -0.5385   -1.8775 C   0  0  2  0  0  0  0  0  0  0  0  0
   -3.8188   -1.8926   -1.9342 C   0  0  0  0  0  0  0  0  0  0  0  0
   -2.8002   -1.5387   -0.8882 C   0  0  2  0  0  0  0  0  0  0  0  0
   -1.1091   -0.0286    0.4702 C   0  0  0  0  0  0  0  0  0  0  0  0
    4.8040    0.4161    0.1057 C   0  0  0  0  0  0  0  0  0  0  0  0
    5.0760   -0.4416    1.2920 C   0  0  0  0  0  0  0  0  0  0  0  0
    4.7215   -1.7438    1.0110 O   0  0  0  0  0  0  0  0  0  0  0  0
    5.8827    0.8409   -0.6689 C   0  0  0  0  0  0  0  0  0  0  0  0
    4.1330    2.6945   -2.8979 H   0  0  0  0  0  0  0  0  0  0  0  0
    1.1393    1.8240   -0.3759 H   0  0  0  0  0  0  0  0  0  0  0  0
    0.3796    1.8885    2.7671 H   0  0  0  0  0  0  0  0  0  0  0  0
   -1.7156    1.4662    3.9948 H   0  0  0  0  0  0  0  0  0  0  0  0
   -2.3215   -2.9267    1.1237 H   0  0  0  0  0  0  0  0  0  0  0  0
   -6.4128    1.7169    0.2054 H   0  0  0  0  0  0  0  0  0  0  0  0
   -6.7886    0.7746   -1.2823 H   0  0  0  0  0  0  0  0  0  0  0  0
   -2.4391   -0.3619   -2.7258 H   0  0  0  0  0  0  0  0  0  0  0  0
   -3.5216   -2.5971   -2.7143 H   0  0  0  0  0  0  0  0  0  0  0  0
   -4.8715   -1.9100   -1.5625 H   0  0  0  0  0  0  0  0  0  0  0  0
   -1.8702   -2.1145   -0.9176 H   0  0  0  0  0  0  0  0  0  0  0  0
   -0.8829   -0.4118   -0.5113 H   0  0  0  0  0  0  0  0  0  0  0  0
    4.4731   -0.0674    2.1347 H   0  0  0  0  0  0  0  0  0  0  0  0
    6.1399   -0.3565    1.6139 H   0  0  0  0  0  0  0  0  0  0  0  0
    5.3475   -2.3609    1.4987 H   0  0  0  0  0  0  0  0  0  0  0  0
    6.8827    0.5587   -0.4570 H   0  0  0  0  0  0  0  0  0  0  0  0
  1  2  3  0
  2  3  1  0
  3  4  2  0
  4  5  1  0
  5  6  2  0
  6  7  1  0
  7  8  2  0
  7  9  1  0
  9 10  1  0
 10 11  2  0
 11 12  1  0
 12 13  2  0
 13 14  1  0
 13 15  1  0
 15 16  1  0
 16 17  1  1
 17 18  1  0
 17 19  1  0
 16 20  1  0
 20 21  2  0
 21 22  1  0
 21 23  1  0
 23 24  1  0
 24 25  1  0
 25 26  1  0
 15 27  2  0
  6 28  1  0
 28 29  1  0
 29 30  1  0
 28 31  2  0
 31  3  1  0
 27 10  1  0
 26 16  1  0
 26 24  1  0
  4 32  1  0
  9 33  1  0
 11 34  1  0
 12 35  1  0
 17 36  1  0
 22 37  1  0
 22 38  1  0
 24 39  1  6
 25 40  1  0
 25 41  1  0
 26 42  1  1
 27 43  1  0
 29 44  1  0
 29 45  1  0
 30 46  1  0
 31 47  1  0
M  END
$$$$
