@<TRIPOS>MOLECULE
*****
 37 37 0 0 0
SMALL
GASTEIGER

@<TRIPOS>ATOM
      1 C          -3.6022    1.6079    1.7002 C.3     1  UNL1       -0.0524
      2 C          -3.9354    0.6423    0.6020 C.3     1  UNL1       -0.0038
      3 N          -3.0492   -0.4089    0.3431 N.3     1  UNL1       -0.2996
      4 C          -3.5368   -1.2845   -0.7286 C.3     1  UNL1       -0.0038
      5 C          -3.5486   -0.6290   -2.0713 C.3     1  UNL1       -0.0524
      6 C          -1.6684   -0.2021    0.2000 C.3     1  UNL1        0.0332
      7 C          -0.8479    0.1636    1.3708 C.3     1  UNL1        0.1054
      8 O           0.5152    0.3125    0.9326 O.3     1  UNL1       -0.4598
      9 C           1.2631   -0.6839    0.3749 C.2     1  UNL1        0.3406
     10 O           0.9013   -1.8647    0.1583 O.2     1  UNL1       -0.2449
     11 C           2.6459   -0.3717   -0.0268 C.ar    1  UNL1        0.0774
     12 C           3.4260   -1.3519   -0.6419 C.ar    1  UNL1        0.0567
     13 CL          2.8026   -2.9602   -0.9613 Cl      1  UNL1       -0.0826
     14 C           4.7327   -1.0416   -1.0131 C.ar    1  UNL1       -0.0219
     15 C           5.2150    0.2156   -0.7643 C.ar    1  UNL1        0.0260
     16 N           6.5441    0.5486   -1.1367 N.pl3   1  UNL1       -0.3579
     17 C           4.4938    1.2148   -0.1641 C.ar    1  UNL1       -0.0402
     18 C           3.1912    0.8969    0.2031 C.ar    1  UNL1       -0.0446
     19 H          -4.5406    2.1740    2.0228 H       1  UNL1        0.0242
     20 H          -3.2720    1.1220    2.6265 H       1  UNL1        0.0242
     21 H          -2.9521    2.4190    1.3227 H       1  UNL1        0.0242
     22 H          -4.2672    1.1956   -0.3282 H       1  UNL1        0.0424
     23 H          -4.9142    0.1607    0.9292 H       1  UNL1        0.0424
     24 H          -4.5407   -1.6222   -0.4482 H       1  UNL1        0.0424
     25 H          -2.8618   -2.1660   -0.7428 H       1  UNL1        0.0424
     26 H          -2.6368   -0.0283   -2.2468 H       1  UNL1        0.0242
     27 H          -3.4914   -1.4674   -2.8243 H       1  UNL1        0.0242
     28 H          -4.4862   -0.1029   -2.3317 H       1  UNL1        0.0242
     29 H          -1.2325   -1.1626   -0.2164 H       1  UNL1        0.0460
     30 H          -1.4539    0.5423   -0.6074 H       1  UNL1        0.0460
     31 H          -1.0639    1.1383    1.8334 H       1  UNL1        0.0710
     32 H          -0.8923   -0.5734    2.2054 H       1  UNL1        0.0710
     33 H           5.3496   -1.7919   -1.4913 H       1  UNL1        0.0651
     34 H           7.3511    0.0245   -1.5187 H       1  UNL1        0.1423
     35 H           6.9640    1.4890   -1.0765 H       1  UNL1        0.1423
     36 H           4.8625    2.2158    0.0406 H       1  UNL1        0.0636
     37 H           2.5359    1.6295    0.6905 H       1  UNL1        0.0627
@<TRIPOS>BOND
     1     1     2    1
     2     2     3    1
     3     3     4    1
     4     4     5    1
     5     3     6    1
     6     6     7    1
     7     7     8    1
     8     8     9    1
     9     9    10    2
    10     9    11    1
    11    11    12   ar
    12    12    13    1
    13    12    14   ar
    14    14    15   ar
    15    15    16    1
    16    15    17   ar
    17    17    18   ar
    18    18    11   ar
    19     1    19    1
    20     1    20    1
    21     1    21    1
    22     2    22    1
    23     2    23    1
    24     4    24    1
    25     4    25    1
    26     5    26    1
    27     5    27    1
    28     5    28    1
    29     6    29    1
    30     6    30    1
    31     7    31    1
    32     7    32    1
    33    14    33    1
    34    16    34    1
    35    16    35    1
    36    17    36    1
    37    18    37    1
