@<TRIPOS>MOLECULE
*****
 53 57 0 0 0
SMALL
GASTEIGER

@<TRIPOS>ATOM
      1 C          -8.9966   -0.4312   -0.0725 C.3     1  UNL1        0.0003
      2 N          -8.0085   -0.2578   -1.1081 N.pl3   1  UNL1       -0.3165
      3 C          -6.6541   -0.6177   -0.9086 C.ar    1  UNL1        0.2154
      4 N          -6.2167   -1.8593   -1.2042 N.ar    1  UNL1       -0.2229
      5 C          -4.9397   -2.2286   -1.0257 C.ar    1  UNL1        0.0332
      6 C          -3.9886   -1.3308   -0.5175 C.ar    1  UNL1       -0.0172
      7 C          -4.4327   -0.0755   -0.2190 C.ar    1  UNL1        0.0811
      8 C          -3.5656    0.9747    0.3182 C.ar    1  UNL1        0.0624
      9 C          -4.1476    2.2172    0.5780 C.ar    1  UNL1       -0.0460
     10 C          -3.4238    3.2641    1.0809 C.ar    1  UNL1       -0.0427
     11 C          -2.0775    3.0741    1.3351 C.ar    1  UNL1        0.0314
     12 N          -1.5378    1.8774    1.0799 N.ar    1  UNL1       -0.2204
     13 C          -2.2435    0.8394    0.5842 C.ar    1  UNL1        0.2297
     14 O          -1.5787   -0.3228    0.3705 O.3     1  UNL1       -0.4371
     15 C          -0.2663   -0.6122    0.5706 C.ar    1  UNL1        0.1334
     16 C           0.1080   -1.5886    1.4620 C.ar    1  UNL1       -0.0173
     17 C           1.4139   -1.9268    1.7072 C.ar    1  UNL1       -0.0370
     18 C           2.4142   -1.2448    1.0164 C.ar    1  UNL1        0.0340
     19 N           3.7396   -1.6246    1.2998 N.pl3   1  UNL1       -0.2851
     20 C           4.8779   -1.0389    0.6907 C.ar    1  UNL1        0.1983
     21 N           4.9793   -0.0696   -0.2209 N.ar    1  UNL1       -0.2144
     22 C           6.2565    0.1917   -0.5340 C.ar    1  UNL1        0.0907
     23 C           6.8736    1.0749   -1.3931 C.ar    1  UNL1       -0.0342
     24 C           8.2445    1.1135   -1.5031 C.ar    1  UNL1       -0.0596
     25 C           9.0516    0.2608   -0.7495 C.ar    1  UNL1       -0.0597
     26 C           8.4057   -0.6104    0.0998 C.ar    1  UNL1       -0.0362
     27 C           7.0305   -0.6625    0.2227 C.ar    1  UNL1        0.0674
     28 N           6.1762   -1.3903    0.9492 N.ar    1  UNL1       -0.3258
     29 C           2.0545   -0.2763    0.1313 C.ar    1  UNL1       -0.0341
     30 C           0.7163    0.0565   -0.1074 C.ar    1  UNL1       -0.0064
     31 C           0.3982    1.1343   -1.1139 C.3     1  UNL1       -0.0362
     32 N          -5.7435    0.2346   -0.4244 N.ar    1  UNL1       -0.2143
     33 H          -9.9495   -0.8577   -0.4408 H       1  UNL1        0.0426
     34 H          -9.2376    0.5276    0.4292 H       1  UNL1        0.0426
     35 H          -8.5981   -1.0967    0.7429 H       1  UNL1        0.0426
     36 H          -8.2988    0.1396   -2.0187 H       1  UNL1        0.1486
     37 H          -4.5817   -3.2301   -1.2630 H       1  UNL1        0.0831
     38 H          -2.9792   -1.6693   -0.3915 H       1  UNL1        0.0654
     39 H          -5.2076    2.3925    0.3861 H       1  UNL1        0.0626
     40 H          -3.8981    4.2255    1.2763 H       1  UNL1        0.0633
     41 H          -1.5127    3.9178    1.7360 H       1  UNL1        0.0831
     42 H          -0.6416   -2.1591    2.0352 H       1  UNL1        0.0655
     43 H           1.6863   -2.7100    2.4237 H       1  UNL1        0.0637
     44 H           3.9264   -2.3952    2.0099 H       1  UNL1        0.1550
     45 H           6.2622    1.7395   -1.9813 H       1  UNL1        0.0639
     46 H           8.7263    1.8094   -2.1797 H       1  UNL1        0.0618
     47 H          10.1325    0.2984   -0.8430 H       1  UNL1        0.0618
     48 H           8.9953   -1.2890    0.7024 H       1  UNL1        0.0639
     49 H           6.4663   -2.1367    1.6313 H       1  UNL1        0.1686
     50 H           2.7833    0.2851   -0.4322 H       1  UNL1        0.0640
     51 H           1.0460    0.9012   -1.9862 H       1  UNL1        0.0279
     52 H           0.6208    2.0996   -0.6573 H       1  UNL1        0.0279
     53 H          -0.6597    1.0635   -1.4304 H       1  UNL1        0.0279
@<TRIPOS>BOND
     1     1     2    1
     2     2     3    1
     3     3     4   ar
     4     4     5   ar
     5     5     6   ar
     6     6     7   ar
     7     7     8    1
     8     8     9   ar
     9     9    10   ar
    10    10    11   ar
    11    11    12   ar
    12    12    13   ar
    13    13    14    1
    14    14    15    1
    15    15    16   ar
    16    16    17   ar
    17    17    18   ar
    18    18    19    1
    19    19    20    1
    20    20    21   ar
    21    21    22   ar
    22    22    23   ar
    23    23    24   ar
    24    24    25   ar
    25    25    26   ar
    26    26    27   ar
    27    27    28   ar
    28    18    29   ar
    29    29    30   ar
    30    30    31    1
    31     7    32   ar
    32    32     3   ar
    33    13     8   ar
    34    30    15   ar
    35    28    20   ar
    36    27    22   ar
    37     1    33    1
    38     1    34    1
    39     1    35    1
    40     2    36    1
    41     5    37    1
    42     6    38    1
    43     9    39    1
    44    10    40    1
    45    11    41    1
    46    16    42    1
    47    17    43    1
    48    19    44    1
    49    23    45    1
    50    24    46    1
    51    25    47    1
    52    26    48    1
    53    28    49    1
    54    29    50    1
    55    31    51    1
    56    31    52    1
    57    31    53    1
