
     RDKit          3D

 41 44  0  0  0  0  0  0  0  0999 V2000
    2.6783   -3.8302   -0.8053 N   0  0  0  0  0  0  0  0  0  0  0  0
    3.4425   -2.7053   -1.2163 C   0  0  0  0  0  0  0  0  0  0  0  0
    4.5795   -2.8569   -1.6991 O   0  0  0  0  0  0  0  0  0  0  0  0
    2.9111   -1.3542   -1.0809 C   0  0  0  0  0  0  0  0  0  0  0  0
    3.6767   -0.2737   -1.4893 C   0  0  0  0  0  0  0  0  0  0  0  0
    3.2355    1.0285   -1.3896 C   0  0  0  0  0  0  0  0  0  0  0  0
    4.1892    2.4042   -1.9004 Cl  0  0  0  0  0  0  0  0  0  0  0  0
    1.9709    1.2047   -0.8533 C   0  0  0  0  0  0  0  0  0  0  0  0
    1.2349    2.3657   -0.6157 C   0  0  0  0  0  0  0  0  0  0  0  0
    1.8247    3.9720   -0.9909 Cl  0  0  0  0  0  0  0  0  0  0  0  0
    0.0507    1.9573   -0.0729 C   0  0  0  0  0  0  0  0  0  0  0  0
   -1.0585    2.8507    0.3507 C   0  0  0  0  0  0  0  0  0  0  0  0
   -1.1262    3.2859    1.8064 C   0  0  0  0  0  0  0  0  0  0  0  0
   -0.8745    4.2594    0.7058 C   0  0  0  0  0  0  0  0  0  0  0  0
    0.0153    0.5958    0.0384 N   0  0  0  0  0  0  0  0  0  0  0  0
   -1.0947   -0.1467    0.5724 C   0  0  1  0  0  0  0  0  0  0  0  0
   -2.2359   -0.2920   -0.4047 C   0  0  0  0  0  0  0  0  0  0  0  0
   -2.6062   -1.7617   -0.5843 C   0  0  0  0  0  0  0  0  0  0  0  0
   -2.9311   -2.3001    0.7892 C   0  0  0  0  0  0  0  0  0  0  0  0
   -1.8637   -2.0869    1.7227 N   0  0  0  0  0  0  0  0  0  0  0  0
   -0.6849   -1.4912    1.1187 C   0  0  0  0  0  0  0  0  0  0  0  0
    1.1902    0.1489   -0.4400 C   0  0  0  0  0  0  0  0  0  0  0  0
    1.6861   -1.1199   -0.5658 N   0  0  0  0  0  0  0  0  0  0  0  0
    2.6194   -4.7049   -1.3769 H   0  0  0  0  0  0  0  0  0  0  0  0
    2.1349   -3.8437    0.0887 H   0  0  0  0  0  0  0  0  0  0  0  0
    4.6648   -0.4479   -1.9058 H   0  0  0  0  0  0  0  0  0  0  0  0
   -2.0509    2.5708   -0.0577 H   0  0  0  0  0  0  0  0  0  0  0  0
   -2.1118    3.3110    2.3149 H   0  0  0  0  0  0  0  0  0  0  0  0
   -0.3235    2.8822    2.4220 H   0  0  0  0  0  0  0  0  0  0  0  0
   -1.7294    4.9711    0.5033 H   0  0  0  0  0  0  0  0  0  0  0  0
    0.0889    4.7874    0.6293 H   0  0  0  0  0  0  0  0  0  0  0  0
   -1.4723    0.4440    1.4562 H   0  0  0  0  0  0  0  0  0  0  0  0
   -2.0111    0.1687   -1.3904 H   0  0  0  0  0  0  0  0  0  0  0  0
   -3.1774    0.1857   -0.0029 H   0  0  0  0  0  0  0  0  0  0  0  0
   -1.8508   -2.3305   -1.1214 H   0  0  0  0  0  0  0  0  0  0  0  0
   -3.5636   -1.7656   -1.1763 H   0  0  0  0  0  0  0  0  0  0  0  0
   -3.2592   -3.3561    0.7160 H   0  0  0  0  0  0  0  0  0  0  0  0
   -3.8294   -1.7227    1.1478 H   0  0  0  0  0  0  0  0  0  0  0  0
   -2.1315   -1.4962    2.5354 H   0  0  0  0  0  0  0  0  0  0  0  0
   -0.2733   -2.1428    0.3171 H   0  0  0  0  0  0  0  0  0  0  0  0
    0.0663   -1.3650    1.9048 H   0  0  0  0  0  0  0  0  0  0  0  0
  1  2  1  0
  2  3  2  0
  2  4  1  0
  4  5  2  0
  5  6  1  0
  6  7  1  0
  6  8  2  0
  8  9  1  0
  9 10  1  0
  9 11  2  0
 11 12  1  0
 12 13  1  0
 13 14  1  0
 11 15  1  0
 15 16  1  0
 16 17  1  0
 17 18  1  0
 18 19  1  0
 19 20  1  0
 20 21  1  0
 15 22  1  0
 22 23  2  0
 23  4  1  0
 22  8  1  0
 14 12  1  0
 21 16  1  0
  1 24  1  0
  1 25  1  0
  5 26  1  0
 12 27  1  0
 13 28  1  0
 13 29  1  0
 14 30  1  0
 14 31  1  0
 16 32  1  1
 17 33  1  0
 17 34  1  0
 18 35  1  0
 18 36  1  0
 19 37  1  0
 19 38  1  0
 20 39  1  0
 21 40  1  0
 21 41  1  0
M  END
$$$$
