@<TRIPOS>MOLECULE
*****
 41 44 0 0 0
SMALL
GASTEIGER

@<TRIPOS>ATOM
      1 N           2.6783   -3.8302   -0.8053 N.am    1  UNL1       -0.3241
      2 C           3.4425   -2.7053   -1.2163 C.2     1  UNL1        0.2600
      3 O           4.5795   -2.8569   -1.6991 O.2     1  UNL1       -0.2687
      4 C           2.9111   -1.3542   -1.0809 C.ar    1  UNL1        0.1289
      5 C           3.6767   -0.2737   -1.4893 C.ar    1  UNL1       -0.0121
      6 C           3.2355    1.0285   -1.3896 C.ar    1  UNL1        0.0552
      7 CL          4.1892    2.4042   -1.9004 Cl      1  UNL1       -0.0827
      8 C           1.9709    1.2047   -0.8533 C.ar    1  UNL1        0.0558
      9 C           1.2349    2.3657   -0.6157 C.ar    1  UNL1        0.0726
     10 CL          1.8247    3.9720   -0.9909 Cl      1  UNL1       -0.0810
     11 C           0.0507    1.9573   -0.0729 C.ar    1  UNL1        0.0430
     12 C          -1.0585    2.8507    0.3507 C.3     1  UNL1        0.0010
     13 C          -1.1262    3.2859    1.8064 C.3     1  UNL1       -0.0442
     14 C          -0.8745    4.2594    0.7058 C.3     1  UNL1       -0.0442
     15 N           0.0153    0.5958    0.0384 N.ar    1  UNL1       -0.3230
     16 C          -1.0947   -0.1467    0.5724 C.3     1  UNL1        0.0487
     17 C          -2.2359   -0.2920   -0.4047 C.3     1  UNL1       -0.0297
     18 C          -2.6062   -1.7617   -0.5843 C.3     1  UNL1       -0.0385
     19 C          -2.9311   -2.3001    0.7892 C.3     1  UNL1       -0.0040
     20 N          -1.8637   -2.0869    1.7227 N.3     1  UNL1       -0.3140
     21 C          -0.6849   -1.4912    1.1187 C.3     1  UNL1        0.0168
     22 C           1.1902    0.1489   -0.4400 C.ar    1  UNL1        0.1449
     23 N           1.6861   -1.1199   -0.5658 N.ar    1  UNL1       -0.2243
     24 H           2.6194   -4.7049   -1.3769 H       1  UNL1        0.1453
     25 H           2.1349   -3.8437    0.0887 H       1  UNL1        0.1453
     26 H           4.6648   -0.4479   -1.9058 H       1  UNL1        0.0655
     27 H          -2.0509    2.5708   -0.0577 H       1  UNL1        0.0364
     28 H          -2.1118    3.3110    2.3149 H       1  UNL1        0.0272
     29 H          -0.3235    2.8822    2.4220 H       1  UNL1        0.0272
     30 H          -1.7294    4.9711    0.5033 H       1  UNL1        0.0272
     31 H           0.0889    4.7874    0.6293 H       1  UNL1        0.0272
     32 H          -1.4723    0.4440    1.4562 H       1  UNL1        0.0541
     33 H          -2.0111    0.1687   -1.3904 H       1  UNL1        0.0286
     34 H          -3.1774    0.1857   -0.0029 H       1  UNL1        0.0286
     35 H          -1.8508   -2.3305   -1.1214 H       1  UNL1        0.0278
     36 H          -3.5636   -1.7656   -1.1763 H       1  UNL1        0.0278
     37 H          -3.2592   -3.3561    0.7160 H       1  UNL1        0.0424
     38 H          -3.8294   -1.7227    1.1478 H       1  UNL1        0.0424
     39 H          -2.1315   -1.4962    2.5354 H       1  UNL1        0.1220
     40 H          -0.2733   -2.1428    0.3171 H       1  UNL1        0.0444
     41 H           0.0663   -1.3650    1.9048 H       1  UNL1        0.0444
@<TRIPOS>BOND
     1     1     2   am
     2     2     3    2
     3     2     4    1
     4     4     5   ar
     5     5     6   ar
     6     6     7    1
     7     6     8   ar
     8     8     9   ar
     9     9    10    1
    10     9    11   ar
    11    11    12    1
    12    12    13    1
    13    13    14    1
    14    11    15   ar
    15    15    16    1
    16    16    17    1
    17    17    18    1
    18    18    19    1
    19    19    20    1
    20    20    21    1
    21    15    22   ar
    22    22    23   ar
    23    23     4   ar
    24    22     8   ar
    25    14    12    1
    26    21    16    1
    27     1    24    1
    28     1    25    1
    29     5    26    1
    30    12    27    1
    31    13    28    1
    32    13    29    1
    33    14    30    1
    34    14    31    1
    35    16    32    1
    36    17    33    1
    37    17    34    1
    38    18    35    1
    39    18    36    1
    40    19    37    1
    41    19    38    1
    42    20    39    1
    43    21    40    1
    44    21    41    1
