@<TRIPOS>MOLECULE
*****
 43 46 0 0 0
SMALL
GASTEIGER

@<TRIPOS>ATOM
      1 N           8.2201   -2.3495   -4.2658 N.1     1  UNL1       -0.1908
      2 C           7.3229   -2.0219   -3.6528 C.1     1  UNL1        0.1007
      3 C           6.1783   -1.5787   -2.8757 C.ar    1  UNL1        0.0699
      4 C           5.9727   -0.2269   -2.6763 C.ar    1  UNL1       -0.0407
      5 C           4.8709    0.1203   -1.9408 C.ar    1  UNL1       -0.0300
      6 C           3.9752   -0.7688   -1.3991 C.ar    1  UNL1        0.1257
      7 C           2.8329   -0.3433   -0.6090 C.2     1  UNL1        0.2666
      8 O           2.5937    0.8935   -0.3910 O.2     1  UNL1       -0.2682
      9 N           1.9044   -1.2491   -0.0205 N.am    1  UNL1       -0.2802
     10 C           0.7965   -0.7551    0.7647 C.ar    1  UNL1        0.0356
     11 C           0.9187   -0.6666    2.1045 C.ar    1  UNL1       -0.0193
     12 C          -0.0820   -0.1927    2.9473 C.ar    1  UNL1        0.0782
     13 CL          0.1676   -0.1144    4.6406 Cl      1  UNL1       -0.0805
     14 C          -1.2462    0.1974    2.3344 C.ar    1  UNL1        0.1473
     15 F          -2.2211    0.6643    3.1642 F       1  UNL1       -0.2036
     16 C          -1.4131    0.1225    0.9549 C.ar    1  UNL1        0.0213
     17 C          -2.6738    0.5427    0.3282 C.3     1  UNL1        0.1285
     18 C          -2.5631    0.2922   -1.1746 C.3     1  UNL1        0.1199
     19 F          -3.7241    0.6623   -1.8220 F       1  UNL1       -0.2462
     20 N          -3.7675   -0.2381    0.7958 N.2     1  UNL1       -0.2225
     21 C          -4.7604    0.1055    1.5008 C.2     1  UNL1        0.2763
     22 N          -5.7669   -0.8290    1.8691 N.pl3   1  UNL1       -0.3134
     23 O          -4.8448    1.4337    1.9092 O.2     1  UNL1       -0.4622
     24 C          -3.9672    2.4270    1.4272 C.3     1  UNL1        0.1090
     25 C          -4.0884    2.6988   -0.0632 C.3     1  UNL1       -0.0065
     26 C          -2.9055    2.0301    0.5258 C.3     1  UNL1        0.0315
     27 C          -0.3850   -0.3558    0.1798 C.ar    1  UNL1       -0.0321
     28 N           4.1992   -2.0853   -1.6097 N.ar    1  UNL1       -0.2491
     29 C           5.2893   -2.4848   -2.3408 C.ar    1  UNL1        0.0458
     30 H           6.6370    0.5349   -3.0706 H       1  UNL1        0.0631
     31 H           4.6885    1.1781   -1.7753 H       1  UNL1        0.0641
     32 H           2.0583   -2.2712   -0.1700 H       1  UNL1        0.1552
     33 H           1.8529   -0.9824    2.5934 H       1  UNL1        0.0652
     34 H          -2.4004   -0.7774   -1.3676 H       1  UNL1        0.0643
     35 H          -1.7098    0.8559   -1.6285 H       1  UNL1        0.0643
     36 H          -6.0941   -1.5010    1.1606 H       1  UNL1        0.1466
     37 H          -6.1496   -0.8269    2.8195 H       1  UNL1        0.1466
     38 H          -3.8563    3.2778    2.1316 H       1  UNL1        0.0737
     39 H          -4.8819    2.1551   -0.5991 H       1  UNL1        0.0306
     40 H          -4.0596    3.7797   -0.3124 H       1  UNL1        0.0306
     41 H          -1.9775    2.6385    0.4851 H       1  UNL1        0.0365
     42 H          -0.4337   -0.4542   -0.9073 H       1  UNL1        0.0640
     43 H           5.4930   -3.5371   -2.5245 H       1  UNL1        0.0843
@<TRIPOS>BOND
     1     1     2    3
     2     2     3    1
     3     3     4   ar
     4     4     5   ar
     5     5     6   ar
     6     6     7    1
     7     7     8    2
     8     7     9   am
     9     9    10    1
    10    10    11   ar
    11    11    12   ar
    12    12    13    1
    13    12    14   ar
    14    14    15    1
    15    14    16   ar
    16    16    17    1
    17    17    18    1
    18    18    19    1
    19    17    20    1
    20    20    21    2
    21    21    22    1
    22    21    23    1
    23    23    24    1
    24    24    25    1
    25    25    26    1
    26    16    27   ar
    27     6    28   ar
    28    28    29   ar
    29    29     3   ar
    30    27    10   ar
    31    26    17    1
    32    26    24    1
    33     4    30    1
    34     5    31    1
    35     9    32    1
    36    11    33    1
    37    18    34    1
    38    18    35    1
    39    22    36    1
    40    22    37    1
    41    24    38    1
    42    25    39    1
    43    25    40    1
    44    26    41    1
    45    27    42    1
    46    29    43    1
