
     RDKit          3D

 43 46  0  0  0  0  0  0  0  0999 V2000
    8.2201   -2.3495   -4.2658 N   0  0  0  0  0  0  0  0  0  0  0  0
    7.3229   -2.0219   -3.6528 C   0  0  0  0  0  0  0  0  0  0  0  0
    6.1783   -1.5787   -2.8757 C   0  0  0  0  0  0  0  0  0  0  0  0
    5.9727   -0.2269   -2.6763 C   0  0  0  0  0  0  0  0  0  0  0  0
    4.8709    0.1203   -1.9408 C   0  0  0  0  0  0  0  0  0  0  0  0
    3.9752   -0.7688   -1.3991 C   0  0  0  0  0  0  0  0  0  0  0  0
    2.8329   -0.3433   -0.6090 C   0  0  0  0  0  0  0  0  0  0  0  0
    2.5937    0.8935   -0.3910 O   0  0  0  0  0  0  0  0  0  0  0  0
    1.9044   -1.2491   -0.0205 N   0  0  0  0  0  0  0  0  0  0  0  0
    0.7965   -0.7551    0.7647 C   0  0  0  0  0  0  0  0  0  0  0  0
    0.9187   -0.6666    2.1045 C   0  0  0  0  0  0  0  0  0  0  0  0
   -0.0820   -0.1927    2.9473 C   0  0  0  0  0  0  0  0  0  0  0  0
    0.1676   -0.1144    4.6406 Cl  0  0  0  0  0  0  0  0  0  0  0  0
   -1.2462    0.1974    2.3344 C   0  0  0  0  0  0  0  0  0  0  0  0
   -2.2211    0.6643    3.1642 F   0  0  0  0  0  0  0  0  0  0  0  0
   -1.4131    0.1225    0.9549 C   0  0  0  0  0  0  0  0  0  0  0  0
   -2.6738    0.5427    0.3282 C   0  0  1  0  0  0  0  0  0  0  0  0
   -2.5631    0.2922   -1.1746 C   0  0  0  0  0  0  0  0  0  0  0  0
   -3.7241    0.6623   -1.8220 F   0  0  0  0  0  0  0  0  0  0  0  0
   -3.7675   -0.2381    0.7958 N   0  0  0  0  0  0  0  0  0  0  0  0
   -4.7604    0.1055    1.5008 C   0  0  0  0  0  0  0  0  0  0  0  0
   -5.7669   -0.8290    1.8691 N   0  0  0  0  0  0  0  0  0  0  0  0
   -4.8448    1.4337    1.9092 O   0  0  0  0  0  0  0  0  0  0  0  0
   -3.9672    2.4270    1.4272 C   0  0  2  0  0  0  0  0  0  0  0  0
   -4.0884    2.6988   -0.0632 C   0  0  0  0  0  0  0  0  0  0  0  0
   -2.9055    2.0301    0.5258 C   0  0  2  0  0  0  0  0  0  0  0  0
   -0.3850   -0.3558    0.1798 C   0  0  0  0  0  0  0  0  0  0  0  0
    4.1992   -2.0853   -1.6097 N   0  0  0  0  0  0  0  0  0  0  0  0
    5.2893   -2.4848   -2.3408 C   0  0  0  0  0  0  0  0  0  0  0  0
    6.6370    0.5349   -3.0706 H   0  0  0  0  0  0  0  0  0  0  0  0
    4.6885    1.1781   -1.7753 H   0  0  0  0  0  0  0  0  0  0  0  0
    2.0583   -2.2712   -0.1700 H   0  0  0  0  0  0  0  0  0  0  0  0
    1.8529   -0.9824    2.5934 H   0  0  0  0  0  0  0  0  0  0  0  0
   -2.4004   -0.7774   -1.3676 H   0  0  0  0  0  0  0  0  0  0  0  0
   -1.7098    0.8559   -1.6285 H   0  0  0  0  0  0  0  0  0  0  0  0
   -6.0941   -1.5010    1.1606 H   0  0  0  0  0  0  0  0  0  0  0  0
   -6.1496   -0.8269    2.8195 H   0  0  0  0  0  0  0  0  0  0  0  0
   -3.8563    3.2778    2.1316 H   0  0  0  0  0  0  0  0  0  0  0  0
   -4.8819    2.1551   -0.5991 H   0  0  0  0  0  0  0  0  0  0  0  0
   -4.0596    3.7797   -0.3124 H   0  0  0  0  0  0  0  0  0  0  0  0
   -1.9775    2.6385    0.4851 H   0  0  0  0  0  0  0  0  0  0  0  0
   -0.4337   -0.4542   -0.9073 H   0  0  0  0  0  0  0  0  0  0  0  0
    5.4930   -3.5371   -2.5245 H   0  0  0  0  0  0  0  0  0  0  0  0
  1  2  3  0
  2  3  1  0
  3  4  2  0
  4  5  1  0
  5  6  2  0
  6  7  1  0
  7  8  2  0
  7  9  1  0
  9 10  1  0
 10 11  2  0
 11 12  1  0
 12 13  1  0
 12 14  2  0
 14 15  1  0
 14 16  1  0
 16 17  1  0
 17 18  1  6
 18 19  1  0
 17 20  1  0
 20 21  2  0
 21 22  1  0
 21 23  1  0
 23 24  1  0
 24 25  1  0
 25 26  1  0
 16 27  2  0
  6 28  1  0
 28 29  2  0
 29  3  1  0
 27 10  1  0
 26 17  1  0
 26 24  1  0
  4 30  1  0
  5 31  1  0
  9 32  1  0
 11 33  1  0
 18 34  1  0
 18 35  1  0
 22 36  1  0
 22 37  1  0
 24 38  1  1
 25 39  1  0
 25 40  1  0
 26 41  1  1
 27 42  1  0
 29 43  1  0
M  END
$$$$
