
     RDKit          3D

 62 65  0  0  0  0  0  0  0  0999 V2000
    1.7428   -0.0284    0.8023 O   0  0  0  0  0  0  0  0  0  0  0  0
    1.0127    0.2341   -0.1651 C   0  0  0  0  0  0  0  0  0  0  0  0
    1.6825    0.4286   -1.4188 N   0  0  0  0  0  0  0  0  0  0  0  0
    3.1241    0.3248   -1.5076 C   0  0  0  0  0  0  0  0  0  0  0  0
    3.8321    1.3231   -0.6581 C   0  0  0  0  0  0  0  0  0  0  0  0
    5.3166    1.1727   -0.8045 C   0  0  0  0  0  0  0  0  0  0  0  0
    5.8535   -0.0919   -0.4382 N   0  0  0  0  0  0  0  0  0  0  0  0
    6.0450   -1.2224   -1.3259 C   0  0  0  0  0  0  0  0  0  0  0  0
    7.3937   -1.7379   -0.8008 C   0  0  0  0  0  0  0  0  0  0  0  0
    7.1455   -1.6641    0.6113 O   0  0  0  0  0  0  0  0  0  0  0  0
    6.3353   -0.5612    0.8385 C   0  0  0  0  0  0  0  0  0  0  0  0
    6.0134    0.0073    1.9132 O   0  0  0  0  0  0  0  0  0  0  0  0
   -0.4382    0.3481   -0.1013 C   0  0  0  0  0  0  0  0  0  0  0  0
   -1.0139    1.3067   -0.9947 C   0  0  0  0  0  0  0  0  0  0  0  0
   -2.3056    1.6030   -0.8451 N   0  0  0  0  0  0  0  0  0  0  0  0
   -3.0735    1.0458    0.0963 C   0  0  0  0  0  0  0  0  0  0  0  0
   -4.4617    1.4304    0.1924 N   0  0  0  0  0  0  0  0  0  0  0  0
   -4.9947    2.3937   -0.7289 C   0  0  0  0  0  0  0  0  0  0  0  0
   -6.4174    2.6614   -0.4240 C   0  0  0  0  0  0  0  0  0  0  0  0
   -6.7726    3.8337    0.2075 C   0  0  0  0  0  0  0  0  0  0  0  0
   -8.0710    4.1604    0.5254 C   0  0  0  0  0  0  0  0  0  0  0  0
   -8.5292    5.6467    1.3260 Cl  0  0  0  0  0  0  0  0  0  0  0  0
   -9.0609    3.2678    0.1935 C   0  0  0  0  0  0  0  0  0  0  0  0
   -8.7509    2.0753   -0.4427 C   0  0  0  0  0  0  0  0  0  0  0  0
   -7.4356    1.7900   -0.7418 C   0  0  0  0  0  0  0  0  0  0  0  0
   -7.0477    0.2863   -1.5433 Cl  0  0  0  0  0  0  0  0  0  0  0  0
   -2.5261    0.1641    0.9058 N   0  0  0  0  0  0  0  0  0  0  0  0
   -1.1671   -0.2423    0.8520 C   0  0  0  0  0  0  0  0  0  0  0  0
   -0.8326   -1.3114    1.6576 N   0  0  0  0  0  0  0  0  0  0  0  0
    0.1385   -2.2720    1.7969 C   0  0  0  0  0  0  0  0  0  0  0  0
    0.7059   -3.0232    0.6370 C   0  0  0  0  0  0  0  0  0  0  0  0
    1.3294   -4.2244    1.3941 C   0  0  0  0  0  0  0  0  0  0  0  0
    1.8361   -3.6330    2.6763 C   0  0  0  0  0  0  0  0  0  0  0  0
    1.1780   -2.2646    2.8427 C   0  0  0  0  0  0  0  0  0  0  0  0
    1.1262    0.6309   -2.2445 H   0  0  0  0  0  0  0  0  0  0  0  0
    3.3429   -0.7374   -1.1968 H   0  0  0  0  0  0  0  0  0  0  0  0
    3.4405    0.4124   -2.5653 H   0  0  0  0  0  0  0  0  0  0  0  0
    3.5930    2.3356   -1.1087 H   0  0  0  0  0  0  0  0  0  0  0  0
    3.4934    1.3962    0.3730 H   0  0  0  0  0  0  0  0  0  0  0  0
    5.6033    1.4960   -1.8355 H   0  0  0  0  0  0  0  0  0  0  0  0
    5.7945    1.9464   -0.1367 H   0  0  0  0  0  0  0  0  0  0  0  0
    6.1069   -0.9283   -2.3796 H   0  0  0  0  0  0  0  0  0  0  0  0
    5.3302   -2.0292   -1.1282 H   0  0  0  0  0  0  0  0  0  0  0  0
    7.5471   -2.7863   -1.0707 H   0  0  0  0  0  0  0  0  0  0  0  0
    8.2097   -1.0558   -1.0776 H   0  0  0  0  0  0  0  0  0  0  0  0
   -0.3852    1.7527   -1.7425 H   0  0  0  0  0  0  0  0  0  0  0  0
   -5.0908    1.0260    0.9160 H   0  0  0  0  0  0  0  0  0  0  0  0
   -4.4495    3.3713   -0.6466 H   0  0  0  0  0  0  0  0  0  0  0  0
   -4.8550    2.0976   -1.7904 H   0  0  0  0  0  0  0  0  0  0  0  0
   -5.9963    4.5444    0.4730 H   0  0  0  0  0  0  0  0  0  0  0  0
  -10.0951    3.5044    0.4349 H   0  0  0  0  0  0  0  0  0  0  0  0
   -9.5490    1.3919   -0.6918 H   0  0  0  0  0  0  0  0  0  0  0  0
   -1.5904   -1.4084    2.5067 H   0  0  0  0  0  0  0  0  0  0  0  0
   -0.5149   -3.2584    2.2512 H   0  0  0  0  0  0  0  0  0  0  0  0
   -0.0743   -3.4186   -0.0515 H   0  0  0  0  0  0  0  0  0  0  0  0
    1.5122   -2.5165    0.1360 H   0  0  0  0  0  0  0  0  0  0  0  0
    2.1323   -4.6343    0.7564 H   0  0  0  0  0  0  0  0  0  0  0  0
    0.5120   -4.9377    1.6000 H   0  0  0  0  0  0  0  0  0  0  0  0
    2.9391   -3.4881    2.6897 H   0  0  0  0  0  0  0  0  0  0  0  0
    1.5549   -4.2341    3.5546 H   0  0  0  0  0  0  0  0  0  0  0  0
    1.9229   -1.4883    2.8525 H   0  0  0  0  0  0  0  0  0  0  0  0
    0.6531   -2.2111    3.8357 H   0  0  0  0  0  0  0  0  0  0  0  0
  1  2  2  0
  2  3  1  0
  3  4  1  0
  4  5  1  0
  5  6  1  0
  6  7  1  0
  7  8  1  0
  8  9  1  0
  9 10  1  0
 10 11  1  0
 11 12  2  0
  2 13  1  0
 13 14  2  0
 14 15  1  0
 15 16  2  0
 16 17  1  0
 17 18  1  0
 18 19  1  0
 19 20  2  0
 20 21  1  0
 21 22  1  0
 21 23  2  0
 23 24  1  0
 24 25  2  0
 25 26  1  0
 16 27  1  0
 27 28  2  0
 28 29  1  0
 29 30  1  0
 30 31  1  0
 31 32  1  0
 32 33  1  0
 33 34  1  0
 11  7  1  0
 28 13  1  0
 34 30  1  0
 25 19  1  0
  3 35  1  0
  4 36  1  0
  4 37  1  0
  5 38  1  0
  5 39  1  0
  6 40  1  0
  6 41  1  0
  8 42  1  0
  8 43  1  0
  9 44  1  0
  9 45  1  0
 14 46  1  0
 17 47  1  0
 18 48  1  0
 18 49  1  0
 20 50  1  0
 23 51  1  0
 24 52  1  0
 29 53  1  0
 30 54  1  0
 31 55  1  0
 31 56  1  0
 32 57  1  0
 32 58  1  0
 33 59  1  0
 33 60  1  0
 34 61  1  0
 34 62  1  0
M  END
$$$$
