@<TRIPOS>MOLECULE
*****
 62 65 0 0 0
SMALL
GASTEIGER

@<TRIPOS>ATOM
      1 O           1.7428   -0.0284    0.8023 O.2     1  UNL1       -0.2700
      2 C           1.0127    0.2341   -0.1651 C.2     1  UNL1        0.2489
      3 N           1.6825    0.4286   -1.4188 N.am    1  UNL1       -0.3112
      4 C           3.1241    0.3248   -1.5076 C.3     1  UNL1        0.0133
      5 C           3.8321    1.3231   -0.6581 C.3     1  UNL1       -0.0214
      6 C           5.3166    1.1727   -0.8045 C.3     1  UNL1        0.0193
      7 N           5.8535   -0.0919   -0.4382 N.am    1  UNL1       -0.2642
      8 C           6.0450   -1.2224   -1.3259 C.3     1  UNL1        0.0521
      9 C           7.3937   -1.7379   -0.8008 C.3     1  UNL1        0.1098
     10 O           7.1455   -1.6641    0.6113 O.3     1  UNL1       -0.4487
     11 C           6.3353   -0.5612    0.8385 C.2     1  UNL1        0.4030
     12 O           6.0134    0.0073    1.9132 O.2     1  UNL1       -0.2263
     13 C          -0.4382    0.3481   -0.1013 C.ar    1  UNL1        0.0945
     14 C          -1.0139    1.3067   -0.9947 C.ar    1  UNL1        0.0466
     15 N          -2.3056    1.6030   -0.8451 N.ar    1  UNL1       -0.2221
     16 C          -3.0735    1.0458    0.0963 C.ar    1  UNL1        0.2171
     17 N          -4.4617    1.4304    0.1924 N.pl3   1  UNL1       -0.3093
     18 C          -4.9947    2.3937   -0.7289 C.3     1  UNL1        0.0385
     19 C          -6.4174    2.6614   -0.4240 C.ar    1  UNL1       -0.0107
     20 C          -6.7726    3.8337    0.2075 C.ar    1  UNL1       -0.0373
     21 C          -8.0710    4.1604    0.5254 C.ar    1  UNL1        0.0414
     22 CL         -8.5292    5.6467    1.3260 Cl      1  UNL1       -0.0835
     23 C          -9.0609    3.2678    0.1935 C.ar    1  UNL1       -0.0420
     24 C          -8.7509    2.0753   -0.4427 C.ar    1  UNL1       -0.0417
     25 C          -7.4356    1.7900   -0.7418 C.ar    1  UNL1        0.0457
     26 CL         -7.0477    0.2863   -1.5433 Cl      1  UNL1       -0.0832
     27 N          -2.5261    0.1641    0.9058 N.ar    1  UNL1       -0.1990
     28 C          -1.1671   -0.2423    0.8520 C.ar    1  UNL1        0.1362
     29 N          -0.8326   -1.3114    1.6576 N.pl3   1  UNL1       -0.3255
     30 C           0.1385   -2.2720    1.7969 C.3     1  UNL1        0.0220
     31 C           0.7059   -3.0232    0.6370 C.3     1  UNL1       -0.0345
     32 C           1.3294   -4.2244    1.3941 C.3     1  UNL1       -0.0513
     33 C           1.8361   -3.6330    2.6763 C.3     1  UNL1       -0.0513
     34 C           1.1780   -2.2646    2.8427 C.3     1  UNL1       -0.0345
     35 H           1.1262    0.6309   -2.2445 H       1  UNL1        0.1490
     36 H           3.3429   -0.7374   -1.1968 H       1  UNL1        0.0462
     37 H           3.4405    0.4124   -2.5653 H       1  UNL1        0.0462
     38 H           3.5930    2.3356   -1.1087 H       1  UNL1        0.0295
     39 H           3.4934    1.3962    0.3730 H       1  UNL1        0.0295
     40 H           5.6033    1.4960   -1.8355 H       1  UNL1        0.0466
     41 H           5.7945    1.9464   -0.1367 H       1  UNL1        0.0466
     42 H           6.1069   -0.9283   -2.3796 H       1  UNL1        0.0499
     43 H           5.3302   -2.0292   -1.1282 H       1  UNL1        0.0499
     44 H           7.5471   -2.7863   -1.0707 H       1  UNL1        0.0714
     45 H           8.2097   -1.0558   -1.0776 H       1  UNL1        0.0714
     46 H          -0.3852    1.7527   -1.7425 H       1  UNL1        0.0839
     47 H          -5.0908    1.0260    0.9160 H       1  UNL1        0.1492
     48 H          -4.4495    3.3713   -0.6466 H       1  UNL1        0.0512
     49 H          -4.8550    2.0976   -1.7904 H       1  UNL1        0.0512
     50 H          -5.9963    4.5444    0.4730 H       1  UNL1        0.0636
     51 H         -10.0951    3.5044    0.4349 H       1  UNL1        0.0633
     52 H          -9.5490    1.3919   -0.6918 H       1  UNL1        0.0633
     53 H          -1.5904   -1.4084    2.5067 H       1  UNL1        0.1478
     54 H          -0.5149   -3.2584    2.2512 H       1  UNL1        0.0498
     55 H          -0.0743   -3.4186   -0.0515 H       1  UNL1        0.0283
     56 H           1.5122   -2.5165    0.1360 H       1  UNL1        0.0283
     57 H           2.1323   -4.6343    0.7564 H       1  UNL1        0.0266
     58 H           0.5120   -4.9377    1.6000 H       1  UNL1        0.0266
     59 H           2.9391   -3.4881    2.6897 H       1  UNL1        0.0266
     60 H           1.5549   -4.2341    3.5546 H       1  UNL1        0.0266
     61 H           1.9229   -1.4883    2.8525 H       1  UNL1        0.0283
     62 H           0.6531   -2.2111    3.8357 H       1  UNL1        0.0283
@<TRIPOS>BOND
     1     1     2    2
     2     2     3   am
     3     3     4    1
     4     4     5    1
     5     5     6    1
     6     6     7    1
     7     7     8    1
     8     8     9    1
     9     9    10    1
    10    10    11    1
    11    11    12    2
    12     2    13    1
    13    13    14   ar
    14    14    15   ar
    15    15    16   ar
    16    16    17    1
    17    17    18    1
    18    18    19    1
    19    19    20   ar
    20    20    21   ar
    21    21    22    1
    22    21    23   ar
    23    23    24   ar
    24    24    25   ar
    25    25    26    1
    26    16    27   ar
    27    27    28   ar
    28    28    29    1
    29    29    30    1
    30    30    31    1
    31    31    32    1
    32    32    33    1
    33    33    34    1
    34    11     7   am
    35    28    13   ar
    36    34    30    1
    37    25    19   ar
    38     3    35    1
    39     4    36    1
    40     4    37    1
    41     5    38    1
    42     5    39    1
    43     6    40    1
    44     6    41    1
    45     8    42    1
    46     8    43    1
    47     9    44    1
    48     9    45    1
    49    14    46    1
    50    17    47    1
    51    18    48    1
    52    18    49    1
    53    20    50    1
    54    23    51    1
    55    24    52    1
    56    29    53    1
    57    30    54    1
    58    31    55    1
    59    31    56    1
    60    32    57    1
    61    32    58    1
    62    33    59    1
    63    33    60    1
    64    34    61    1
    65    34    62    1
