
     RDKit          3D

 52 53  0  0  0  0  0  0  0  0999 V2000
   -5.5955    0.5989    0.4052 C   0  0  2  0  0  0  0  0  0  0  0  0
   -6.3343    0.9449   -0.8897 C   0  0  0  0  0  0  0  0  0  0  0  0
   -7.7186    1.4099   -0.6230 C   0  0  0  0  0  0  0  0  0  0  0  0
   -8.3888    1.7246   -1.8125 O   0  0  0  0  0  0  0  0  0  0  0  0
   -8.4115    1.5825    0.3984 O   0  0  0  0  0  0  0  0  0  0  0  0
   -4.2532    0.1559    0.0299 N   0  0  0  0  0  0  0  0  0  0  0  0
   -3.0944    0.8685    0.4668 C   0  0  0  0  0  0  0  0  0  0  0  0
   -3.3590    1.8890    1.1889 O   0  0  0  0  0  0  0  0  0  0  0  0
   -1.7381    0.4361    0.0985 C   0  0  0  0  0  0  0  0  0  0  0  0
   -1.4122   -0.6575   -0.6760 C   0  0  0  0  0  0  0  0  0  0  0  0
   -0.0849   -0.9347   -0.9348 C   0  0  0  0  0  0  0  0  0  0  0  0
    0.9294   -0.1248   -0.4243 C   0  0  0  0  0  0  0  0  0  0  0  0
    2.3194   -0.5144   -0.7639 C   0  0  0  0  0  0  0  0  0  0  0  0
    2.6844    0.1615   -2.0140 N   0  0  0  0  0  0  0  0  0  0  0  0
    4.3114   -0.2593   -2.4639 S   0  0  0  0  0  0  0  0  0  0  0  0
    4.6330    0.4106   -3.7476 O   0  0  0  0  0  0  0  0  0  0  0  0
    4.4364   -1.7315   -2.6262 O   0  0  0  0  0  0  0  0  0  0  0  0
    5.3403    0.3205   -1.1495 C   0  0  0  0  0  0  0  0  0  0  0  0
    5.5869   -0.5463   -0.1108 C   0  0  0  0  0  0  0  0  0  0  0  0
    6.3865   -0.1212    0.9289 C   0  0  0  0  0  0  0  0  0  0  0  0
    6.6630   -1.0223    2.0420 C   0  0  0  0  0  0  0  0  0  0  0  0
    6.1153   -2.3138    2.0501 O   0  0  0  0  0  0  0  0  0  0  0  0
    7.3912   -0.6484    2.9973 O   0  0  0  0  0  0  0  0  0  0  0  0
    6.9481    1.1381    0.9676 C   0  0  0  0  0  0  0  0  0  0  0  0
    7.7476    1.5606    2.0091 O   0  0  0  0  0  0  0  0  0  0  0  0
    6.6840    1.9850   -0.0860 C   0  0  0  0  0  0  0  0  0  0  0  0
    5.8877    1.6071   -1.1541 C   0  0  0  0  0  0  0  0  0  0  0  0
    0.6072    0.9686    0.3499 C   0  0  0  0  0  0  0  0  0  0  0  0
   -0.7172    1.2454    0.6083 C   0  0  0  0  0  0  0  0  0  0  0  0
   -6.2558   -0.5319    1.1025 C   0  0  0  0  0  0  0  0  0  0  0  0
   -7.3126   -1.2654    1.8098 C   0  0  0  0  0  0  0  0  0  0  0  0
   -5.2417   -1.2119    0.9496 O   0  0  0  0  0  0  0  0  0  0  0  0
   -5.5337    1.5046    1.0346 H   0  0  0  0  0  0  0  0  0  0  0  0
   -5.8066    1.7907   -1.3757 H   0  0  0  0  0  0  0  0  0  0  0  0
   -6.2845    0.1087   -1.6091 H   0  0  0  0  0  0  0  0  0  0  0  0
   -9.2963    2.2007   -1.8262 H   0  0  0  0  0  0  0  0  0  0  0  0
   -4.1623   -0.6956   -0.5665 H   0  0  0  0  0  0  0  0  0  0  0  0
   -2.2534   -1.2375   -1.0360 H   0  0  0  0  0  0  0  0  0  0  0  0
    0.1054   -1.8117   -1.5523 H   0  0  0  0  0  0  0  0  0  0  0  0
    2.4500   -1.6029   -0.8602 H   0  0  0  0  0  0  0  0  0  0  0  0
    3.0381   -0.1553    0.0065 H   0  0  0  0  0  0  0  0  0  0  0  0
    2.5608    1.1752   -1.9491 H   0  0  0  0  0  0  0  0  0  0  0  0
    5.1607   -1.5591   -0.0991 H   0  0  0  0  0  0  0  0  0  0  0  0
    6.1466   -2.9119    2.8778 H   0  0  0  0  0  0  0  0  0  0  0  0
    8.7201    1.3652    2.1311 H   0  0  0  0  0  0  0  0  0  0  0  0
    7.0774    2.9953   -0.1511 H   0  0  0  0  0  0  0  0  0  0  0  0
    5.6717    2.2677   -1.9928 H   0  0  0  0  0  0  0  0  0  0  0  0
    1.4110    1.5877    0.7387 H   0  0  0  0  0  0  0  0  0  0  0  0
   -0.9336    2.1204    1.2258 H   0  0  0  0  0  0  0  0  0  0  0  0
   -6.8884   -1.7128    2.7236 H   0  0  0  0  0  0  0  0  0  0  0  0
   -7.8957   -1.9383    1.1786 H   0  0  0  0  0  0  0  0  0  0  0  0
   -8.0414   -0.4838    2.1748 H   0  0  0  0  0  0  0  0  0  0  0  0
  1  2  1  0
  2  3  1  0
  3  4  1  0
  3  5  2  0
  1  6  1  0
  6  7  1  0
  7  8  2  0
  7  9  1  0
  9 10  2  0
 10 11  1  0
 11 12  2  0
 12 13  1  0
 13 14  1  0
 14 15  1  0
 15 16  2  0
 15 17  2  0
 15 18  1  0
 18 19  2  0
 19 20  1  0
 20 21  1  0
 21 22  1  0
 21 23  2  0
 20 24  2  0
 24 25  1  0
 24 26  1  0
 26 27  2  0
 12 28  1  0
 28 29  2  0
  1 30  1  0
 30 31  1  0
 30 32  2  0
 29  9  1  0
 27 18  1  0
  1 33  1  1
  2 34  1  0
  2 35  1  0
  4 36  1  0
  6 37  1  0
 10 38  1  0
 11 39  1  0
 13 40  1  0
 13 41  1  0
 14 42  1  0
 19 43  1  0
 22 44  1  0
 25 45  1  0
 26 46  1  0
 27 47  1  0
 28 48  1  0
 29 49  1  0
 31 50  1  0
 31 51  1  0
 31 52  1  0
M  END
$$$$
