@<TRIPOS>MOLECULE
*****
 52 53 0 0 0
SMALL
GASTEIGER

@<TRIPOS>ATOM
      1 C          -5.5955    0.5989    0.4052 C.3     1  UNL1        0.0914
      2 C          -6.3343    0.9449   -0.8897 C.3     1  UNL1        0.0700
      3 C          -7.7186    1.4099   -0.6230 C.2     1  UNL1        0.3069
      4 O          -8.3888    1.7246   -1.8125 O.3     1  UNL1       -0.4806
      5 O          -8.4115    1.5825    0.3984 O.2     1  UNL1       -0.2509
      6 N          -4.2532    0.1559    0.0299 N.am    1  UNL1       -0.3012
      7 C          -3.0944    0.8685    0.4668 C.2     1  UNL1        0.2446
      8 O          -3.3590    1.8890    1.1889 O.2     1  UNL1       -0.2702
      9 C          -1.7381    0.4361    0.0985 C.ar    1  UNL1        0.0367
     10 C          -1.4122   -0.6575   -0.6760 C.ar    1  UNL1       -0.0493
     11 C          -0.0849   -0.9347   -0.9348 C.ar    1  UNL1       -0.0566
     12 C           0.9294   -0.1248   -0.4243 C.ar    1  UNL1       -0.0319
     13 C           2.3194   -0.5144   -0.7639 C.3     1  UNL1        0.0425
     14 N           2.6844    0.1615   -2.0140 N.3     1  UNL1       -0.1856
     15 S           4.3114   -0.2593   -2.4639 S.O2    1  UNL1        0.0587
     16 O           4.6330    0.4106   -3.7476 O.2     1  UNL1       -0.1530
     17 O           4.4364   -1.7315   -2.6262 O.2     1  UNL1       -0.1530
     18 C           5.3403    0.3205   -1.1495 C.ar    1  UNL1        0.1063
     19 C           5.5869   -0.5463   -0.1108 C.ar    1  UNL1       -0.0178
     20 C           6.3865   -0.1212    0.9289 C.ar    1  UNL1        0.1019
     21 C           6.6630   -1.0223    2.0420 C.2     1  UNL1        0.3404
     22 O           6.1153   -2.3138    2.0501 O.3     1  UNL1       -0.4770
     23 O           7.3912   -0.6484    2.9973 O.2     1  UNL1       -0.2450
     24 C           6.9481    1.1381    0.9676 C.ar    1  UNL1        0.1309
     25 O           7.7476    1.5606    2.0091 O.3     1  UNL1       -0.5059
     26 C           6.6840    1.9850   -0.0860 C.ar    1  UNL1       -0.0175
     27 C           5.8877    1.6071   -1.1541 C.ar    1  UNL1       -0.0319
     28 C           0.6072    0.9686    0.3499 C.ar    1  UNL1       -0.0566
     29 C          -0.7172    1.2454    0.6083 C.ar    1  UNL1       -0.0493
     30 C          -6.2558   -0.5319    1.1025 C.2     1  UNL1        0.1509
     31 C          -7.3126   -1.2654    1.8098 C.3     1  UNL1       -0.0042
     32 O          -5.2417   -1.2119    0.9496 O.2     1  UNL1       -0.2957
     33 H          -5.5337    1.5046    1.0346 H       1  UNL1        0.0583
     34 H          -5.8066    1.7907   -1.3757 H       1  UNL1        0.0400
     35 H          -6.2845    0.1087   -1.6091 H       1  UNL1        0.0400
     36 H          -9.2963    2.2007   -1.8262 H       1  UNL1        0.2951
     37 H          -4.1623   -0.6956   -0.5665 H       1  UNL1        0.1497
     38 H          -2.2534   -1.2375   -1.0360 H       1  UNL1        0.0625
     39 H           0.1054   -1.8117   -1.5523 H       1  UNL1        0.0621
     40 H           2.4500   -1.6029   -0.8602 H       1  UNL1        0.0490
     41 H           3.0381   -0.1553    0.0065 H       1  UNL1        0.0490
     42 H           2.5608    1.1752   -1.9491 H       1  UNL1        0.1484
     43 H           5.1607   -1.5591   -0.0991 H       1  UNL1        0.0646
     44 H           6.1466   -2.9119    2.8778 H       1  UNL1        0.2954
     45 H           8.7201    1.3652    2.1311 H       1  UNL1        0.2922
     46 H           7.0774    2.9953   -0.1511 H       1  UNL1        0.0655
     47 H           5.6717    2.2677   -1.9928 H       1  UNL1        0.0638
     48 H           1.4110    1.5877    0.7387 H       1  UNL1        0.0621
     49 H          -0.9336    2.1204    1.2258 H       1  UNL1        0.0625
     50 H          -6.8884   -1.7128    2.7236 H       1  UNL1        0.0306
     51 H          -7.8957   -1.9383    1.1786 H       1  UNL1        0.0306
     52 H          -8.0414   -0.4838    2.1748 H       1  UNL1        0.0306
@<TRIPOS>BOND
     1     1     2    1
     2     2     3    1
     3     3     4    1
     4     3     5    2
     5     1     6    1
     6     6     7   am
     7     7     8    2
     8     7     9    1
     9     9    10   ar
    10    10    11   ar
    11    11    12   ar
    12    12    13    1
    13    13    14    1
    14    14    15    1
    15    15    16    2
    16    15    17    2
    17    15    18    1
    18    18    19   ar
    19    19    20   ar
    20    20    21    1
    21    21    22    1
    22    21    23    2
    23    20    24   ar
    24    24    25    1
    25    24    26   ar
    26    26    27   ar
    27    12    28   ar
    28    28    29   ar
    29     1    30    1
    30    30    31    1
    31    30    32    2
    32    29     9   ar
    33    27    18   ar
    34     1    33    1
    35     2    34    1
    36     2    35    1
    37     4    36    1
    38     6    37    1
    39    10    38    1
    40    11    39    1
    41    13    40    1
    42    13    41    1
    43    14    42    1
    44    19    43    1
    45    22    44    1
    46    25    45    1
    47    26    46    1
    48    27    47    1
    49    28    48    1
    50    29    49    1
    51    31    50    1
    52    31    51    1
    53    31    52    1
