@<TRIPOS>MOLECULE
*****
 47 49 0 0 0
SMALL
GASTEIGER

@<TRIPOS>ATOM
      1 C          -2.5611    3.0109   -1.0350 C.3     1  UNL1       -0.0220
      2 C          -3.1742    1.7430   -0.5062 C.ar    1  UNL1        0.0446
      3 C          -2.5556    1.2421    0.6397 C.ar    1  UNL1        0.0047
      4 C          -1.4057    1.9027    1.2683 C.3     1  UNL1        0.0226
      5 S           0.1529    1.6657    0.4051 S.3     1  UNL1       -0.1513
      6 C           0.6379   -0.0810    0.4822 C.3     1  UNL1        0.0191
      7 C           1.9317   -0.2974   -0.2300 C.ar    1  UNL1       -0.0371
      8 C           3.1133   -0.1865    0.4578 C.ar    1  UNL1       -0.0492
      9 C           4.3568   -0.3692   -0.1176 C.ar    1  UNL1        0.0201
     10 C           4.3913   -0.6834   -1.4747 C.ar    1  UNL1       -0.0532
     11 C           3.1961   -0.7925   -2.1567 C.ar    1  UNL1       -0.0610
     12 C           1.9616   -0.6115   -1.5871 C.ar    1  UNL1       -0.0578
     13 C           5.5935   -0.2333    0.6872 C.3     1  UNL1        0.2903
     14 O           5.5768   -1.0055    1.8374 O.3     1  UNL1       -0.3545
     15 O           5.6288    1.1038    1.1286 O.3     1  UNL1       -0.3545
     16 C           6.8386   -0.4648   -0.1007 C.3     1  UNL1        0.4487
     17 F           7.9114   -0.3035    0.7854 F       1  UNL1       -0.1651
     18 F           6.9989    0.5128   -1.0477 F       1  UNL1       -0.1651
     19 F           6.9502   -1.7406   -0.5937 F       1  UNL1       -0.1651
     20 C          -3.1187    0.0707    1.1319 C.ar    1  UNL1        0.0423
     21 N          -2.5628   -0.5339    2.3073 N.pl3   1  UNL1       -0.3571
     22 C          -4.2148   -0.5358    0.5109 C.ar    1  UNL1        0.0564
     23 C          -4.7812   -1.6996    0.9924 C.ar    1  UNL1        0.1343
     24 F          -4.2712   -2.2923    2.1065 F       1  UNL1       -0.2047
     25 C          -5.8745   -2.2420    0.3141 C.ar    1  UNL1       -0.0257
     26 C          -6.4003   -1.6574   -0.8100 C.ar    1  UNL1       -0.0570
     27 C          -5.8466   -0.5016   -1.2977 C.ar    1  UNL1       -0.0355
     28 C          -4.7709    0.0381   -0.6358 C.ar    1  UNL1        0.0758
     29 N          -4.2283    1.1719   -1.1148 N.ar    1  UNL1       -0.2514
     30 H          -3.0396    3.2342   -2.0074 H       1  UNL1        0.0293
     31 H          -2.6899    3.8198   -0.3123 H       1  UNL1        0.0293
     32 H          -1.4780    2.8208   -1.2637 H       1  UNL1        0.0293
     33 H          -1.3207    1.5222    2.3217 H       1  UNL1        0.0426
     34 H          -1.5721    2.9971    1.3925 H       1  UNL1        0.0426
     35 H           0.7894   -0.3839    1.5351 H       1  UNL1        0.0425
     36 H          -0.1672   -0.7414    0.0793 H       1  UNL1        0.0425
     37 H           3.1010    0.0567    1.5110 H       1  UNL1        0.0625
     38 H           5.3342   -0.8331   -1.9599 H       1  UNL1        0.0622
     39 H           3.2767   -1.0401   -3.2168 H       1  UNL1        0.0618
     40 H           1.0412   -0.7063   -2.1582 H       1  UNL1        0.0621
     41 H           6.5155   -1.3035    2.0055 H       1  UNL1        0.2134
     42 H           5.1185    1.2553    1.9491 H       1  UNL1        0.2134
     43 H          -2.4856   -0.2930    3.3189 H       1  UNL1        0.1423
     44 H          -2.0962   -1.4678    2.1808 H       1  UNL1        0.1423
     45 H          -6.3394   -3.1357    0.6509 H       1  UNL1        0.0646
     46 H          -7.2412   -2.0423   -1.3621 H       1  UNL1        0.0619
     47 H          -6.2204    0.0114   -2.1886 H       1  UNL1        0.0639
@<TRIPOS>BOND
     1     1     2    1
     2     2     3   ar
     3     3     4    1
     4     4     5    1
     5     5     6    1
     6     6     7    1
     7     7     8   ar
     8     8     9   ar
     9     9    10   ar
    10    10    11   ar
    11    11    12   ar
    12     9    13    1
    13    13    14    1
    14    13    15    1
    15    13    16    1
    16    16    17    1
    17    16    18    1
    18    16    19    1
    19     3    20   ar
    20    20    21    1
    21    20    22   ar
    22    22    23   ar
    23    23    24    1
    24    23    25   ar
    25    25    26   ar
    26    26    27   ar
    27    27    28   ar
    28    28    29   ar
    29    29     2   ar
    30    12     7   ar
    31    28    22   ar
    32     1    30    1
    33     1    31    1
    34     1    32    1
    35     4    33    1
    36     4    34    1
    37     6    35    1
    38     6    36    1
    39     8    37    1
    40    10    38    1
    41    11    39    1
    42    12    40    1
    43    14    41    1
    44    15    42    1
    45    21    43    1
    46    21    44    1
    47    25    45    1
    48    26    46    1
    49    27    47    1
