
     RDKit          3D

 47 49  0  0  0  0  0  0  0  0999 V2000
   -2.5611    3.0109   -1.0350 C   0  0  0  0  0  0  0  0  0  0  0  0
   -3.1742    1.7430   -0.5062 C   0  0  0  0  0  0  0  0  0  0  0  0
   -2.5556    1.2421    0.6397 C   0  0  0  0  0  0  0  0  0  0  0  0
   -1.4057    1.9027    1.2683 C   0  0  0  0  0  0  0  0  0  0  0  0
    0.1529    1.6657    0.4051 S   0  0  0  0  0  0  0  0  0  0  0  0
    0.6379   -0.0810    0.4822 C   0  0  0  0  0  0  0  0  0  0  0  0
    1.9317   -0.2974   -0.2300 C   0  0  0  0  0  0  0  0  0  0  0  0
    3.1133   -0.1865    0.4578 C   0  0  0  0  0  0  0  0  0  0  0  0
    4.3568   -0.3692   -0.1176 C   0  0  0  0  0  0  0  0  0  0  0  0
    4.3913   -0.6834   -1.4747 C   0  0  0  0  0  0  0  0  0  0  0  0
    3.1961   -0.7925   -2.1567 C   0  0  0  0  0  0  0  0  0  0  0  0
    1.9616   -0.6115   -1.5871 C   0  0  0  0  0  0  0  0  0  0  0  0
    5.5935   -0.2333    0.6872 C   0  0  0  0  0  0  0  0  0  0  0  0
    5.5768   -1.0055    1.8374 O   0  0  0  0  0  0  0  0  0  0  0  0
    5.6288    1.1038    1.1286 O   0  0  0  0  0  0  0  0  0  0  0  0
    6.8386   -0.4648   -0.1007 C   0  0  0  0  0  0  0  0  0  0  0  0
    7.9114   -0.3035    0.7854 F   0  0  0  0  0  0  0  0  0  0  0  0
    6.9989    0.5128   -1.0477 F   0  0  0  0  0  0  0  0  0  0  0  0
    6.9502   -1.7406   -0.5937 F   0  0  0  0  0  0  0  0  0  0  0  0
   -3.1187    0.0707    1.1319 C   0  0  0  0  0  0  0  0  0  0  0  0
   -2.5628   -0.5339    2.3073 N   0  0  0  0  0  0  0  0  0  0  0  0
   -4.2148   -0.5358    0.5109 C   0  0  0  0  0  0  0  0  0  0  0  0
   -4.7812   -1.6996    0.9924 C   0  0  0  0  0  0  0  0  0  0  0  0
   -4.2712   -2.2923    2.1065 F   0  0  0  0  0  0  0  0  0  0  0  0
   -5.8745   -2.2420    0.3141 C   0  0  0  0  0  0  0  0  0  0  0  0
   -6.4003   -1.6574   -0.8100 C   0  0  0  0  0  0  0  0  0  0  0  0
   -5.8466   -0.5016   -1.2977 C   0  0  0  0  0  0  0  0  0  0  0  0
   -4.7709    0.0381   -0.6358 C   0  0  0  0  0  0  0  0  0  0  0  0
   -4.2283    1.1719   -1.1148 N   0  0  0  0  0  0  0  0  0  0  0  0
   -3.0396    3.2342   -2.0074 H   0  0  0  0  0  0  0  0  0  0  0  0
   -2.6899    3.8198   -0.3123 H   0  0  0  0  0  0  0  0  0  0  0  0
   -1.4780    2.8208   -1.2637 H   0  0  0  0  0  0  0  0  0  0  0  0
   -1.3207    1.5222    2.3217 H   0  0  0  0  0  0  0  0  0  0  0  0
   -1.5721    2.9971    1.3925 H   0  0  0  0  0  0  0  0  0  0  0  0
    0.7894   -0.3839    1.5351 H   0  0  0  0  0  0  0  0  0  0  0  0
   -0.1672   -0.7414    0.0793 H   0  0  0  0  0  0  0  0  0  0  0  0
    3.1010    0.0567    1.5110 H   0  0  0  0  0  0  0  0  0  0  0  0
    5.3342   -0.8331   -1.9599 H   0  0  0  0  0  0  0  0  0  0  0  0
    3.2767   -1.0401   -3.2168 H   0  0  0  0  0  0  0  0  0  0  0  0
    1.0412   -0.7063   -2.1582 H   0  0  0  0  0  0  0  0  0  0  0  0
    6.5155   -1.3035    2.0055 H   0  0  0  0  0  0  0  0  0  0  0  0
    5.1185    1.2553    1.9491 H   0  0  0  0  0  0  0  0  0  0  0  0
   -2.4856   -0.2930    3.3189 H   0  0  0  0  0  0  0  0  0  0  0  0
   -2.0962   -1.4678    2.1808 H   0  0  0  0  0  0  0  0  0  0  0  0
   -6.3394   -3.1357    0.6509 H   0  0  0  0  0  0  0  0  0  0  0  0
   -7.2412   -2.0423   -1.3621 H   0  0  0  0  0  0  0  0  0  0  0  0
   -6.2204    0.0114   -2.1886 H   0  0  0  0  0  0  0  0  0  0  0  0
  1  2  1  0
  2  3  2  0
  3  4  1  0
  4  5  1  0
  5  6  1  0
  6  7  1  0
  7  8  2  0
  8  9  1  0
  9 10  2  0
 10 11  1  0
 11 12  2  0
  9 13  1  0
 13 14  1  0
 13 15  1  0
 13 16  1  0
 16 17  1  0
 16 18  1  0
 16 19  1  0
  3 20  1  0
 20 21  1  0
 20 22  2  0
 22 23  1  0
 23 24  1  0
 23 25  2  0
 25 26  1  0
 26 27  2  0
 27 28  1  0
 28 29  2  0
 29  2  1  0
 12  7  1  0
 28 22  1  0
  1 30  1  0
  1 31  1  0
  1 32  1  0
  4 33  1  0
  4 34  1  0
  6 35  1  0
  6 36  1  0
  8 37  1  0
 10 38  1  0
 11 39  1  0
 12 40  1  0
 14 41  1  0
 15 42  1  0
 21 43  1  0
 21 44  1  0
 25 45  1  0
 26 46  1  0
 27 47  1  0
M  END
$$$$
