@<TRIPOS>MOLECULE
*****
 66 69 0 0 0
SMALL
GASTEIGER

@<TRIPOS>ATOM
      1 C           2.4340   -1.6837    0.6289 C.3     1  UNL1       -0.0374
      2 C           2.9031   -0.3001    0.7774 C.ar    1  UNL1       -0.0165
      3 C           4.2481   -0.0066    0.4772 C.ar    1  UNL1       -0.0133
      4 C           4.7693    1.2554    0.5341 C.ar    1  UNL1        0.1388
      5 O           6.0686    1.5220    0.2405 O.3     1  UNL1       -0.4902
      6 C           7.1134    0.7325   -0.1611 C.3     1  UNL1        0.0925
      7 C           6.9803    0.0230   -1.4719 C.3     1  UNL1       -0.0068
      8 C           6.7799    0.9303   -2.6785 C.3     1  UNL1       -0.0471
      9 C           8.2741    1.1574   -2.6888 C.3     1  UNL1       -0.0523
     10 C           8.3937   -0.2319   -2.0519 C.3     1  UNL1       -0.0471
     11 C           3.8724    2.2600    0.9162 C.ar    1  UNL1        0.0701
     12 N           2.6012    1.9986    1.2041 N.ar    1  UNL1       -0.2465
     13 C           2.0800    0.7147    1.1449 C.ar    1  UNL1        0.1288
     14 C           0.7138    0.5748    1.5532 C.2     1  UNL1        0.2668
     15 O          -0.0391    1.6279    1.4612 O.2     1  UNL1       -0.2682
     16 N           0.0811   -0.5579    2.0489 N.am    1  UNL1       -0.2802
     17 C          -1.3089   -0.5785    2.4244 C.ar    1  UNL1        0.0343
     18 C          -1.7536   -0.2796    3.6838 C.ar    1  UNL1       -0.0377
     19 C          -3.0875   -0.3157    4.0119 C.ar    1  UNL1       -0.0243
     20 C          -4.0120   -0.6597    3.0592 C.ar    1  UNL1        0.1312
     21 F          -5.3357   -0.6665    3.4008 F       1  UNL1       -0.2050
     22 C          -3.6002   -0.9735    1.7590 C.ar    1  UNL1        0.0448
     23 C          -4.5875   -1.3658    0.7413 C.3     1  UNL1        0.2263
     24 C          -5.3658   -2.5921    1.2798 C.3     1  UNL1        0.1433
     25 F          -6.2975   -2.9690    0.3147 F       1  UNL1       -0.2438
     26 C          -3.9351   -1.8600   -0.5141 C.3     1  UNL1        0.1211
     27 S          -3.7563   -0.6529   -1.7747 S.O2    1  UNL1       -0.0100
     28 O          -4.1044   -1.3027   -3.1086 O.2     1  UNL1       -0.1731
     29 O          -2.3585   -0.1438   -1.9369 O.2     1  UNL1       -0.1731
     30 C          -4.8842    0.6929   -1.5110 C.3     1  UNL1        0.1831
     31 C          -4.0866    1.9613   -1.2789 C.3     1  UNL1       -0.0288
     32 C          -5.7381    0.9187   -2.7427 C.3     1  UNL1       -0.0288
     33 C          -5.7672    0.4878   -0.3549 C.2     1  UNL1        0.3068
     34 N          -6.9132    1.3387   -0.2445 N.pl3   1  UNL1       -0.2488
     35 N          -5.5768   -0.3684    0.5127 N.2     1  UNL1       -0.0698
     36 C          -2.2617   -0.9259    1.4689 C.ar    1  UNL1       -0.0300
     37 H           2.5925   -2.3367    1.4984 H       1  UNL1        0.0278
     38 H           3.1404   -2.1512   -0.1555 H       1  UNL1        0.0278
     39 H           1.4522   -1.7954    0.1211 H       1  UNL1        0.0278
     40 H           4.8594   -0.8493    0.2040 H       1  UNL1        0.0658
     41 H           8.0574    1.3646   -0.1389 H       1  UNL1        0.0699
     42 H           7.3672   -0.0862    0.5890 H       1  UNL1        0.0699
     43 H           6.4029   -0.9021   -1.5161 H       1  UNL1        0.0334
     44 H           6.4622    0.3307   -3.5621 H       1  UNL1        0.0269
     45 H           6.1638    1.8131   -2.5112 H       1  UNL1        0.0269
     46 H           8.6015    1.9646   -2.0061 H       1  UNL1        0.0265
     47 H           8.7487    1.2447   -3.6836 H       1  UNL1        0.0265
     48 H           8.3701   -0.9909   -2.8453 H       1  UNL1        0.0269
     49 H           9.1614   -0.3062   -1.2833 H       1  UNL1        0.0269
     50 H           4.2609    3.2732    0.9695 H       1  UNL1        0.0867
     51 H           0.6090   -1.4403    2.1939 H       1  UNL1        0.1552
     52 H          -1.0512   -0.0064    4.4488 H       1  UNL1        0.0637
     53 H          -3.4556   -0.0787    5.0166 H       1  UNL1        0.0647
     54 H          -4.6884   -3.4278    1.5064 H       1  UNL1        0.0666
     55 H          -5.9556   -2.3505    2.1717 H       1  UNL1        0.0666
     56 H          -2.9798   -2.3627   -0.3328 H       1  UNL1        0.0551
     57 H          -4.5850   -2.7272   -0.9253 H       1  UNL1        0.0551
     58 H          -4.7629    2.6805   -0.7641 H       1  UNL1        0.0256
     59 H          -3.1440    1.7910   -0.7339 H       1  UNL1        0.0256
     60 H          -3.8638    2.3677   -2.3030 H       1  UNL1        0.0256
     61 H          -6.6808    1.3969   -2.3930 H       1  UNL1        0.0256
     62 H          -5.2175    1.6400   -3.3891 H       1  UNL1        0.0256
     63 H          -5.9365   -0.0306   -3.2889 H       1  UNL1        0.0256
     64 H          -6.7593    2.2843    0.1574 H       1  UNL1        0.2881
     65 H          -7.8715    1.0744   -0.5383 H       1  UNL1        0.2881
     66 H          -1.8407   -1.1452    0.4816 H       1  UNL1        0.0641
@<TRIPOS>BOND
     1     1     2    1
     2     2     3   ar
     3     3     4   ar
     4     4     5    1
     5     5     6    1
     6     6     7    1
     7     7     8    1
     8     8     9    1
     9     9    10    1
    10     4    11   ar
    11    11    12   ar
    12    12    13   ar
    13    13    14    1
    14    14    15    2
    15    14    16   am
    16    16    17    1
    17    17    18   ar
    18    18    19   ar
    19    19    20   ar
    20    20    21    1
    21    20    22   ar
    22    22    23    1
    23    23    24    1
    24    24    25    1
    25    23    26    1
    26    26    27    1
    27    27    28    2
    28    27    29    2
    29    27    30    1
    30    30    31    1
    31    30    32    1
    32    30    33    1
    33    33    34    1
    34    33    35    2
    35    22    36   ar
    36    13     2   ar
    37    36    17   ar
    38    10     7    1
    39    35    23    1
    40     1    37    1
    41     1    38    1
    42     1    39    1
    43     3    40    1
    44     6    41    1
    45     6    42    1
    46     7    43    1
    47     8    44    1
    48     8    45    1
    49     9    46    1
    50     9    47    1
    51    10    48    1
    52    10    49    1
    53    11    50    1
    54    16    51    1
    55    18    52    1
    56    19    53    1
    57    24    54    1
    58    24    55    1
    59    26    56    1
    60    26    57    1
    61    31    58    1
    62    31    59    1
    63    31    60    1
    64    32    61    1
    65    32    62    1
    66    32    63    1
    67    34    64    1
    68    34    65    1
    69    36    66    1
