
     RDKit          3D

 42 44  0  0  0  0  0  0  0  0999 V2000
   -2.5182    2.6938   -0.5357 C   0  0  0  0  0  0  0  0  0  0  0  0
   -2.3034    1.2425   -0.3091 C   0  0  0  0  0  0  0  0  0  0  0  0
   -3.1885    0.2687   -0.2085 C   0  0  0  0  0  0  0  0  0  0  0  0
   -4.6558    0.4771   -0.3128 C   0  0  0  0  0  0  0  0  0  0  0  0
   -5.2530    0.0242    0.9853 C   0  0  0  0  0  0  0  0  0  0  0  0
   -6.1362   -0.2800    1.9919 O   0  0  0  0  0  0  0  0  0  0  0  0
   -4.6357   -0.4471    1.9902 O   0  0  0  0  0  0  0  0  0  0  0  0
   -2.5311   -1.0060    0.0127 C   0  0  0  0  0  0  0  0  0  0  0  0
   -3.0369   -2.2601    0.1580 C   0  0  0  0  0  0  0  0  0  0  0  0
   -2.1771   -3.3203    0.3399 C   0  0  0  0  0  0  0  0  0  0  0  0
   -2.7536   -4.5345    0.4770 F   0  0  0  0  0  0  0  0  0  0  0  0
   -0.7929   -3.1028    0.3735 C   0  0  0  0  0  0  0  0  0  0  0  0
   -0.3431   -1.8123    0.2213 C   0  0  0  0  0  0  0  0  0  0  0  0
   -1.1770   -0.7732    0.0454 C   0  0  0  0  0  0  0  0  0  0  0  0
   -0.9952    0.6300   -0.1518 C   0  0  0  0  0  0  0  0  0  0  0  0
    0.1911    1.1738   -0.2099 C   0  0  0  0  0  0  0  0  0  0  0  0
    1.5306    0.6609   -0.0605 C   0  0  0  0  0  0  0  0  0  0  0  0
    2.2944    0.8860   -1.2210 C   0  0  0  0  0  0  0  0  0  0  0  0
    3.6356    0.5587   -1.3392 C   0  0  0  0  0  0  0  0  0  0  0  0
    4.2599   -0.0137   -0.2785 C   0  0  0  0  0  0  0  0  0  0  0  0
    3.5845   -0.2643    0.8849 C   0  0  0  0  0  0  0  0  0  0  0  0
    2.2608    0.0675    0.9783 C   0  0  0  0  0  0  0  0  0  0  0  0
    5.9654   -0.4716   -0.3181 S   0  0  0  0  0  0  0  0  0  0  0  0
    7.0357    0.8515    0.2375 C   0  0  0  0  0  0  0  0  0  0  0  0
    6.4130   -0.8693   -1.7156 O   0  0  0  0  0  0  0  0  0  0  0  0
   -1.6590    3.1139   -1.1327 H   0  0  0  0  0  0  0  0  0  0  0  0
   -2.5058    3.2513    0.4219 H   0  0  0  0  0  0  0  0  0  0  0  0
   -3.4284    2.8868   -1.1476 H   0  0  0  0  0  0  0  0  0  0  0  0
   -4.9085    1.5353   -0.5045 H   0  0  0  0  0  0  0  0  0  0  0  0
   -5.0409   -0.1932   -1.1043 H   0  0  0  0  0  0  0  0  0  0  0  0
   -7.0030    0.2372    2.1753 H   0  0  0  0  0  0  0  0  0  0  0  0
   -4.1072   -2.3955    0.1268 H   0  0  0  0  0  0  0  0  0  0  0  0
   -0.2548   -4.0416    0.5235 H   0  0  0  0  0  0  0  0  0  0  0  0
    0.7003   -1.8571    0.2524 H   0  0  0  0  0  0  0  0  0  0  0  0
    0.1646    2.2609   -0.4115 H   0  0  0  0  0  0  0  0  0  0  0  0
    1.9063    1.3421   -2.1469 H   0  0  0  0  0  0  0  0  0  0  0  0
    4.2168    0.7333   -2.2315 H   0  0  0  0  0  0  0  0  0  0  0  0
    3.9610   -0.7119    1.7966 H   0  0  0  0  0  0  0  0  0  0  0  0
    1.5793   -0.0599    1.8191 H   0  0  0  0  0  0  0  0  0  0  0  0
    7.0898    0.9205    1.3488 H   0  0  0  0  0  0  0  0  0  0  0  0
    6.5697    1.8062   -0.0813 H   0  0  0  0  0  0  0  0  0  0  0  0
    8.0465    0.7924   -0.1915 H   0  0  0  0  0  0  0  0  0  0  0  0
  1  2  1  0
  2  3  2  0
  3  4  1  0
  4  5  1  0
  5  6  1  0
  5  7  2  0
  3  8  1  0
  8  9  2  0
  9 10  1  0
 10 11  1  0
 10 12  2  0
 12 13  1  0
 13 14  2  0
 14 15  1  0
 15 16  2  0
 16 17  1  0
 17 18  2  0
 18 19  1  0
 19 20  2  0
 20 21  1  0
 21 22  2  0
 20 23  1  0
 23 24  1  0
 23 25  2  0
 15  2  1  0
 22 17  1  0
 14  8  1  0
  1 26  1  0
  1 27  1  0
  1 28  1  0
  4 29  1  0
  4 30  1  0
  6 31  1  0
  9 32  1  0
 12 33  1  0
 13 34  1  0
 16 35  1  0
 18 36  1  0
 19 37  1  0
 21 38  1  0
 22 39  1  0
 24 40  1  0
 24 41  1  0
 24 42  1  0
M  END
$$$$
