@<TRIPOS>MOLECULE
*****
 78 82 0 0 0
SMALL
GASTEIGER

@<TRIPOS>ATOM
      1 C         -10.8119    0.1519   -0.1242 C.3     1  UNL1       -0.0650
      2 C          -9.3145   -0.0474   -0.1225 C.3     1  UNL1       -0.0519
      3 C          -8.7422    0.8740   -1.1735 C.3     1  UNL1       -0.0279
      4 C          -7.2607    0.7328   -1.2344 C.ar    1  UNL1       -0.0473
      5 C          -6.4841    1.5482   -0.4104 C.ar    1  UNL1       -0.0567
      6 C          -5.1091    1.4634   -0.4302 C.ar    1  UNL1       -0.0351
      7 C          -4.4468    0.5766   -1.2578 C.ar    1  UNL1        0.1053
      8 S          -2.7089    0.4711   -1.2836 S.O2    1  UNL1        0.0585
      9 O          -2.1684    0.1573   -2.6608 O.2     1  UNL1       -0.1530
     10 O          -2.1145    1.8135   -0.9011 O.2     1  UNL1       -0.1530
     11 N          -2.1079   -0.7778   -0.2262 N.3     1  UNL1       -0.1882
     12 C          -2.4853   -0.5049    1.1450 C.3     1  UNL1        0.0361
     13 C          -1.9704   -1.5408    2.0416 C.3     1  UNL1        0.0403
     14 C          -2.3924   -2.9511    1.8103 C.3     1  UNL1       -0.0316
     15 C          -1.2562   -3.7573    2.4695 C.3     1  UNL1       -0.0354
     16 C          -0.3749   -2.6843    3.1458 C.3     1  UNL1        0.0153
     17 N          -0.5385   -1.6460    2.1429 N.pl3   1  UNL1       -0.2952
     18 C           0.5395   -0.9675    1.5172 C.ar    1  UNL1        0.2239
     19 N           0.5606   -0.7195    0.1981 N.ar    1  UNL1       -0.1809
     20 C           1.5873   -0.0575   -0.3387 C.ar    1  UNL1        0.2211
     21 N           1.6577    0.2144   -1.7451 N.pl3   1  UNL1       -0.3123
     22 C           2.7420    0.9211   -2.3761 C.3     1  UNL1        0.0246
     23 C           2.8660    2.3482   -1.8682 C.3     1  UNL1        0.0503
     24 C           1.6226    3.0200   -2.1673 C.1     1  UNL1        0.0641
     25 N           0.5887    3.5812   -2.3982 N.1     1  UNL1       -0.1965
     26 N           2.6295    0.3896    0.3813 N.ar    1  UNL1       -0.1810
     27 C           2.6292    0.1536    1.7035 C.ar    1  UNL1        0.2214
     28 N           3.6849    0.6111    2.5272 N.pl3   1  UNL1       -0.3077
     29 C           4.8620   -0.1395    2.8323 C.3     1  UNL1        0.0547
     30 C           5.6379   -0.5320    1.5901 C.ar    1  UNL1        0.0662
     31 C           5.4210   -1.7454    0.9706 C.ar    1  UNL1        0.0005
     32 S           6.5691   -1.6563   -0.3980 S.2     1  UNL1       -0.0753
     33 C           7.1879    0.0606    0.0878 C.ar    1  UNL1        0.1086
     34 C           8.2347    0.6733   -0.7466 C.ar    1  UNL1        0.0071
     35 C           8.7610    0.0088   -1.8194 C.ar    1  UNL1       -0.0521
     36 C           9.7661    0.6304   -2.5776 C.ar    1  UNL1       -0.0611
     37 C          10.2066    1.8846   -2.2415 C.ar    1  UNL1       -0.0617
     38 C           9.6593    2.5550   -1.1408 C.ar    1  UNL1       -0.0611
     39 C           8.6771    1.9169   -0.4200 C.ar    1  UNL1       -0.0521
     40 N           6.5307    0.2393    1.0393 N.ar    1  UNL1       -0.2424
     41 N           1.5955   -0.5104    2.2212 N.ar    1  UNL1       -0.1809
     42 C          -5.2321   -0.2335   -2.0760 C.ar    1  UNL1       -0.0351
     43 C          -6.6131   -0.1436   -2.0521 C.ar    1  UNL1       -0.0567
     44 H         -11.1111    1.0962    0.4083 H       1  UNL1        0.0230
     45 H         -11.1248    0.2823   -1.1813 H       1  UNL1        0.0230
     46 H         -11.3628   -0.7267    0.2670 H       1  UNL1        0.0230
     47 H          -8.8853    0.1787    0.8751 H       1  UNL1        0.0266
     48 H          -9.1146   -1.0888   -0.4377 H       1  UNL1        0.0266
     49 H          -9.0546    1.9328   -1.0397 H       1  UNL1        0.0313
     50 H          -9.1460    0.5270   -2.1544 H       1  UNL1        0.0313
     51 H          -7.0000    2.2453    0.2381 H       1  UNL1        0.0621
     52 H          -4.4857    2.1022    0.2167 H       1  UNL1        0.0637
     53 H          -2.6238   -1.6560   -0.5506 H       1  UNL1        0.1481
     54 H          -3.6151   -0.5877    1.1554 H       1  UNL1        0.0460
     55 H          -2.2916    0.5322    1.4323 H       1  UNL1        0.0460
     56 H          -2.3000   -1.3209    3.1233 H       1  UNL1        0.0514
     57 H          -3.3526   -3.1975    2.3487 H       1  UNL1        0.0284
     58 H          -2.4610   -3.1894    0.7391 H       1  UNL1        0.0284
     59 H          -0.6291   -4.1315    1.6362 H       1  UNL1        0.0281
     60 H          -1.6126   -4.5116    3.1619 H       1  UNL1        0.0281
     61 H           0.6627   -3.0385    3.2297 H       1  UNL1        0.0465
     62 H          -0.8215   -2.3919    4.0989 H       1  UNL1        0.0465
     63 H           0.8724   -0.1255   -2.3344 H       1  UNL1        0.1489
     64 H           2.6006    0.9325   -3.4741 H       1  UNL1        0.0472
     65 H           3.7288    0.4328   -2.1916 H       1  UNL1        0.0472
     66 H           3.6722    2.8689   -2.4613 H       1  UNL1        0.0433
     67 H           3.1137    2.3951   -0.8001 H       1  UNL1        0.0433
     68 H           3.5886    1.5756    2.9412 H       1  UNL1        0.1493
     69 H           4.5602   -1.0518    3.3986 H       1  UNL1        0.0527
     70 H           5.5281    0.4158    3.5201 H       1  UNL1        0.0527
     71 H           4.7572   -2.5491    1.2107 H       1  UNL1        0.0712
     72 H           8.4407   -0.9749   -2.1155 H       1  UNL1        0.0624
     73 H          10.1589    0.0610   -3.4270 H       1  UNL1        0.0618
     74 H          10.9920    2.3518   -2.8464 H       1  UNL1        0.0618
     75 H          10.0186    3.5292   -0.9011 H       1  UNL1        0.0618
     76 H           8.2434    2.4273    0.4347 H       1  UNL1        0.0624
     77 H          -4.7959   -0.9532   -2.7511 H       1  UNL1        0.0637
     78 H          -7.2352   -0.7738   -2.6899 H       1  UNL1        0.0621
@<TRIPOS>BOND
     1     1     2    1
     2     2     3    1
     3     3     4    1
     4     4     5   ar
     5     5     6   ar
     6     6     7   ar
     7     7     8    1
     8     8     9    2
     9     8    10    2
    10     8    11    1
    11    11    12    1
    12    12    13    1
    13    13    14    1
    14    14    15    1
    15    15    16    1
    16    16    17    1
    17    17    18    1
    18    18    19   ar
    19    19    20   ar
    20    20    21    1
    21    21    22    1
    22    22    23    1
    23    23    24    1
    24    24    25    3
    25    20    26   ar
    26    26    27   ar
    27    27    28    1
    28    28    29    1
    29    29    30    1
    30    30    31   ar
    31    31    32   ar
    32    32    33   ar
    33    33    34    1
    34    34    35   ar
    35    35    36   ar
    36    36    37   ar
    37    37    38   ar
    38    38    39   ar
    39    33    40   ar
    40    27    41   ar
    41     7    42   ar
    42    42    43   ar
    43    43     4   ar
    44    17    13    1
    45    41    18   ar
    46    40    30   ar
    47    39    34   ar
    48     1    44    1
    49     1    45    1
    50     1    46    1
    51     2    47    1
    52     2    48    1
    53     3    49    1
    54     3    50    1
    55     5    51    1
    56     6    52    1
    57    11    53    1
    58    12    54    1
    59    12    55    1
    60    13    56    1
    61    14    57    1
    62    14    58    1
    63    15    59    1
    64    15    60    1
    65    16    61    1
    66    16    62    1
    67    21    63    1
    68    22    64    1
    69    22    65    1
    70    23    66    1
    71    23    67    1
    72    28    68    1
    73    29    69    1
    74    29    70    1
    75    31    71    1
    76    35    72    1
    77    36    73    1
    78    37    74    1
    79    38    75    1
    80    39    76    1
    81    42    77    1
    82    43    78    1
