@<TRIPOS>MOLECULE
*****
 41 43 0 0 0
SMALL
GASTEIGER

@<TRIPOS>ATOM
      1 C           3.1501   -3.0636   -0.9342 C.3     1  UNL1        0.0788
      2 O           1.9855   -2.2654   -0.8594 O.3     1  UNL1       -0.4942
      3 C           2.0161   -0.9867   -0.3538 C.ar    1  UNL1        0.1378
      4 C           3.1666   -0.3897    0.1133 C.ar    1  UNL1        0.0242
      5 C           3.1690    0.8928    0.6146 C.ar    1  UNL1        0.1454
      6 O           4.2677    1.5607    1.0989 O.3     1  UNL1       -0.4934
      7 C           5.5746    1.0769    1.1758 C.3     1  UNL1        0.0789
      8 C           1.9760    1.6066    0.6507 C.ar    1  UNL1        0.1250
      9 CL          1.9055    3.2427    1.2753 Cl      1  UNL1       -0.0759
     10 C           0.7794    1.0602    0.1940 C.ar    1  UNL1        0.1585
     11 C           0.8714   -0.2281   -0.2904 C.ar    1  UNL1        0.1068
     12 C          -0.4871   -0.5634   -0.6976 C.2     1  UNL1        0.2213
     13 O          -0.9404   -1.4854   -1.4145 O.2     1  UNL1       -0.2870
     14 C          -1.4022    0.4154   -0.1081 C.3     1  UNL1        0.2313
     15 O          -0.5256    1.5226    0.1092 O.3     1  UNL1       -0.4674
     16 C          -1.9105   -0.0080    1.2510 C.3     1  UNL1        0.0177
     17 C          -2.8032   -1.2143    1.1419 C.3     1  UNL1       -0.0575
     18 C          -2.6240    1.1250    1.9567 C.3     1  UNL1        0.0170
     19 C          -3.3276    1.9860    0.9688 C.2     1  UNL1        0.1598
     20 O          -3.8604    3.0465    1.4015 O.2     1  UNL1       -0.2926
     21 C          -3.4132    1.6422   -0.4476 C.2     1  UNL1        0.0228
     22 C          -2.4828    0.8756   -0.9953 C.2     1  UNL1        0.1521
     23 O          -2.4967    0.5066   -2.3337 O.2     1  UNL1       -0.4947
     24 C          -3.5269   -0.3586   -2.8282 C.3     1  UNL1        0.0785
     25 H           3.5368   -3.3349    0.0705 H       1  UNL1        0.0660
     26 H           2.8733   -4.0096   -1.4803 H       1  UNL1        0.0660
     27 H           3.8828   -2.5212   -1.5661 H       1  UNL1        0.0660
     28 H           4.0839   -0.9239    0.0913 H       1  UNL1        0.0692
     29 H           5.7408    0.1606    0.5813 H       1  UNL1        0.0660
     30 H           5.8094    0.8890    2.2456 H       1  UNL1        0.0660
     31 H           6.2428    1.9115    0.8546 H       1  UNL1        0.0660
     32 H          -1.0683   -0.2949    1.9052 H       1  UNL1        0.0350
     33 H          -3.4104   -1.2571    2.0873 H       1  UNL1        0.0234
     34 H          -3.4880   -1.0664    0.2866 H       1  UNL1        0.0234
     35 H          -2.1901   -2.1523    1.0320 H       1  UNL1        0.0234
     36 H          -1.9219    1.6901    2.5999 H       1  UNL1        0.0349
     37 H          -3.3664    0.6136    2.6352 H       1  UNL1        0.0349
     38 H          -4.2260    2.0094   -1.0405 H       1  UNL1        0.0687
     39 H          -3.4238   -0.5711   -3.8959 H       1  UNL1        0.0660
     40 H          -3.6065   -1.2808   -2.2422 H       1  UNL1        0.0660
     41 H          -4.5296    0.1415   -2.7227 H       1  UNL1        0.0660
@<TRIPOS>BOND
     1     1     2    1
     2     2     3    1
     3     3     4   ar
     4     4     5   ar
     5     5     6    1
     6     6     7    1
     7     5     8   ar
     8     8     9    1
     9     8    10   ar
    10    10    11   ar
    11    11    12    1
    12    12    13    2
    13    12    14    1
    14    14    15    1
    15    14    16    1
    16    16    17    1
    17    16    18    1
    18    18    19    1
    19    19    20    2
    20    19    21    1
    21    21    22    2
    22    22    23    1
    23    23    24    1
    24    11     3   ar
    25    22    14    1
    26    15    10    1
    27     1    25    1
    28     1    26    1
    29     1    27    1
    30     4    28    1
    31     7    29    1
    32     7    30    1
    33     7    31    1
    34    16    32    1
    35    17    33    1
    36    17    34    1
    37    17    35    1
    38    18    36    1
    39    18    37    1
    40    21    38    1
    41    24    39    1
    42    24    40    1
    43    24    41    1
