
     RDKit          3D

 55 57  0  0  0  0  0  0  0  0999 V2000
   -6.2358   -1.7957    1.8391 C   0  0  0  0  0  0  0  0  0  0  0  0
   -6.0258   -0.5625    1.2014 O   0  0  0  0  0  0  0  0  0  0  0  0
   -4.8335   -0.1902    0.5754 C   0  0  0  0  0  0  0  0  0  0  0  0
   -3.6620   -0.9235    0.4587 C   0  0  0  0  0  0  0  0  0  0  0  0
   -2.6022   -0.3520   -0.2079 C   0  0  0  0  0  0  0  0  0  0  0  0
   -2.6505    0.9090   -0.7621 C   0  0  0  0  0  0  0  0  0  0  0  0
   -3.8270    1.6169   -0.6316 C   0  0  0  0  0  0  0  0  0  0  0  0
   -4.9083    1.0921    0.0220 C   0  0  0  0  0  0  0  0  0  0  0  0
   -1.4115    1.4010   -1.4646 C   0  0  2  0  0  0  0  0  0  0  0  0
   -1.1318    0.3225   -2.8354 S   0  0  0  0  0  0  0  0  0  0  0  0
    0.2033   -0.8123   -2.6898 C   0  0  0  0  0  0  0  0  0  0  0  0
    1.0565   -1.0922   -1.6439 C   0  0  0  0  0  0  0  0  0  0  0  0
    2.0060   -2.0596   -1.8875 C   0  0  0  0  0  0  0  0  0  0  0  0
    2.1435   -2.7413   -3.0850 C   0  0  0  0  0  0  0  0  0  0  0  0
    1.2809   -2.4487   -4.1211 C   0  0  0  0  0  0  0  0  0  0  0  0
    0.3183   -1.4788   -3.8977 C   0  0  0  0  0  0  0  0  0  0  0  0
    1.1305   -0.5438   -0.3210 N   0  0  0  0  0  0  0  0  0  0  0  0
    2.0904   -1.1445    0.5856 C   0  0  0  0  0  0  0  0  0  0  0  0
    3.4530   -0.5075    0.5436 C   0  0  0  0  0  0  0  0  0  0  0  0
    4.4282   -1.0607    1.4073 N   0  0  0  0  0  0  0  0  0  0  0  0
    4.2302   -0.8720    2.8046 C   0  0  0  0  0  0  0  0  0  0  0  0
    5.7650   -1.1253    0.9422 C   0  0  0  0  0  0  0  0  0  0  0  0
    0.3189    0.5575    0.1567 C   0  0  0  0  0  0  0  0  0  0  0  0
    0.1605    0.4554    1.4273 O   0  0  0  0  0  0  0  0  0  0  0  0
   -0.3041    1.6880   -0.5326 C   0  0  2  0  0  0  0  0  0  0  0  0
   -0.8193    2.5505    0.4832 O   0  0  0  0  0  0  0  0  0  0  0  0
   -0.3894    3.8383    0.6550 C   0  0  0  0  0  0  0  0  0  0  0  0
   -0.8952    4.7712    1.6971 C   0  0  0  0  0  0  0  0  0  0  0  0
    0.5108    4.2940   -0.1232 O   0  0  0  0  0  0  0  0  0  0  0  0
   -6.6841   -2.5552    1.1375 H   0  0  0  0  0  0  0  0  0  0  0  0
   -5.3062   -2.2722    2.2231 H   0  0  0  0  0  0  0  0  0  0  0  0
   -6.9154   -1.6904    2.7005 H   0  0  0  0  0  0  0  0  0  0  0  0
   -3.7110   -1.8946    0.9182 H   0  0  0  0  0  0  0  0  0  0  0  0
   -1.7082   -0.9452   -0.2825 H   0  0  0  0  0  0  0  0  0  0  0  0
   -3.8441    2.6180   -1.0797 H   0  0  0  0  0  0  0  0  0  0  0  0
   -5.7837    1.7436    0.0623 H   0  0  0  0  0  0  0  0  0  0  0  0
   -1.7519    2.3950   -1.8884 H   0  0  0  0  0  0  0  0  0  0  0  0
    2.7150   -2.3396   -1.1248 H   0  0  0  0  0  0  0  0  0  0  0  0
    2.9158   -3.4970   -3.2181 H   0  0  0  0  0  0  0  0  0  0  0  0
    1.3757   -2.9700   -5.0559 H   0  0  0  0  0  0  0  0  0  0  0  0
   -0.3303   -1.2865   -4.7411 H   0  0  0  0  0  0  0  0  0  0  0  0
    1.6838   -0.8073    1.6014 H   0  0  0  0  0  0  0  0  0  0  0  0
    2.0448   -2.2194    0.7008 H   0  0  0  0  0  0  0  0  0  0  0  0
    3.3531    0.5747    0.8758 H   0  0  0  0  0  0  0  0  0  0  0  0
    3.8818   -0.3947   -0.4711 H   0  0  0  0  0  0  0  0  0  0  0  0
    3.9087   -1.7504    3.3616 H   0  0  0  0  0  0  0  0  0  0  0  0
    3.5750    0.0336    2.9584 H   0  0  0  0  0  0  0  0  0  0  0  0
    5.2167   -0.5563    3.2224 H   0  0  0  0  0  0  0  0  0  0  0  0
    5.9828   -0.2074    0.3415 H   0  0  0  0  0  0  0  0  0  0  0  0
    5.9922   -2.0510    0.3700 H   0  0  0  0  0  0  0  0  0  0  0  0
    6.4518   -1.0441    1.8259 H   0  0  0  0  0  0  0  0  0  0  0  0
    0.4537    2.3413   -1.0566 H   0  0  0  0  0  0  0  0  0  0  0  0
   -1.9456    4.5788    1.9914 H   0  0  0  0  0  0  0  0  0  0  0  0
   -0.7004    5.8215    1.4215 H   0  0  0  0  0  0  0  0  0  0  0  0
   -0.2692    4.5890    2.6106 H   0  0  0  0  0  0  0  0  0  0  0  0
  1  2  1  0
  2  3  1  0
  3  4  2  0
  4  5  1  0
  5  6  2  0
  6  7  1  0
  7  8  2  0
  6  9  1  0
  9 10  1  0
 10 11  1  0
 11 12  2  0
 12 13  1  0
 13 14  2  0
 14 15  1  0
 15 16  2  0
 12 17  1  0
 17 18  1  0
 18 19  1  0
 19 20  1  0
 20 21  1  0
 20 22  1  0
 17 23  1  0
 23 24  2  0
 23 25  1  0
 25 26  1  0
 26 27  1  0
 27 28  1  0
 27 29  2  0
  8  3  1  0
 25  9  1  0
 16 11  1  0
  1 30  1  0
  1 31  1  0
  1 32  1  0
  4 33  1  0
  5 34  1  0
  7 35  1  0
  8 36  1  0
  9 37  1  6
 13 38  1  0
 14 39  1  0
 15 40  1  0
 16 41  1  0
 18 42  1  0
 18 43  1  0
 19 44  1  0
 19 45  1  0
 21 46  1  0
 21 47  1  0
 21 48  1  0
 22 49  1  0
 22 50  1  0
 22 51  1  0
 25 52  1  6
 28 53  1  0
 28 54  1  0
 28 55  1  0
M  END
$$$$
