
     RDKit          3D

 31 32  0  0  0  0  0  0  0  0999 V2000
   -5.6543   -0.4507   -1.1859 C   0  0  0  0  0  0  0  0  0  0  0  0
   -4.8865   -0.1162    0.0410 C   0  0  0  0  0  0  0  0  0  0  0  0
   -5.4573    0.1659    1.1313 O   0  0  0  0  0  0  0  0  0  0  0  0
   -3.4257   -0.1239   -0.0542 C   0  0  0  0  0  0  0  0  0  0  0  0
   -2.6961    0.1819    1.0665 C   0  0  0  0  0  0  0  0  0  0  0  0
   -1.2993    0.1757    0.9798 C   0  0  0  0  0  0  0  0  0  0  0  0
   -0.6618   -0.1286   -0.1974 C   0  0  0  0  0  0  0  0  0  0  0  0
    0.7117   -0.1298   -0.2640 O   0  0  0  0  0  0  0  0  0  0  0  0
    1.4705    0.1845    0.8872 C   0  0  0  0  0  0  0  0  0  0  0  0
    2.8997    0.1177    0.5702 C   0  0  0  0  0  0  0  0  0  0  0  0
    3.5499    1.2365    0.1182 C   0  0  0  0  0  0  0  0  0  0  0  0
    4.9002    1.1863   -0.1848 C   0  0  0  0  0  0  0  0  0  0  0  0
    5.6099    0.0319   -0.0419 C   0  0  0  0  0  0  0  0  0  0  0  0
    6.9457    0.0078   -0.3485 F   0  0  0  0  0  0  0  0  0  0  0  0
    4.9708   -1.0992    0.4108 C   0  0  0  0  0  0  0  0  0  0  0  0
    3.6047   -1.0466    0.7169 C   0  0  0  0  0  0  0  0  0  0  0  0
   -1.3921   -0.4344   -1.3177 C   0  0  0  0  0  0  0  0  0  0  0  0
   -2.7870   -0.4289   -1.2337 C   0  0  0  0  0  0  0  0  0  0  0  0
   -5.2673   -1.3559   -1.6656 H   0  0  0  0  0  0  0  0  0  0  0  0
   -6.7146   -0.5826   -0.8783 H   0  0  0  0  0  0  0  0  0  0  0  0
   -5.5962    0.4099   -1.9050 H   0  0  0  0  0  0  0  0  0  0  0  0
   -3.2028    0.4200    1.9877 H   0  0  0  0  0  0  0  0  0  0  0  0
   -0.7431    0.4180    1.8683 H   0  0  0  0  0  0  0  0  0  0  0  0
    1.2100    1.2490    1.1394 H   0  0  0  0  0  0  0  0  0  0  0  0
    1.1676   -0.5014    1.7042 H   0  0  0  0  0  0  0  0  0  0  0  0
    3.0651    2.1979   -0.0258 H   0  0  0  0  0  0  0  0  0  0  0  0
    5.4123    2.0709   -0.5418 H   0  0  0  0  0  0  0  0  0  0  0  0
    5.4946   -2.0368    0.5392 H   0  0  0  0  0  0  0  0  0  0  0  0
    3.1187   -1.9390    1.0698 H   0  0  0  0  0  0  0  0  0  0  0  0
   -0.9548   -0.6830   -2.2755 H   0  0  0  0  0  0  0  0  0  0  0  0
   -3.3925   -0.6687   -2.1107 H   0  0  0  0  0  0  0  0  0  0  0  0
  1  2  1  0
  2  3  2  0
  2  4  1  0
  4  5  2  0
  5  6  1  0
  6  7  2  0
  7  8  1  0
  8  9  1  0
  9 10  1  0
 10 11  2  0
 11 12  1  0
 12 13  2  0
 13 14  1  0
 13 15  1  0
 15 16  2  0
  7 17  1  0
 17 18  2  0
 18  4  1  0
 16 10  1  0
  1 19  1  0
  1 20  1  0
  1 21  1  0
  5 22  1  0
  6 23  1  0
  9 24  1  0
  9 25  1  0
 11 26  1  0
 12 27  1  0
 15 28  1  0
 16 29  1  0
 17 30  1  0
 18 31  1  0
M  END
$$$$
