@<TRIPOS>MOLECULE
*****
 31 32 0 0 0
SMALL
GASTEIGER

@<TRIPOS>ATOM
      1 C          -5.6543   -0.4507   -1.1859 C.3     1  UNL1       -0.0014
      2 C          -4.8865   -0.1162    0.0410 C.2     1  UNL1        0.1601
      3 O          -5.4573    0.1659    1.1313 O.2     1  UNL1       -0.2924
      4 C          -3.4257   -0.1239   -0.0542 C.ar    1  UNL1        0.0173
      5 C          -2.6961    0.1819    1.0665 C.ar    1  UNL1       -0.0478
      6 C          -1.2993    0.1757    0.9798 C.ar    1  UNL1       -0.0193
      7 C          -0.6618   -0.1286   -0.1974 C.ar    1  UNL1        0.1210
      8 O           0.7117   -0.1298   -0.2640 O.3     1  UNL1       -0.4874
      9 C           1.4705    0.1845    0.8872 C.3     1  UNL1        0.1146
     10 C           2.8997    0.1177    0.5702 C.ar    1  UNL1       -0.0102
     11 C           3.5499    1.2365    0.1182 C.ar    1  UNL1       -0.0526
     12 C           4.9002    1.1863   -0.1848 C.ar    1  UNL1       -0.0261
     13 C           5.6099    0.0319   -0.0419 C.ar    1  UNL1        0.1234
     14 F           6.9457    0.0078   -0.3485 F       1  UNL1       -0.2055
     15 C           4.9708   -1.0992    0.4108 C.ar    1  UNL1       -0.0261
     16 C           3.6047   -1.0466    0.7169 C.ar    1  UNL1       -0.0526
     17 C          -1.3921   -0.4344   -1.3177 C.ar    1  UNL1       -0.0193
     18 C          -2.7870   -0.4289   -1.2337 C.ar    1  UNL1       -0.0478
     19 H          -5.2673   -1.3559   -1.6656 H       1  UNL1        0.0309
     20 H          -6.7146   -0.5826   -0.8783 H       1  UNL1        0.0309
     21 H          -5.5962    0.4099   -1.9050 H       1  UNL1        0.0309
     22 H          -3.2028    0.4200    1.9877 H       1  UNL1        0.0626
     23 H          -0.7431    0.4180    1.8683 H       1  UNL1        0.0654
     24 H           1.2100    1.2490    1.1394 H       1  UNL1        0.0748
     25 H           1.1676   -0.5014    1.7042 H       1  UNL1        0.0748
     26 H           3.0651    2.1979   -0.0258 H       1  UNL1        0.0622
     27 H           5.4123    2.0709   -0.5418 H       1  UNL1        0.0646
     28 H           5.4946   -2.0368    0.5392 H       1  UNL1        0.0646
     29 H           3.1187   -1.9390    1.0698 H       1  UNL1        0.0622
     30 H          -0.9548   -0.6830   -2.2755 H       1  UNL1        0.0654
     31 H          -3.3925   -0.6687   -2.1107 H       1  UNL1        0.0626
@<TRIPOS>BOND
     1     1     2    1
     2     2     3    2
     3     2     4    1
     4     4     5   ar
     5     5     6   ar
     6     6     7   ar
     7     7     8    1
     8     8     9    1
     9     9    10    1
    10    10    11   ar
    11    11    12   ar
    12    12    13   ar
    13    13    14    1
    14    13    15   ar
    15    15    16   ar
    16     7    17   ar
    17    17    18   ar
    18    18     4   ar
    19    16    10   ar
    20     1    19    1
    21     1    20    1
    22     1    21    1
    23     5    22    1
    24     6    23    1
    25     9    24    1
    26     9    25    1
    27    11    26    1
    28    12    27    1
    29    15    28    1
    30    16    29    1
    31    17    30    1
    32    18    31    1
