
     RDKit          3D

 49 52  0  0  0  0  0  0  0  0999 V2000
   -7.8469    1.2787   -0.2339 C   0  0  0  0  0  0  0  0  0  0  0  0
   -6.6318    0.8576   -0.8436 O   0  0  0  0  0  0  0  0  0  0  0  0
   -5.5141    0.5843   -0.0527 C   0  0  0  0  0  0  0  0  0  0  0  0
   -5.6071    0.7291    1.3288 C   0  0  0  0  0  0  0  0  0  0  0  0
   -4.5019    0.4585    2.1069 C   0  0  0  0  0  0  0  0  0  0  0  0
   -3.3462    0.0549    1.4895 C   0  0  0  0  0  0  0  0  0  0  0  0
   -3.2387   -0.0947    0.1043 C   0  0  0  0  0  0  0  0  0  0  0  0
   -4.3538    0.1786   -0.6779 C   0  0  0  0  0  0  0  0  0  0  0  0
   -4.0467   -0.0348   -2.0986 C   0  0  0  0  0  0  0  0  0  0  0  0
   -2.5834   -0.4624   -2.1204 C   0  0  0  0  0  0  0  0  0  0  0  0
   -2.1701   -0.4907   -0.7373 N   0  0  0  0  0  0  0  0  0  0  0  0
   -0.8852   -0.8599   -0.2862 C   0  0  0  0  0  0  0  0  0  0  0  0
   -0.5951   -0.8612    0.9394 O   0  0  0  0  0  0  0  0  0  0  0  0
    0.1779   -1.2631   -1.2501 C   0  0  0  0  0  0  0  0  0  0  0  0
    1.4400   -1.6065   -0.5433 C   0  0  0  0  0  0  0  0  0  0  0  0
    2.3801   -0.6789   -0.2877 N   0  0  0  0  0  0  0  0  0  0  0  0
    3.5386   -0.9703    0.3556 C   0  0  0  0  0  0  0  0  0  0  0  0
    4.5197    0.0220    0.6168 N   0  0  0  0  0  0  0  0  0  0  0  0
    5.7349   -0.3571    1.3083 C   0  0  0  0  0  0  0  0  0  0  0  0
    6.7157    0.7797    1.1578 C   0  0  0  0  0  0  0  0  0  0  0  0
    6.7425    1.1570   -0.1680 O   0  0  0  0  0  0  0  0  0  0  0  0
    5.5791    1.7898   -0.5815 C   0  0  0  0  0  0  0  0  0  0  0  0
    4.3728    1.4034    0.2275 C   0  0  0  0  0  0  0  0  0  0  0  0
    3.7159   -2.2675    0.7407 C   0  0  0  0  0  0  0  0  0  0  0  0
    2.7736   -3.2558    0.4978 C   0  0  0  0  0  0  0  0  0  0  0  0
    3.0048   -4.4293    0.8814 O   0  0  0  0  0  0  0  0  0  0  0  0
    1.6596   -2.8783   -0.1430 N   0  0  0  0  0  0  0  0  0  0  0  0
   -7.7653    2.3163    0.1583 H   0  0  0  0  0  0  0  0  0  0  0  0
   -8.6665    1.2424   -0.9656 H   0  0  0  0  0  0  0  0  0  0  0  0
   -8.1219    0.5838    0.5864 H   0  0  0  0  0  0  0  0  0  0  0  0
   -6.5272    1.0471    1.7801 H   0  0  0  0  0  0  0  0  0  0  0  0
   -4.5184    0.5552    3.1932 H   0  0  0  0  0  0  0  0  0  0  0  0
   -2.4923   -0.1520    2.1170 H   0  0  0  0  0  0  0  0  0  0  0  0
   -4.7001   -0.8224   -2.5719 H   0  0  0  0  0  0  0  0  0  0  0  0
   -4.1954    0.8802   -2.7229 H   0  0  0  0  0  0  0  0  0  0  0  0
   -2.5319   -1.4710   -2.5864 H   0  0  0  0  0  0  0  0  0  0  0  0
   -1.9846    0.2636   -2.7224 H   0  0  0  0  0  0  0  0  0  0  0  0
    0.3437   -0.4339   -1.9918 H   0  0  0  0  0  0  0  0  0  0  0  0
   -0.1894   -2.1234   -1.8683 H   0  0  0  0  0  0  0  0  0  0  0  0
    6.1494   -1.2349    0.7811 H   0  0  0  0  0  0  0  0  0  0  0  0
    5.5465   -0.6148    2.3703 H   0  0  0  0  0  0  0  0  0  0  0  0
    6.4224    1.6468    1.8169 H   0  0  0  0  0  0  0  0  0  0  0  0
    7.7200    0.3887    1.4132 H   0  0  0  0  0  0  0  0  0  0  0  0
    5.7792    2.8939   -0.5140 H   0  0  0  0  0  0  0  0  0  0  0  0
    5.3522    1.5792   -1.6466 H   0  0  0  0  0  0  0  0  0  0  0  0
    4.2960    2.0762    1.1223 H   0  0  0  0  0  0  0  0  0  0  0  0
    3.4733    1.4855   -0.4039 H   0  0  0  0  0  0  0  0  0  0  0  0
    4.6394   -2.5479    1.2644 H   0  0  0  0  0  0  0  0  0  0  0  0
    0.9364   -3.5900   -0.3401 H   0  0  0  0  0  0  0  0  0  0  0  0
  1  2  1  0
  2  3  1  0
  3  4  2  0
  4  5  1  0
  5  6  2  0
  6  7  1  0
  7  8  2  0
  8  9  1  0
  9 10  1  0
 10 11  1  0
 11 12  1  0
 12 13  2  0
 12 14  1  0
 14 15  1  0
 15 16  2  0
 16 17  1  0
 17 18  1  0
 18 19  1  0
 19 20  1  0
 20 21  1  0
 21 22  1  0
 22 23  1  0
 17 24  2  0
 24 25  1  0
 25 26  2  0
 25 27  1  0
  8  3  1  0
 27 15  1  0
 11  7  1  0
 23 18  1  0
  1 28  1  0
  1 29  1  0
  1 30  1  0
  4 31  1  0
  5 32  1  0
  6 33  1  0
  9 34  1  0
  9 35  1  0
 10 36  1  0
 10 37  1  0
 14 38  1  0
 14 39  1  0
 19 40  1  0
 19 41  1  0
 20 42  1  0
 20 43  1  0
 22 44  1  0
 22 45  1  0
 23 46  1  0
 23 47  1  0
 24 48  1  0
 27 49  1  0
M  END
$$$$
