@<TRIPOS>MOLECULE
*****
 49 52 0 0 0
SMALL
GASTEIGER

@<TRIPOS>ATOM
      1 C          -7.8469    1.2787   -0.2339 C.3     1  UNL1        0.0788
      2 O          -6.6318    0.8576   -0.8436 O.3     1  UNL1       -0.4948
      3 C          -5.5141    0.5843   -0.0527 C.ar    1  UNL1        0.1251
      4 C          -5.6071    0.7291    1.3288 C.ar    1  UNL1       -0.0196
      5 C          -4.5019    0.4585    2.1069 C.ar    1  UNL1       -0.0565
      6 C          -3.3462    0.0549    1.4895 C.ar    1  UNL1       -0.0398
      7 C          -3.2387   -0.0947    0.1043 C.ar    1  UNL1        0.0430
      8 C          -4.3538    0.1786   -0.6779 C.ar    1  UNL1        0.0171
      9 C          -4.0467   -0.0348   -2.0986 C.3     1  UNL1       -0.0062
     10 C          -2.5834   -0.4624   -2.1204 C.3     1  UNL1        0.0240
     11 N          -2.1701   -0.4907   -0.7373 N.am    1  UNL1       -0.2704
     12 C          -0.8852   -0.8599   -0.2862 C.2     1  UNL1        0.2271
     13 O          -0.5951   -0.8612    0.9394 O.2     1  UNL1       -0.2748
     14 C           0.1779   -1.2631   -1.2501 C.3     1  UNL1        0.0826
     15 C           1.4400   -1.6065   -0.5433 C.ar    1  UNL1        0.1206
     16 N           2.3801   -0.6789   -0.2877 N.ar    1  UNL1       -0.2186
     17 C           3.5386   -0.9703    0.3556 C.ar    1  UNL1        0.1285
     18 N           4.5197    0.0220    0.6168 N.pl3   1  UNL1       -0.3106
     19 C           5.7349   -0.3571    1.3083 C.3     1  UNL1        0.0370
     20 C           6.7157    0.7797    1.1578 C.3     1  UNL1        0.0634
     21 O           6.7425    1.1570   -0.1680 O.3     1  UNL1       -0.3767
     22 C           5.5791    1.7898   -0.5815 C.3     1  UNL1        0.0634
     23 C           4.3728    1.4034    0.2275 C.3     1  UNL1        0.0370
     24 C           3.7159   -2.2675    0.7407 C.ar    1  UNL1        0.0427
     25 C           2.7736   -3.2558    0.4978 C.ar    1  UNL1        0.2533
     26 O           3.0048   -4.4293    0.8814 O.2     1  UNL1       -0.2677
     27 N           1.6596   -2.8783   -0.1430 N.ar    1  UNL1       -0.3104
     28 H          -7.7653    2.3163    0.1583 H       1  UNL1        0.0660
     29 H          -8.6665    1.2424   -0.9656 H       1  UNL1        0.0660
     30 H          -8.1219    0.5838    0.5864 H       1  UNL1        0.0660
     31 H          -6.5272    1.0471    1.7801 H       1  UNL1        0.0654
     32 H          -4.5184    0.5552    3.1932 H       1  UNL1        0.0619
     33 H          -2.4923   -0.1520    2.1170 H       1  UNL1        0.0636
     34 H          -4.7001   -0.8224   -2.5719 H       1  UNL1        0.0330
     35 H          -4.1954    0.8802   -2.7229 H       1  UNL1        0.0330
     36 H          -2.5319   -1.4710   -2.5864 H       1  UNL1        0.0472
     37 H          -1.9846    0.2636   -2.7224 H       1  UNL1        0.0472
     38 H           0.3437   -0.4339   -1.9918 H       1  UNL1        0.0438
     39 H          -0.1894   -2.1234   -1.8683 H       1  UNL1        0.0438
     40 H           6.1494   -1.2349    0.7811 H       1  UNL1        0.0487
     41 H           5.5465   -0.6148    2.3703 H       1  UNL1        0.0487
     42 H           6.4224    1.6468    1.8169 H       1  UNL1        0.0575
     43 H           7.7200    0.3887    1.4132 H       1  UNL1        0.0575
     44 H           5.7792    2.8939   -0.5140 H       1  UNL1        0.0575
     45 H           5.3522    1.5792   -1.6466 H       1  UNL1        0.0575
     46 H           4.2960    2.0762    1.1223 H       1  UNL1        0.0487
     47 H           3.4733    1.4855   -0.4039 H       1  UNL1        0.0487
     48 H           4.6394   -2.5479    1.2644 H       1  UNL1        0.0706
     49 H           0.9364   -3.5900   -0.3401 H       1  UNL1        0.1700
@<TRIPOS>BOND
     1     1     2    1
     2     2     3    1
     3     3     4   ar
     4     4     5   ar
     5     5     6   ar
     6     6     7   ar
     7     7     8   ar
     8     8     9    1
     9     9    10    1
    10    10    11    1
    11    11    12   am
    12    12    13    2
    13    12    14    1
    14    14    15    1
    15    15    16   ar
    16    16    17   ar
    17    17    18    1
    18    18    19    1
    19    19    20    1
    20    20    21    1
    21    21    22    1
    22    22    23    1
    23    17    24   ar
    24    24    25   ar
    25    25    26    2
    26    25    27   ar
    27     8     3   ar
    28    27    15   ar
    29    11     7    1
    30    23    18    1
    31     1    28    1
    32     1    29    1
    33     1    30    1
    34     4    31    1
    35     5    32    1
    36     6    33    1
    37     9    34    1
    38     9    35    1
    39    10    36    1
    40    10    37    1
    41    14    38    1
    42    14    39    1
    43    19    40    1
    44    19    41    1
    45    20    42    1
    46    20    43    1
    47    22    44    1
    48    22    45    1
    49    23    46    1
    50    23    47    1
    51    24    48    1
    52    27    49    1
