
     RDKit          3D

 53 56  0  0  0  0  0  0  0  0999 V2000
    2.2686   -2.8582    0.1561 O   0  0  0  0  0  0  0  0  0  0  0  0
    2.0737   -1.5935    0.2085 C   0  0  0  0  0  0  0  0  0  0  0  0
    0.8181   -1.0628    0.1656 C   0  0  0  0  0  0  0  0  0  0  0  0
    0.6056    0.3214    0.2231 C   0  0  0  0  0  0  0  0  0  0  0  0
   -0.7538    0.8420    0.1740 C   0  0  0  0  0  0  0  0  0  0  0  0
   -1.0204    2.1788    0.2261 C   0  0  0  0  0  0  0  0  0  0  0  0
   -2.3537    2.6232    0.1747 C   0  0  0  0  0  0  0  0  0  0  0  0
   -3.3311    1.7105    0.0752 N   0  0  0  0  0  0  0  0  0  0  0  0
   -3.0678    0.3965    0.0241 C   0  0  0  0  0  0  0  0  0  0  0  0
   -4.0925   -0.5720   -0.0809 N   0  0  0  0  0  0  0  0  0  0  0  0
   -5.4572   -0.1646   -0.1384 C   0  0  0  0  0  0  0  0  0  0  0  0
   -5.7896    0.7150   -1.3212 C   0  0  0  0  0  0  0  0  0  0  0  0
   -7.2118    1.2359   -1.0736 C   0  0  0  0  0  0  0  0  0  0  0  0
   -8.0454    0.1240   -1.1907 O   0  0  0  0  0  0  0  0  0  0  0  0
   -7.8155   -0.8131   -0.1967 C   0  0  0  0  0  0  0  0  0  0  0  0
   -6.4069   -1.3594   -0.2142 C   0  0  0  0  0  0  0  0  0  0  0  0
   -1.7879   -0.0039    0.0747 N   0  0  0  0  0  0  0  0  0  0  0  0
    1.7270    1.1091    0.3244 C   0  0  0  0  0  0  0  0  0  0  0  0
    2.9819    0.5157    0.3641 C   0  0  0  0  0  0  0  0  0  0  0  0
    3.1721   -0.8102    0.3084 N   0  0  0  0  0  0  0  0  0  0  0  0
    4.4632   -1.4209    0.3493 C   0  0  2  0  0  0  0  0  0  0  0  0
    4.8608   -1.8655    1.7314 C   0  0  0  0  0  0  0  0  0  0  0  0
    3.9308   -2.8032    2.1992 O   0  0  0  0  0  0  0  0  0  0  0  0
    5.4629   -0.4668   -0.2058 C   0  0  0  0  0  0  0  0  0  0  0  0
    6.1427    0.4124    0.5859 C   0  0  0  0  0  0  0  0  0  0  0  0
    7.0749    1.2965    0.0457 C   0  0  0  0  0  0  0  0  0  0  0  0
    7.3133    1.2841   -1.2996 C   0  0  0  0  0  0  0  0  0  0  0  0
    8.4866    2.3994   -1.9671 Cl  0  0  0  0  0  0  0  0  0  0  0  0
    6.6301    0.3977   -2.1099 C   0  0  0  0  0  0  0  0  0  0  0  0
    6.8791    0.3974   -3.4500 F   0  0  0  0  0  0  0  0  0  0  0  0
    5.7236   -0.4582   -1.5643 C   0  0  0  0  0  0  0  0  0  0  0  0
   -0.0563   -1.6872    0.0861 H   0  0  0  0  0  0  0  0  0  0  0  0
   -0.2541    2.9120    0.3050 H   0  0  0  0  0  0  0  0  0  0  0  0
   -2.5631    3.6898    0.2164 H   0  0  0  0  0  0  0  0  0  0  0  0
   -3.8508   -1.5770   -0.1159 H   0  0  0  0  0  0  0  0  0  0  0  0
   -5.6706    0.4361    0.7696 H   0  0  0  0  0  0  0  0  0  0  0  0
   -5.0897    1.5259   -1.5063 H   0  0  0  0  0  0  0  0  0  0  0  0
   -5.8949    0.0227   -2.1984 H   0  0  0  0  0  0  0  0  0  0  0  0
   -7.4405    1.9173   -1.8999 H   0  0  0  0  0  0  0  0  0  0  0  0
   -7.2124    1.6797   -0.0773 H   0  0  0  0  0  0  0  0  0  0  0  0
   -8.0588   -0.4261    0.8130 H   0  0  0  0  0  0  0  0  0  0  0  0
   -8.4979   -1.6679   -0.3982 H   0  0  0  0  0  0  0  0  0  0  0  0
   -6.2290   -1.8713   -1.1746 H   0  0  0  0  0  0  0  0  0  0  0  0
   -6.2899   -2.0005    0.6720 H   0  0  0  0  0  0  0  0  0  0  0  0
    1.6110    2.1860    0.3718 H   0  0  0  0  0  0  0  0  0  0  0  0
    3.8194    1.1933    0.4442 H   0  0  0  0  0  0  0  0  0  0  0  0
    4.4485   -2.3282   -0.2975 H   0  0  0  0  0  0  0  0  0  0  0  0
    4.8260   -0.9982    2.4500 H   0  0  0  0  0  0  0  0  0  0  0  0
    5.8826   -2.2889    1.7357 H   0  0  0  0  0  0  0  0  0  0  0  0
    4.2512   -3.7269    1.9819 H   0  0  0  0  0  0  0  0  0  0  0  0
    5.9857    0.4576    1.6557 H   0  0  0  0  0  0  0  0  0  0  0  0
    7.6042    1.9882    0.6980 H   0  0  0  0  0  0  0  0  0  0  0  0
    5.1981   -1.1436   -2.2055 H   0  0  0  0  0  0  0  0  0  0  0  0
  1  2  2  0
  2  3  1  0
  3  4  2  0
  4  5  1  0
  5  6  2  0
  6  7  1  0
  7  8  2  0
  8  9  1  0
  9 10  1  0
 10 11  1  0
 11 12  1  0
 12 13  1  0
 13 14  1  0
 14 15  1  0
 15 16  1  0
  9 17  2  0
  4 18  1  0
 18 19  2  0
 19 20  1  0
 20 21  1  0
 21 22  1  0
 22 23  1  0
 21 24  1  0
 24 25  2  0
 25 26  1  0
 26 27  2  0
 27 28  1  0
 27 29  1  0
 29 30  1  0
 29 31  2  0
 20  2  1  0
 31 24  1  0
 17  5  1  0
 16 11  1  0
  3 32  1  0
  6 33  1  0
  7 34  1  0
 10 35  1  0
 11 36  1  0
 12 37  1  0
 12 38  1  0
 13 39  1  0
 13 40  1  0
 15 41  1  0
 15 42  1  0
 16 43  1  0
 16 44  1  0
 18 45  1  0
 19 46  1  0
 21 47  1  6
 22 48  1  0
 22 49  1  0
 23 50  1  0
 25 51  1  0
 26 52  1  0
 31 53  1  0
M  END
$$$$
