@<TRIPOS>MOLECULE
*****
 53 56 0 0 0
SMALL
GASTEIGER

@<TRIPOS>ATOM
      1 O           2.2686   -2.8582    0.1561 O.2     1  UNL1       -0.2677
      2 C           2.0737   -1.5935    0.2085 C.ar    1  UNL1        0.2525
      3 C           0.8181   -1.0628    0.1656 C.ar    1  UNL1        0.0122
      4 C           0.6056    0.3214    0.2231 C.ar    1  UNL1        0.0070
      5 C          -0.7538    0.8420    0.1740 C.ar    1  UNL1        0.0762
      6 C          -1.0204    2.1788    0.2261 C.ar    1  UNL1       -0.0174
      7 C          -2.3537    2.6232    0.1747 C.ar    1  UNL1        0.0332
      8 N          -3.3311    1.7105    0.0752 N.ar    1  UNL1       -0.2229
      9 C          -3.0678    0.3965    0.0241 C.ar    1  UNL1        0.2159
     10 N          -4.0925   -0.5720   -0.0809 N.pl3   1  UNL1       -0.3105
     11 C          -5.4572   -0.1646   -0.1384 C.3     1  UNL1        0.0275
     12 C          -5.7896    0.7150   -1.3212 C.3     1  UNL1       -0.0109
     13 C          -7.2118    1.2359   -1.0736 C.3     1  UNL1        0.0493
     14 O          -8.0454    0.1240   -1.1907 O.3     1  UNL1       -0.3796
     15 C          -7.8155   -0.8131   -0.1967 C.3     1  UNL1        0.0493
     16 C          -6.4069   -1.3594   -0.2142 C.3     1  UNL1       -0.0109
     17 N          -1.7879   -0.0039    0.0747 N.ar    1  UNL1       -0.2145
     18 C           1.7270    1.1091    0.3244 C.ar    1  UNL1       -0.0361
     19 C           2.9819    0.5157    0.3641 C.ar    1  UNL1        0.0093
     20 N           3.1721   -0.8102    0.3084 N.ar    1  UNL1       -0.3056
     21 C           4.4632   -1.4209    0.3493 C.3     1  UNL1        0.0853
     22 C           4.8608   -1.8655    1.7314 C.3     1  UNL1        0.0691
     23 O           3.9308   -2.8032    2.1992 O.3     1  UNL1       -0.3926
     24 C           5.4629   -0.4668   -0.2058 C.ar    1  UNL1       -0.0197
     25 C           6.1427    0.4124    0.5859 C.ar    1  UNL1       -0.0550
     26 C           7.0749    1.2965    0.0457 C.ar    1  UNL1       -0.0403
     27 C           7.3133    1.2841   -1.2996 C.ar    1  UNL1        0.0761
     28 CL          8.4866    2.3994   -1.9671 Cl      1  UNL1       -0.0806
     29 C           6.6301    0.3977   -2.1099 C.ar    1  UNL1        0.1419
     30 F           6.8791    0.3974   -3.4500 F       1  UNL1       -0.2040
     31 C           5.7236   -0.4582   -1.5643 C.ar    1  UNL1       -0.0198
     32 H          -0.0563   -1.6872    0.0861 H       1  UNL1        0.0678
     33 H          -0.2541    2.9120    0.3050 H       1  UNL1        0.0654
     34 H          -2.5631    3.6898    0.2164 H       1  UNL1        0.0831
     35 H          -3.8508   -1.5770   -0.1159 H       1  UNL1        0.1492
     36 H          -5.6706    0.4361    0.7696 H       1  UNL1        0.0500
     37 H          -5.0897    1.5259   -1.5063 H       1  UNL1        0.0305
     38 H          -5.8949    0.0227   -2.1984 H       1  UNL1        0.0305
     39 H          -7.4405    1.9173   -1.8999 H       1  UNL1        0.0560
     40 H          -7.2124    1.6797   -0.0773 H       1  UNL1        0.0560
     41 H          -8.0588   -0.4261    0.8130 H       1  UNL1        0.0560
     42 H          -8.4979   -1.6679   -0.3982 H       1  UNL1        0.0560
     43 H          -6.2290   -1.8713   -1.1746 H       1  UNL1        0.0305
     44 H          -6.2899   -2.0005    0.6720 H       1  UNL1        0.0305
     45 H           1.6110    2.1860    0.3718 H       1  UNL1        0.0639
     46 H           3.8194    1.1933    0.4442 H       1  UNL1        0.0810
     47 H           4.4485   -2.3282   -0.2975 H       1  UNL1        0.0601
     48 H           4.8260   -0.9982    2.4500 H       1  UNL1        0.0581
     49 H           5.8826   -2.2889    1.7357 H       1  UNL1        0.0581
     50 H           4.2512   -3.7269    1.9819 H       1  UNL1        0.2095
     51 H           5.9857    0.4576    1.6557 H       1  UNL1        0.0621
     52 H           7.6042    1.9882    0.6980 H       1  UNL1        0.0633
     53 H           5.1981   -1.1436   -2.2055 H       1  UNL1        0.0650
@<TRIPOS>BOND
     1     1     2    2
     2     2     3   ar
     3     3     4   ar
     4     4     5    1
     5     5     6   ar
     6     6     7   ar
     7     7     8   ar
     8     8     9   ar
     9     9    10    1
    10    10    11    1
    11    11    12    1
    12    12    13    1
    13    13    14    1
    14    14    15    1
    15    15    16    1
    16     9    17   ar
    17     4    18   ar
    18    18    19   ar
    19    19    20   ar
    20    20    21    1
    21    21    22    1
    22    22    23    1
    23    21    24    1
    24    24    25   ar
    25    25    26   ar
    26    26    27   ar
    27    27    28    1
    28    27    29   ar
    29    29    30    1
    30    29    31   ar
    31    20     2   ar
    32    31    24   ar
    33    17     5   ar
    34    16    11    1
    35     3    32    1
    36     6    33    1
    37     7    34    1
    38    10    35    1
    39    11    36    1
    40    12    37    1
    41    12    38    1
    42    13    39    1
    43    13    40    1
    44    15    41    1
    45    15    42    1
    46    16    43    1
    47    16    44    1
    48    18    45    1
    49    19    46    1
    50    21    47    1
    51    22    48    1
    52    22    49    1
    53    23    50    1
    54    25    51    1
    55    26    52    1
    56    31    53    1
