
     RDKit          3D

 74 80  0  0  0  0  0  0  0  0999 V2000
    7.8449    0.3328    4.1001 C   0  0  0  0  0  0  0  0  0  0  0  0
    7.1264   -0.2158    3.0137 O   0  0  0  0  0  0  0  0  0  0  0  0
    7.6939   -0.2785    1.7498 C   0  0  0  0  0  0  0  0  0  0  0  0
    8.9733    0.2055    1.5764 C   0  0  0  0  0  0  0  0  0  0  0  0
    9.5551    0.1522    0.3320 C   0  0  0  0  0  0  0  0  0  0  0  0
    8.8765   -0.3842   -0.7697 C   0  0  0  0  0  0  0  0  0  0  0  0
    7.6063   -0.8674   -0.6189 C   0  0  0  0  0  0  0  0  0  0  0  0
    7.0456   -0.7985    0.6615 C   0  0  0  0  0  0  0  0  0  0  0  0
    7.1328   -1.3335   -1.9107 C   0  0  1  0  0  0  0  0  0  0  0  0
    6.3424   -2.5864   -2.0330 C   0  0  0  0  0  0  0  0  0  0  0  0
    5.7820   -1.1855   -2.4589 C   0  0  1  0  0  0  0  0  0  0  0  0
    4.5940   -0.7165   -1.7592 C   0  0  0  0  0  0  0  0  0  0  0  0
    3.3989   -1.4368   -1.8867 C   0  0  0  0  0  0  0  0  0  0  0  0
    2.2234   -1.0571   -1.2779 C   0  0  0  0  0  0  0  0  0  0  0  0
    2.1855    0.0731   -0.5039 C   0  0  0  0  0  0  0  0  0  0  0  0
    1.1523    0.6650    0.2063 C   0  0  0  0  0  0  0  0  0  0  0  0
   -0.2294    0.2139    0.3164 C   0  0  0  0  0  0  0  0  0  0  0  0
   -1.1338    0.8525    1.0222 C   0  0  0  0  0  0  0  0  0  0  0  0
   -2.5267    0.4424    1.1634 C   0  0  0  0  0  0  0  0  0  0  0  0
   -3.3727    1.1999    1.9346 C   0  0  0  0  0  0  0  0  0  0  0  0
   -4.7021    0.8451    2.0937 C   0  0  0  0  0  0  0  0  0  0  0  0
   -5.2398   -0.2728    1.4939 C   0  0  0  0  0  0  0  0  0  0  0  0
   -6.6568   -0.6409    1.6697 C   0  0  0  0  0  0  0  0  0  0  0  0
   -7.5173   -0.0573    0.6724 N   0  0  0  0  0  0  0  0  0  0  0  0
   -7.4812    1.3914    0.6806 C   0  0  0  0  0  0  0  0  0  0  0  0
   -8.2925    1.9219   -0.4588 C   0  0  2  0  0  0  0  0  0  0  0  0
   -9.2751    2.9554    0.0937 C   0  0  0  0  0  0  0  0  0  0  0  0
   -9.0456    0.9638   -1.1053 O   0  0  0  0  0  0  0  0  0  0  0  0
   -8.2654   -0.0642   -1.6315 C   0  0  2  0  0  0  0  0  0  0  0  0
   -9.1713   -1.1409   -2.1867 C   0  0  0  0  0  0  0  0  0  0  0  0
   -7.2717   -0.5948   -0.6503 C   0  0  0  0  0  0  0  0  0  0  0  0
   -4.3853   -1.0283    0.7213 C   0  0  0  0  0  0  0  0  0  0  0  0
   -3.0401   -0.6797    0.5534 C   0  0  0  0  0  0  0  0  0  0  0  0
    1.7220    1.7568    0.7725 N   0  0  0  0  0  0  0  0  0  0  0  0
    2.9960    1.8388    0.4451 N   0  0  0  0  0  0  0  0  0  0  0  0
    3.3426    0.8045   -0.3575 C   0  0  0  0  0  0  0  0  0  0  0  0
    4.5158    0.4157   -0.9720 C   0  0  0  0  0  0  0  0  0  0  0  0
    8.2829   -1.1977   -2.8170 C   0  0  0  0  0  0  0  0  0  0  0  0
    8.3085   -1.5874   -4.0215 O   0  0  0  0  0  0  0  0  0  0  0  0
    9.3253   -0.5681   -2.1106 N   0  0  0  0  0  0  0  0  0  0  0  0
    7.2154    0.4186    4.9887 H   0  0  0  0  0  0  0  0  0  0  0  0
    8.2038    1.3754    3.8548 H   0  0  0  0  0  0  0  0  0  0  0  0
    8.7609   -0.2431    4.3365 H   0  0  0  0  0  0  0  0  0  0  0  0
    9.5466    0.6331    2.3968 H   0  0  0  0  0  0  0  0  0  0  0  0
   10.5675    0.5289    0.1695 H   0  0  0  0  0  0  0  0  0  0  0  0
    6.0383   -1.1793    0.8399 H   0  0  0  0  0  0  0  0  0  0  0  0
    6.5125   -3.3270   -2.8088 H   0  0  0  0  0  0  0  0  0  0  0  0
    5.9381   -2.9877   -1.0914 H   0  0  0  0  0  0  0  0  0  0  0  0
    5.7302   -1.1422   -3.5936 H   0  0  0  0  0  0  0  0  0  0  0  0
    3.4171   -2.3409   -2.5022 H   0  0  0  0  0  0  0  0  0  0  0  0
    1.3015   -1.6172   -1.3795 H   0  0  0  0  0  0  0  0  0  0  0  0
   -0.5178   -0.6803   -0.2035 H   0  0  0  0  0  0  0  0  0  0  0  0
   -0.7822    1.7512    1.5261 H   0  0  0  0  0  0  0  0  0  0  0  0
   -3.0502    2.1019    2.4524 H   0  0  0  0  0  0  0  0  0  0  0  0
   -5.3432    1.4616    2.7074 H   0  0  0  0  0  0  0  0  0  0  0  0
   -7.0534   -0.2900    2.6656 H   0  0  0  0  0  0  0  0  0  0  0  0
   -6.8213   -1.7377    1.6398 H   0  0  0  0  0  0  0  0  0  0  0  0
   -6.4492    1.7312    0.5956 H   0  0  0  0  0  0  0  0  0  0  0  0
   -7.8766    1.7493    1.6569 H   0  0  0  0  0  0  0  0  0  0  0  0
   -7.6351    2.4610   -1.1754 H   0  0  0  0  0  0  0  0  0  0  0  0
   -9.3423    3.8461   -0.5667 H   0  0  0  0  0  0  0  0  0  0  0  0
  -10.2927    2.5185    0.1821 H   0  0  0  0  0  0  0  0  0  0  0  0
   -8.9777    3.2385    1.1323 H   0  0  0  0  0  0  0  0  0  0  0  0
   -7.7205    0.3663   -2.4948 H   0  0  0  0  0  0  0  0  0  0  0  0
   -9.0023   -2.1256   -1.7038 H   0  0  0  0  0  0  0  0  0  0  0  0
  -10.2532   -0.8554   -2.0813 H   0  0  0  0  0  0  0  0  0  0  0  0
   -9.0150   -1.3050   -3.2791 H   0  0  0  0  0  0  0  0  0  0  0  0
   -6.2573   -0.4014   -0.9984 H   0  0  0  0  0  0  0  0  0  0  0  0
   -7.4565   -1.7026   -0.5660 H   0  0  0  0  0  0  0  0  0  0  0  0
   -4.7447   -1.9166    0.2242 H   0  0  0  0  0  0  0  0  0  0  0  0
   -2.4339   -1.3046   -0.0553 H   0  0  0  0  0  0  0  0  0  0  0  0
    3.6957    2.5747    0.7317 H   0  0  0  0  0  0  0  0  0  0  0  0
    5.4010    1.0093   -0.8442 H   0  0  0  0  0  0  0  0  0  0  0  0
   10.2764   -0.2792   -2.4988 H   0  0  0  0  0  0  0  0  0  0  0  0
  1  2  1  0
  2  3  1  0
  3  4  2  0
  4  5  1  0
  5  6  2  0
  6  7  1  0
  7  8  2  0
  7  9  1  0
  9 10  1  1
 10 11  1  0
 11 12  1  0
 12 13  2  0
 13 14  1  0
 14 15  2  0
 15 16  1  0
 16 17  1  0
 17 18  2  0
 18 19  1  0
 19 20  2  0
 20 21  1  0
 21 22  2  0
 22 23  1  0
 23 24  1  0
 24 25  1  0
 25 26  1  0
 26 27  1  0
 26 28  1  0
 28 29  1  0
 29 30  1  0
 29 31  1  0
 22 32  1  0
 32 33  2  0
 16 34  2  0
 34 35  1  0
 35 36  1  0
 36 37  2  0
  9 38  1  0
 38 39  2  0
 38 40  1  0
  8  3  1  0
 11  9  1  0
 37 12  1  0
 40  6  1  0
 36 15  1  0
 33 19  1  0
 31 24  1  0
  1 41  1  0
  1 42  1  0
  1 43  1  0
  4 44  1  0
  5 45  1  0
  8 46  1  0
 10 47  1  0
 10 48  1  0
 11 49  1  6
 13 50  1  0
 14 51  1  0
 17 52  1  0
 18 53  1  0
 20 54  1  0
 21 55  1  0
 23 56  1  0
 23 57  1  0
 25 58  1  0
 25 59  1  0
 26 60  1  6
 27 61  1  0
 27 62  1  0
 27 63  1  0
 29 64  1  6
 30 65  1  0
 30 66  1  0
 30 67  1  0
 31 68  1  0
 31 69  1  0
 32 70  1  0
 33 71  1  0
 35 72  1  0
 37 73  1  0
 40 74  1  0
M  END
$$$$
