@<TRIPOS>MOLECULE
*****
 74 80 0 0 0
SMALL
GASTEIGER

@<TRIPOS>ATOM
      1 C           7.8449    0.3328    4.1001 C.3     1  UNL1        0.0788
      2 O           7.1264   -0.2158    3.0137 O.3     1  UNL1       -0.4951
      3 C           7.6939   -0.2785    1.7498 C.ar    1  UNL1        0.1205
      4 C           8.9733    0.2055    1.5764 C.ar    1  UNL1       -0.0182
      5 C           9.5551    0.1522    0.3320 C.ar    1  UNL1       -0.0367
      6 C           8.8765   -0.3842   -0.7697 C.ar    1  UNL1        0.0378
      7 C           7.6063   -0.8674   -0.6189 C.ar    1  UNL1       -0.0072
      8 C           7.0456   -0.7985    0.6615 C.ar    1  UNL1       -0.0140
      9 C           7.1328   -1.3335   -1.9107 C.3     1  UNL1        0.0813
     10 C           6.3424   -2.5864   -2.0330 C.3     1  UNL1       -0.0262
     11 C           5.7820   -1.1855   -2.4589 C.3     1  UNL1        0.0035
     12 C           4.5940   -0.7165   -1.7592 C.ar    1  UNL1       -0.0409
     13 C           3.3989   -1.4368   -1.8867 C.ar    1  UNL1       -0.0575
     14 C           2.2234   -1.0571   -1.2779 C.ar    1  UNL1       -0.0502
     15 C           2.1855    0.0731   -0.5039 C.ar    1  UNL1        0.0268
     16 C           1.1523    0.6650    0.2063 C.ar    1  UNL1        0.0931
     17 C          -0.2294    0.2139    0.3164 C.2     1  UNL1       -0.0334
     18 C          -1.1338    0.8525    1.0222 C.2     1  UNL1       -0.0525
     19 C          -2.5267    0.4424    1.1634 C.ar    1  UNL1       -0.0249
     20 C          -3.3727    1.1999    1.9346 C.ar    1  UNL1       -0.0543
     21 C          -4.7021    0.8451    2.0937 C.ar    1  UNL1       -0.0568
     22 C          -5.2398   -0.2728    1.4939 C.ar    1  UNL1       -0.0333
     23 C          -6.6568   -0.6409    1.6697 C.3     1  UNL1        0.0242
     24 N          -7.5173   -0.0573    0.6724 N.3     1  UNL1       -0.2933
     25 C          -7.4812    1.3914    0.6806 C.3     1  UNL1        0.0254
     26 C          -8.2925    1.9219   -0.4588 C.3     1  UNL1        0.0690
     27 C          -9.2751    2.9554    0.0937 C.3     1  UNL1       -0.0375
     28 O          -9.0456    0.9638   -1.1053 O.3     1  UNL1       -0.3714
     29 C          -8.2654   -0.0642   -1.6315 C.3     1  UNL1        0.0690
     30 C          -9.1713   -1.1409   -2.1867 C.3     1  UNL1       -0.0375
     31 C          -7.2717   -0.5948   -0.6503 C.3     1  UNL1        0.0254
     32 C          -4.3853   -1.0283    0.7213 C.ar    1  UNL1       -0.0568
     33 C          -3.0401   -0.6797    0.5534 C.ar    1  UNL1       -0.0543
     34 N           1.7220    1.7568    0.7725 N.ar    1  UNL1       -0.1733
     35 N           2.9960    1.8388    0.4451 N.ar    1  UNL1       -0.2764
     36 C           3.3426    0.8045   -0.3575 C.ar    1  UNL1        0.0666
     37 C           4.5158    0.4157   -0.9720 C.ar    1  UNL1       -0.0328
     38 C           8.2829   -1.1977   -2.8170 C.2     1  UNL1        0.2284
     39 O           8.3085   -1.5874   -4.0215 O.2     1  UNL1       -0.2745
     40 N           9.3253   -0.5681   -2.1106 N.am    1  UNL1       -0.2845
     41 H           7.2154    0.4186    4.9887 H       1  UNL1        0.0660
     42 H           8.2038    1.3754    3.8548 H       1  UNL1        0.0660
     43 H           8.7609   -0.2431    4.3365 H       1  UNL1        0.0660
     44 H           9.5466    0.6331    2.3968 H       1  UNL1        0.0655
     45 H          10.5675    0.5289    0.1695 H       1  UNL1        0.0637
     46 H           6.0383   -1.1793    0.8399 H       1  UNL1        0.0658
     47 H           6.5125   -3.3270   -2.8088 H       1  UNL1        0.0285
     48 H           5.9381   -2.9877   -1.0914 H       1  UNL1        0.0285
     49 H           5.7302   -1.1422   -3.5936 H       1  UNL1        0.0362
     50 H           3.4171   -2.3409   -2.5022 H       1  UNL1        0.0621
     51 H           1.3015   -1.6172   -1.3795 H       1  UNL1        0.0625
     52 H          -0.5178   -0.6803   -0.2035 H       1  UNL1        0.0640
     53 H          -0.7822    1.7512    1.5261 H       1  UNL1        0.0624
     54 H          -3.0502    2.1019    2.4524 H       1  UNL1        0.0624
     55 H          -5.3432    1.4616    2.7074 H       1  UNL1        0.0621
     56 H          -7.0534   -0.2900    2.6656 H       1  UNL1        0.0476
     57 H          -6.8213   -1.7377    1.6398 H       1  UNL1        0.0476
     58 H          -6.4492    1.7312    0.5956 H       1  UNL1        0.0452
     59 H          -7.8766    1.7493    1.6569 H       1  UNL1        0.0452
     60 H          -7.6351    2.4610   -1.1754 H       1  UNL1        0.0606
     61 H          -9.3423    3.8461   -0.5667 H       1  UNL1        0.0255
     62 H         -10.2927    2.5185    0.1821 H       1  UNL1        0.0255
     63 H          -8.9777    3.2385    1.1323 H       1  UNL1        0.0255
     64 H          -7.7205    0.3663   -2.4948 H       1  UNL1        0.0606
     65 H          -9.0023   -2.1256   -1.7038 H       1  UNL1        0.0255
     66 H         -10.2532   -0.8554   -2.0813 H       1  UNL1        0.0255
     67 H          -9.0150   -1.3050   -3.2791 H       1  UNL1        0.0255
     68 H          -6.2573   -0.4014   -0.9984 H       1  UNL1        0.0452
     69 H          -7.4565   -1.7026   -0.5660 H       1  UNL1        0.0452
     70 H          -4.7447   -1.9166    0.2242 H       1  UNL1        0.0621
     71 H          -2.4339   -1.3046   -0.0553 H       1  UNL1        0.0624
     72 H           3.6957    2.5747    0.7317 H       1  UNL1        0.1889
     73 H           5.4010    1.0093   -0.8442 H       1  UNL1        0.0642
     74 H          10.2764   -0.2792   -2.4988 H       1  UNL1        0.1548
@<TRIPOS>BOND
     1     1     2    1
     2     2     3    1
     3     3     4   ar
     4     4     5   ar
     5     5     6   ar
     6     6     7   ar
     7     7     8   ar
     8     7     9    1
     9     9    10    1
    10    10    11    1
    11    11    12    1
    12    12    13   ar
    13    13    14   ar
    14    14    15   ar
    15    15    16   ar
    16    16    17    1
    17    17    18    2
    18    18    19    1
    19    19    20   ar
    20    20    21   ar
    21    21    22   ar
    22    22    23    1
    23    23    24    1
    24    24    25    1
    25    25    26    1
    26    26    27    1
    27    26    28    1
    28    28    29    1
    29    29    30    1
    30    29    31    1
    31    22    32   ar
    32    32    33   ar
    33    16    34   ar
    34    34    35   ar
    35    35    36   ar
    36    36    37   ar
    37     9    38    1
    38    38    39    2
    39    38    40   am
    40     8     3   ar
    41    11     9    1
    42    37    12   ar
    43    40     6    1
    44    36    15   ar
    45    33    19   ar
    46    31    24    1
    47     1    41    1
    48     1    42    1
    49     1    43    1
    50     4    44    1
    51     5    45    1
    52     8    46    1
    53    10    47    1
    54    10    48    1
    55    11    49    1
    56    13    50    1
    57    14    51    1
    58    17    52    1
    59    18    53    1
    60    20    54    1
    61    21    55    1
    62    23    56    1
    63    23    57    1
    64    25    58    1
    65    25    59    1
    66    26    60    1
    67    27    61    1
    68    27    62    1
    69    27    63    1
    70    29    64    1
    71    30    65    1
    72    30    66    1
    73    30    67    1
    74    31    68    1
    75    31    69    1
    76    32    70    1
    77    33    71    1
    78    35    72    1
    79    37    73    1
    80    40    74    1
