@<TRIPOS>MOLECULE
*****
 45 48 0 0 0
SMALL
GASTEIGER

@<TRIPOS>ATOM
      1 C           8.9025    0.2779    0.2205 C.3     1  UNL1        0.0805
      2 O           7.7975   -0.3876    0.8037 O.3     1  UNL1       -0.4786
      3 C           6.5285   -0.0088    0.3708 C.ar    1  UNL1        0.2332
      4 C           5.3970   -0.6289    0.9087 C.ar    1  UNL1        0.0899
      5 N           4.1617   -0.2896    0.5158 N.ar    1  UNL1       -0.2435
      6 C           4.0025    0.6593   -0.4080 C.ar    1  UNL1        0.1439
      7 C           2.6390    1.0540   -0.8611 C.2     1  UNL1        0.2681
      8 O           2.5037    1.9411   -1.7239 O.2     1  UNL1       -0.2681
      9 N           1.4962    0.4303   -0.3203 N.am    1  UNL1       -0.2801
     10 C           0.1427    0.6973   -0.6497 C.ar    1  UNL1        0.0369
     11 C          -0.2776    1.6232   -1.5651 C.ar    1  UNL1       -0.0037
     12 C          -1.6302    1.8528   -1.8583 C.ar    1  UNL1        0.1437
     13 F          -2.0048    2.7741   -2.7667 F       1  UNL1       -0.2039
     14 C          -2.5935    1.1173   -1.2001 C.ar    1  UNL1        0.0817
     15 CL         -4.2937    1.3330   -1.4986 Cl      1  UNL1       -0.0802
     16 C          -2.1928    0.1793   -0.2742 C.ar    1  UNL1        0.0057
     17 C          -3.2703   -0.6058    0.4253 C.3     1  UNL1        0.1272
     18 C          -2.5768   -1.5171    1.4146 C.3     1  UNL1        0.1199
     19 F          -3.4774   -2.2840    2.1326 F       1  UNL1       -0.2462
     20 N          -4.1337    0.3075    1.1452 N.2     1  UNL1       -0.2225
     21 C          -5.4063    0.2558    1.1586 C.2     1  UNL1        0.2763
     22 N          -6.1193    1.2294    1.9174 N.pl3   1  UNL1       -0.3134
     23 O          -6.0480   -0.7345    0.4426 O.2     1  UNL1       -0.4622
     24 C          -5.4208   -1.3221   -0.6485 C.3     1  UNL1        0.1090
     25 C          -4.6891   -2.6588   -0.3647 C.3     1  UNL1       -0.0065
     26 C          -3.9475   -1.4258   -0.6094 C.3     1  UNL1        0.0314
     27 C          -0.8726   -0.0319   -0.0004 C.ar    1  UNL1       -0.0333
     28 C           5.1022    1.2732   -0.9416 C.ar    1  UNL1        0.0619
     29 N           6.3318    0.9428   -0.5575 N.ar    1  UNL1       -0.2178
     30 H           8.7737    1.3578    0.3137 H       1  UNL1        0.0660
     31 H           9.8074   -0.1068    0.7538 H       1  UNL1        0.0660
     32 H           8.9231   -0.0614   -0.8537 H       1  UNL1        0.0660
     33 H           5.5697   -1.4018    1.6634 H       1  UNL1        0.0884
     34 H           1.7038   -0.3220    0.4163 H       1  UNL1        0.1552
     35 H           0.4087    2.2245   -2.1085 H       1  UNL1        0.0665
     36 H          -1.8884   -2.2170    0.8884 H       1  UNL1        0.0643
     37 H          -1.9348   -0.9388    2.1356 H       1  UNL1        0.0643
     38 H          -5.8923    2.2359    1.8377 H       1  UNL1        0.1466
     39 H          -6.8865    0.9681    2.5732 H       1  UNL1        0.1466
     40 H          -5.9218   -1.2073   -1.6190 H       1  UNL1        0.0737
     41 H          -4.8942   -3.0835    0.6238 H       1  UNL1        0.0306
     42 H          -4.8320   -3.3943   -1.1895 H       1  UNL1        0.0306
     43 H          -3.4338   -1.3995   -1.6277 H       1  UNL1        0.0365
     44 H          -0.5334   -0.7551    0.7149 H       1  UNL1        0.0640
     45 H           4.9797    2.0476   -1.6951 H       1  UNL1        0.0854
@<TRIPOS>BOND
     1     1     2    1
     2     2     3    1
     3     3     4   ar
     4     4     5   ar
     5     5     6   ar
     6     6     7    1
     7     7     8    2
     8     7     9   am
     9     9    10    1
    10    10    11   ar
    11    11    12   ar
    12    12    13    1
    13    12    14   ar
    14    14    15    1
    15    14    16   ar
    16    16    17    1
    17    17    18    1
    18    18    19    1
    19    17    20    1
    20    20    21    2
    21    21    22    1
    22    21    23    1
    23    23    24    1
    24    24    25    1
    25    25    26    1
    26    16    27   ar
    27     6    28   ar
    28    28    29   ar
    29    29     3   ar
    30    27    10   ar
    31    26    17    1
    32    26    24    1
    33     1    30    1
    34     1    31    1
    35     1    32    1
    36     4    33    1
    37     9    34    1
    38    11    35    1
    39    18    36    1
    40    18    37    1
    41    22    38    1
    42    22    39    1
    43    24    40    1
    44    25    41    1
    45    25    42    1
    46    26    43    1
    47    27    44    1
    48    28    45    1
