
     RDKit          3D

 45 48  0  0  0  0  0  0  0  0999 V2000
    8.9025    0.2779    0.2205 C   0  0  0  0  0  0  0  0  0  0  0  0
    7.7975   -0.3876    0.8037 O   0  0  0  0  0  0  0  0  0  0  0  0
    6.5285   -0.0088    0.3708 C   0  0  0  0  0  0  0  0  0  0  0  0
    5.3970   -0.6289    0.9087 C   0  0  0  0  0  0  0  0  0  0  0  0
    4.1617   -0.2896    0.5158 N   0  0  0  0  0  0  0  0  0  0  0  0
    4.0025    0.6593   -0.4080 C   0  0  0  0  0  0  0  0  0  0  0  0
    2.6390    1.0540   -0.8611 C   0  0  0  0  0  0  0  0  0  0  0  0
    2.5037    1.9411   -1.7239 O   0  0  0  0  0  0  0  0  0  0  0  0
    1.4962    0.4303   -0.3203 N   0  0  0  0  0  0  0  0  0  0  0  0
    0.1427    0.6973   -0.6497 C   0  0  0  0  0  0  0  0  0  0  0  0
   -0.2776    1.6232   -1.5651 C   0  0  0  0  0  0  0  0  0  0  0  0
   -1.6302    1.8528   -1.8583 C   0  0  0  0  0  0  0  0  0  0  0  0
   -2.0048    2.7741   -2.7667 F   0  0  0  0  0  0  0  0  0  0  0  0
   -2.5935    1.1173   -1.2001 C   0  0  0  0  0  0  0  0  0  0  0  0
   -4.2937    1.3330   -1.4986 Cl  0  0  0  0  0  0  0  0  0  0  0  0
   -2.1928    0.1793   -0.2742 C   0  0  0  0  0  0  0  0  0  0  0  0
   -3.2703   -0.6058    0.4253 C   0  0  1  0  0  0  0  0  0  0  0  0
   -2.5768   -1.5171    1.4146 C   0  0  0  0  0  0  0  0  0  0  0  0
   -3.4774   -2.2840    2.1326 F   0  0  0  0  0  0  0  0  0  0  0  0
   -4.1337    0.3075    1.1452 N   0  0  0  0  0  0  0  0  0  0  0  0
   -5.4063    0.2558    1.1586 C   0  0  0  0  0  0  0  0  0  0  0  0
   -6.1193    1.2294    1.9174 N   0  0  0  0  0  0  0  0  0  0  0  0
   -6.0480   -0.7345    0.4426 O   0  0  0  0  0  0  0  0  0  0  0  0
   -5.4208   -1.3221   -0.6485 C   0  0  2  0  0  0  0  0  0  0  0  0
   -4.6891   -2.6588   -0.3647 C   0  0  0  0  0  0  0  0  0  0  0  0
   -3.9475   -1.4258   -0.6094 C   0  0  2  0  0  0  0  0  0  0  0  0
   -0.8726   -0.0319   -0.0004 C   0  0  0  0  0  0  0  0  0  0  0  0
    5.1022    1.2732   -0.9416 C   0  0  0  0  0  0  0  0  0  0  0  0
    6.3318    0.9428   -0.5575 N   0  0  0  0  0  0  0  0  0  0  0  0
    8.7737    1.3578    0.3137 H   0  0  0  0  0  0  0  0  0  0  0  0
    9.8074   -0.1068    0.7538 H   0  0  0  0  0  0  0  0  0  0  0  0
    8.9231   -0.0614   -0.8537 H   0  0  0  0  0  0  0  0  0  0  0  0
    5.5697   -1.4018    1.6634 H   0  0  0  0  0  0  0  0  0  0  0  0
    1.7038   -0.3220    0.4163 H   0  0  0  0  0  0  0  0  0  0  0  0
    0.4087    2.2245   -2.1085 H   0  0  0  0  0  0  0  0  0  0  0  0
   -1.8884   -2.2170    0.8884 H   0  0  0  0  0  0  0  0  0  0  0  0
   -1.9348   -0.9388    2.1356 H   0  0  0  0  0  0  0  0  0  0  0  0
   -5.8923    2.2359    1.8377 H   0  0  0  0  0  0  0  0  0  0  0  0
   -6.8865    0.9681    2.5732 H   0  0  0  0  0  0  0  0  0  0  0  0
   -5.9218   -1.2073   -1.6190 H   0  0  0  0  0  0  0  0  0  0  0  0
   -4.8942   -3.0835    0.6238 H   0  0  0  0  0  0  0  0  0  0  0  0
   -4.8320   -3.3943   -1.1895 H   0  0  0  0  0  0  0  0  0  0  0  0
   -3.4338   -1.3995   -1.6277 H   0  0  0  0  0  0  0  0  0  0  0  0
   -0.5334   -0.7551    0.7149 H   0  0  0  0  0  0  0  0  0  0  0  0
    4.9797    2.0476   -1.6951 H   0  0  0  0  0  0  0  0  0  0  0  0
  1  2  1  0
  2  3  1  0
  3  4  2  0
  4  5  1  0
  5  6  2  0
  6  7  1  0
  7  8  2  0
  7  9  1  0
  9 10  1  0
 10 11  2  0
 11 12  1  0
 12 13  1  0
 12 14  2  0
 14 15  1  0
 14 16  1  0
 16 17  1  0
 17 18  1  1
 18 19  1  0
 17 20  1  0
 20 21  2  0
 21 22  1  0
 21 23  1  0
 23 24  1  0
 24 25  1  0
 25 26  1  0
 16 27  2  0
  6 28  1  0
 28 29  2  0
 29  3  1  0
 27 10  1  0
 26 17  1  0
 26 24  1  0
  1 30  1  0
  1 31  1  0
  1 32  1  0
  4 33  1  0
  9 34  1  0
 11 35  1  0
 18 36  1  0
 18 37  1  0
 22 38  1  0
 22 39  1  0
 24 40  1  6
 25 41  1  0
 25 42  1  0
 26 43  1  6
 27 44  1  0
 28 45  1  0
M  END
$$$$
