@<TRIPOS>MOLECULE
*****
 59 62 0 0 0
SMALL
GASTEIGER

@<TRIPOS>ATOM
      1 C          -3.3050   -3.8131    0.0615 C.3     1  UNL1       -0.0469
      2 C          -3.4514   -2.4686    0.7049 C.3     1  UNL1        0.0253
      3 N          -3.2365   -1.3594   -0.1673 N.ar    1  UNL1       -0.2919
      4 C          -4.2185   -0.7728   -0.8857 C.ar    1  UNL1        0.3322
      5 O          -5.3784   -1.2318   -0.7784 O.2     1  UNL1       -0.2462
      6 N          -3.9514    0.2675   -1.6863 N.ar    1  UNL1       -0.2623
      7 C          -5.0275    0.8761   -2.4459 C.3     1  UNL1        0.0196
      8 C          -2.6743    0.7349   -1.7725 C.ar    1  UNL1        0.2806
      9 O          -2.4952    1.6865   -2.5255 O.2     1  UNL1       -0.2652
     10 C          -1.6276    0.1887   -1.0705 C.ar    1  UNL1        0.1329
     11 C          -1.9602   -0.8766   -0.2664 C.ar    1  UNL1        0.0783
     12 C          -0.7978   -1.2831    0.3224 C.ar    1  UNL1        0.0025
     13 C           0.2721   -0.4681   -0.1146 C.ar    1  UNL1        0.1043
     14 N           1.6310   -0.7126    0.3098 N.pl3   1  UNL1       -0.3147
     15 C           2.7785   -0.2904   -0.4398 C.3     1  UNL1        0.0136
     16 C           4.0250   -1.1446   -0.2210 C.3     1  UNL1       -0.0355
     17 C           3.8381   -2.2523    0.7546 C.3     1  UNL1       -0.0322
     18 C           3.1396   -1.6514    1.9600 C.3     1  UNL1        0.0296
     19 C           3.2499   -2.7114    3.0587 C.3     1  UNL1       -0.0455
     20 N           3.7992   -0.4862    2.4524 N.3     1  UNL1       -0.3236
     21 C           1.7330   -1.4118    1.5841 C.3     1  UNL1        0.0313
     22 N          -0.2743    0.4153   -0.9539 N.ar    1  UNL1       -0.3187
     23 C           0.3770    1.5209   -1.5828 C.3     1  UNL1        0.0515
     24 C           0.2102    2.8772   -1.0890 C.ar    1  UNL1       -0.0077
     25 C          -0.3735    3.8689   -1.9048 C.ar    1  UNL1       -0.0203
     26 C          -0.5131    5.1780   -1.5506 C.ar    1  UNL1        0.1238
     27 F          -1.0966    6.0585   -2.4194 F       1  UNL1       -0.2055
     28 C          -0.0691    5.5913   -0.3345 C.ar    1  UNL1       -0.0252
     29 C           0.5057    4.6799    0.5000 C.ar    1  UNL1       -0.0413
     30 C           0.6402    3.3270    0.1134 C.ar    1  UNL1        0.0568
     31 C           1.2468    2.5031    1.0776 C.1     1  UNL1        0.0995
     32 N           1.7192    1.8285    1.8582 N.1     1  UNL1       -0.1909
     33 H          -2.8577   -3.7820   -0.9526 H       1  UNL1        0.0247
     34 H          -4.3232   -4.3000    0.0503 H       1  UNL1        0.0247
     35 H          -2.6678   -4.4897    0.6721 H       1  UNL1        0.0247
     36 H          -2.7448   -2.4200    1.5636 H       1  UNL1        0.0491
     37 H          -4.4774   -2.3376    1.1528 H       1  UNL1        0.0491
     38 H          -5.8830    0.2089   -2.5156 H       1  UNL1        0.0458
     39 H          -5.2757    1.8786   -1.9985 H       1  UNL1        0.0458
     40 H          -4.6402    1.0505   -3.4873 H       1  UNL1        0.0458
     41 H          -0.7127   -2.1008    1.0115 H       1  UNL1        0.0673
     42 H           2.5541   -0.4932   -1.5411 H       1  UNL1        0.0464
     43 H           3.0238    0.7753   -0.3778 H       1  UNL1        0.0464
     44 H           4.4577   -1.5040   -1.1748 H       1  UNL1        0.0281
     45 H           4.8132   -0.4490    0.1889 H       1  UNL1        0.0281
     46 H           3.1832   -3.0475    0.3677 H       1  UNL1        0.0284
     47 H           4.8048   -2.6906    1.0515 H       1  UNL1        0.0284
     48 H           4.2698   -2.6159    3.4846 H       1  UNL1        0.0248
     49 H           3.1549   -3.6977    2.5801 H       1  UNL1        0.0248
     50 H           2.4637   -2.5559    3.8160 H       1  UNL1        0.0248
     51 H           4.8184   -0.5113    2.2285 H       1  UNL1        0.1188
     52 H           3.6244   -0.4153    3.4783 H       1  UNL1        0.1188
     53 H           1.1903   -0.8630    2.3891 H       1  UNL1        0.0482
     54 H           1.2069   -2.4100    1.4963 H       1  UNL1        0.0482
     55 H          -0.0969    1.5234   -2.6512 H       1  UNL1        0.0542
     56 H           1.4462    1.3281   -1.9005 H       1  UNL1        0.0542
     57 H          -0.7254    3.5888   -2.9009 H       1  UNL1        0.0650
     58 H          -0.1716    6.6250   -0.0387 H       1  UNL1        0.0646
     59 H           0.8498    5.0367    1.4592 H       1  UNL1        0.0631
@<TRIPOS>BOND
     1     1     2    1
     2     2     3    1
     3     3     4   ar
     4     4     5    2
     5     4     6   ar
     6     6     7    1
     7     6     8   ar
     8     8     9    2
     9     8    10   ar
    10    10    11   ar
    11    11    12   ar
    12    12    13   ar
    13    13    14    1
    14    14    15    1
    15    15    16    1
    16    16    17    1
    17    17    18    1
    18    18    19    1
    19    18    20    1
    20    18    21    1
    21    13    22   ar
    22    22    23    1
    23    23    24    1
    24    24    25   ar
    25    25    26   ar
    26    26    27    1
    27    26    28   ar
    28    28    29   ar
    29    29    30   ar
    30    30    31    1
    31    31    32    3
    32    11     3   ar
    33    21    14    1
    34    30    24   ar
    35    22    10   ar
    36     1    33    1
    37     1    34    1
    38     1    35    1
    39     2    36    1
    40     2    37    1
    41     7    38    1
    42     7    39    1
    43     7    40    1
    44    12    41    1
    45    15    42    1
    46    15    43    1
    47    16    44    1
    48    16    45    1
    49    17    46    1
    50    17    47    1
    51    19    48    1
    52    19    49    1
    53    19    50    1
    54    20    51    1
    55    20    52    1
    56    21    53    1
    57    21    54    1
    58    23    55    1
    59    23    56    1
    60    25    57    1
    61    28    58    1
    62    29    59    1
