
     RDKit          3D

 59 62  0  0  0  0  0  0  0  0999 V2000
   -3.3050   -3.8131    0.0615 C   0  0  0  0  0  0  0  0  0  0  0  0
   -3.4514   -2.4686    0.7049 C   0  0  0  0  0  0  0  0  0  0  0  0
   -3.2365   -1.3594   -0.1673 N   0  0  0  0  0  0  0  0  0  0  0  0
   -4.2185   -0.7728   -0.8857 C   0  0  0  0  0  0  0  0  0  0  0  0
   -5.3784   -1.2318   -0.7784 O   0  0  0  0  0  0  0  0  0  0  0  0
   -3.9514    0.2675   -1.6863 N   0  0  0  0  0  0  0  0  0  0  0  0
   -5.0275    0.8761   -2.4459 C   0  0  0  0  0  0  0  0  0  0  0  0
   -2.6743    0.7349   -1.7725 C   0  0  0  0  0  0  0  0  0  0  0  0
   -2.4952    1.6865   -2.5255 O   0  0  0  0  0  0  0  0  0  0  0  0
   -1.6276    0.1887   -1.0705 C   0  0  0  0  0  0  0  0  0  0  0  0
   -1.9602   -0.8766   -0.2664 C   0  0  0  0  0  0  0  0  0  0  0  0
   -0.7978   -1.2831    0.3224 C   0  0  0  0  0  0  0  0  0  0  0  0
    0.2721   -0.4681   -0.1146 C   0  0  0  0  0  0  0  0  0  0  0  0
    1.6310   -0.7126    0.3098 N   0  0  0  0  0  0  0  0  0  0  0  0
    2.7785   -0.2904   -0.4398 C   0  0  0  0  0  0  0  0  0  0  0  0
    4.0250   -1.1446   -0.2210 C   0  0  0  0  0  0  0  0  0  0  0  0
    3.8381   -2.2523    0.7546 C   0  0  0  0  0  0  0  0  0  0  0  0
    3.1396   -1.6514    1.9600 C   0  0  1  0  0  0  0  0  0  0  0  0
    3.2499   -2.7114    3.0587 C   0  0  0  0  0  0  0  0  0  0  0  0
    3.7992   -0.4862    2.4524 N   0  0  0  0  0  0  0  0  0  0  0  0
    1.7330   -1.4118    1.5841 C   0  0  0  0  0  0  0  0  0  0  0  0
   -0.2743    0.4153   -0.9539 N   0  0  0  0  0  0  0  0  0  0  0  0
    0.3770    1.5209   -1.5828 C   0  0  0  0  0  0  0  0  0  0  0  0
    0.2102    2.8772   -1.0890 C   0  0  0  0  0  0  0  0  0  0  0  0
   -0.3735    3.8689   -1.9048 C   0  0  0  0  0  0  0  0  0  0  0  0
   -0.5131    5.1780   -1.5506 C   0  0  0  0  0  0  0  0  0  0  0  0
   -1.0966    6.0585   -2.4194 F   0  0  0  0  0  0  0  0  0  0  0  0
   -0.0691    5.5913   -0.3345 C   0  0  0  0  0  0  0  0  0  0  0  0
    0.5057    4.6799    0.5000 C   0  0  0  0  0  0  0  0  0  0  0  0
    0.6402    3.3270    0.1134 C   0  0  0  0  0  0  0  0  0  0  0  0
    1.2468    2.5031    1.0776 C   0  0  0  0  0  0  0  0  0  0  0  0
    1.7192    1.8285    1.8582 N   0  0  0  0  0  0  0  0  0  0  0  0
   -2.8577   -3.7820   -0.9526 H   0  0  0  0  0  0  0  0  0  0  0  0
   -4.3232   -4.3000    0.0503 H   0  0  0  0  0  0  0  0  0  0  0  0
   -2.6678   -4.4897    0.6721 H   0  0  0  0  0  0  0  0  0  0  0  0
   -2.7448   -2.4200    1.5636 H   0  0  0  0  0  0  0  0  0  0  0  0
   -4.4774   -2.3376    1.1528 H   0  0  0  0  0  0  0  0  0  0  0  0
   -5.8830    0.2089   -2.5156 H   0  0  0  0  0  0  0  0  0  0  0  0
   -5.2757    1.8786   -1.9985 H   0  0  0  0  0  0  0  0  0  0  0  0
   -4.6402    1.0505   -3.4873 H   0  0  0  0  0  0  0  0  0  0  0  0
   -0.7127   -2.1008    1.0115 H   0  0  0  0  0  0  0  0  0  0  0  0
    2.5541   -0.4932   -1.5411 H   0  0  0  0  0  0  0  0  0  0  0  0
    3.0238    0.7753   -0.3778 H   0  0  0  0  0  0  0  0  0  0  0  0
    4.4577   -1.5040   -1.1748 H   0  0  0  0  0  0  0  0  0  0  0  0
    4.8132   -0.4490    0.1889 H   0  0  0  0  0  0  0  0  0  0  0  0
    3.1832   -3.0475    0.3677 H   0  0  0  0  0  0  0  0  0  0  0  0
    4.8048   -2.6906    1.0515 H   0  0  0  0  0  0  0  0  0  0  0  0
    4.2698   -2.6159    3.4846 H   0  0  0  0  0  0  0  0  0  0  0  0
    3.1549   -3.6977    2.5801 H   0  0  0  0  0  0  0  0  0  0  0  0
    2.4637   -2.5559    3.8160 H   0  0  0  0  0  0  0  0  0  0  0  0
    4.8184   -0.5113    2.2285 H   0  0  0  0  0  0  0  0  0  0  0  0
    3.6244   -0.4153    3.4783 H   0  0  0  0  0  0  0  0  0  0  0  0
    1.1903   -0.8630    2.3891 H   0  0  0  0  0  0  0  0  0  0  0  0
    1.2069   -2.4100    1.4963 H   0  0  0  0  0  0  0  0  0  0  0  0
   -0.0969    1.5234   -2.6512 H   0  0  0  0  0  0  0  0  0  0  0  0
    1.4462    1.3281   -1.9005 H   0  0  0  0  0  0  0  0  0  0  0  0
   -0.7254    3.5888   -2.9009 H   0  0  0  0  0  0  0  0  0  0  0  0
   -0.1716    6.6250   -0.0387 H   0  0  0  0  0  0  0  0  0  0  0  0
    0.8498    5.0367    1.4592 H   0  0  0  0  0  0  0  0  0  0  0  0
  1  2  1  0
  2  3  1  0
  3  4  1  0
  4  5  2  0
  4  6  1  0
  6  7  1  0
  6  8  1  0
  8  9  2  0
  8 10  1  0
 10 11  2  0
 11 12  1  0
 12 13  2  0
 13 14  1  0
 14 15  1  0
 15 16  1  0
 16 17  1  0
 17 18  1  0
 18 19  1  0
 18 20  1  1
 18 21  1  0
 13 22  1  0
 22 23  1  0
 23 24  1  0
 24 25  2  0
 25 26  1  0
 26 27  1  0
 26 28  2  0
 28 29  1  0
 29 30  2  0
 30 31  1  0
 31 32  3  0
 11  3  1  0
 21 14  1  0
 30 24  1  0
 22 10  1  0
  1 33  1  0
  1 34  1  0
  1 35  1  0
  2 36  1  0
  2 37  1  0
  7 38  1  0
  7 39  1  0
  7 40  1  0
 12 41  1  0
 15 42  1  0
 15 43  1  0
 16 44  1  0
 16 45  1  0
 17 46  1  0
 17 47  1  0
 19 48  1  0
 19 49  1  0
 19 50  1  0
 20 51  1  0
 20 52  1  0
 21 53  1  0
 21 54  1  0
 23 55  1  0
 23 56  1  0
 25 57  1  0
 28 58  1  0
 29 59  1  0
M  END
$$$$
