@<TRIPOS>MOLECULE
*****
 65 69 0 0 0
SMALL
GASTEIGER

@<TRIPOS>ATOM
      1 O           5.9063   -2.5882   -0.3730 O.2     1  UNL1       -0.2702
      2 C           5.3732   -1.6749    0.2581 C.2     1  UNL1        0.2443
      3 N           6.1285   -0.4985    0.4961 N.am    1  UNL1       -0.3069
      4 C           7.4926   -0.2924    0.0504 C.3     1  UNL1        0.0428
      5 C           8.4541   -0.0744    1.1737 C.3     1  UNL1       -0.0315
      6 C           8.4132    1.3118    1.7567 C.3     1  UNL1       -0.0319
      7 C           9.0199    2.3540    0.8796 C.3     1  UNL1        0.0659
      8 S           9.0527    1.7498   -0.7848 S.O2    1  UNL1       -0.0293
      9 O           9.1331    2.8229   -1.8011 O.2     1  UNL1       -0.1743
     10 O          10.2388    0.8267   -0.9900 O.2     1  UNL1       -0.1743
     11 C           7.5947    0.7562   -1.0332 C.3     1  UNL1        0.0841
     12 C           4.0074   -1.8307    0.7299 C.ar    1  UNL1        0.0369
     13 C           3.3314   -0.9185    1.5044 C.ar    1  UNL1       -0.0462
     14 C           2.0320   -1.0733    1.9442 C.ar    1  UNL1       -0.0186
     15 C           1.3745   -2.2339    1.5714 C.ar    1  UNL1        0.1285
     16 O           0.0791   -2.3690    2.0196 O.3     1  UNL1       -0.4560
     17 C          -1.0118   -1.9215    1.3147 C.ar    1  UNL1        0.1285
     18 C          -0.9399   -1.3400    0.0709 C.ar    1  UNL1       -0.0182
     19 C          -2.0693   -0.9073   -0.5901 C.ar    1  UNL1       -0.0429
     20 C          -3.3374   -1.0388   -0.0296 C.ar    1  UNL1        0.0252
     21 C          -4.5246   -0.5908   -0.7008 C.1     1  UNL1       -0.0634
     22 C          -5.5313   -0.1955   -1.2555 C.1     1  UNL1       -0.0608
     23 C          -6.7567    0.2693   -1.9087 C.3     1  UNL1        0.1421
     24 O          -7.0509   -0.4694   -3.0569 O.3     1  UNL1       -0.3750
     25 C          -6.6794    1.7543   -2.2296 C.3     1  UNL1        0.0393
     26 N          -7.4903    2.5582   -1.3536 N.3     1  UNL1       -0.2986
     27 C          -7.1697    2.3002    0.0247 C.3     1  UNL1       -0.0006
     28 C          -7.4530    0.8562    0.3691 C.3     1  UNL1       -0.0337
     29 C          -7.8702    0.1134   -0.8868 C.3     1  UNL1        0.0027
     30 C          -9.1077    0.7648   -1.4726 C.3     1  UNL1       -0.0337
     31 C          -8.8802    2.2450   -1.6584 C.3     1  UNL1       -0.0006
     32 C          -3.4066   -1.6221    1.2167 C.ar    1  UNL1       -0.0429
     33 C          -2.2712   -2.0581    1.8840 C.ar    1  UNL1       -0.0182
     34 C           1.9834   -3.1790    0.8063 C.ar    1  UNL1       -0.0186
     35 C           3.2996   -2.9883    0.3799 C.ar    1  UNL1       -0.0462
     36 H           5.6556    0.2585    1.0276 H       1  UNL1        0.1493
     37 H           7.8027   -1.2501   -0.4308 H       1  UNL1        0.0514
     38 H           8.1457   -0.7725    2.0024 H       1  UNL1        0.0284
     39 H           9.4700   -0.3533    0.9003 H       1  UNL1        0.0284
     40 H           9.0067    1.2736    2.6954 H       1  UNL1        0.0281
     41 H           7.3713    1.5598    2.0770 H       1  UNL1        0.0281
     42 H           8.4209    3.3058    0.8870 H       1  UNL1        0.0500
     43 H          10.0532    2.6428    1.1544 H       1  UNL1        0.0500
     44 H           7.7119    0.3119   -2.0506 H       1  UNL1        0.0518
     45 H           6.6705    1.3791   -1.1023 H       1  UNL1        0.0518
     46 H           3.8343   -0.0058    1.8043 H       1  UNL1        0.0626
     47 H           1.5339   -0.3216    2.5580 H       1  UNL1        0.0654
     48 H           0.0106   -1.2068   -0.4228 H       1  UNL1        0.0655
     49 H          -2.0212   -0.4508   -1.5650 H       1  UNL1        0.0631
     50 H          -6.3239   -1.1246   -3.1826 H       1  UNL1        0.2115
     51 H          -5.6142    2.0665   -2.0320 H       1  UNL1        0.0465
     52 H          -6.8913    1.9690   -3.2895 H       1  UNL1        0.0465
     53 H          -7.7077    3.0081    0.6585 H       1  UNL1        0.0427
     54 H          -6.0798    2.4934    0.1443 H       1  UNL1        0.0427
     55 H          -6.5912    0.3550    0.8227 H       1  UNL1        0.0281
     56 H          -8.2984    0.8444    1.0737 H       1  UNL1        0.0281
     57 H          -8.0771   -0.9417   -0.6604 H       1  UNL1        0.0339
     58 H          -9.2560    0.3292   -2.4926 H       1  UNL1        0.0281
     59 H         -10.0119    0.5469   -0.8706 H       1  UNL1        0.0281
     60 H          -9.0554    2.5738   -2.7016 H       1  UNL1        0.0427
     61 H          -9.5611    2.8090   -0.9913 H       1  UNL1        0.0427
     62 H          -4.4083   -1.7278    1.6620 H       1  UNL1        0.0631
     63 H          -2.3603   -2.5136    2.8628 H       1  UNL1        0.0655
     64 H           1.4690   -4.1052    0.5032 H       1  UNL1        0.0654
     65 H           3.7374   -3.7711   -0.2268 H       1  UNL1        0.0626
@<TRIPOS>BOND
     1     1     2    2
     2     2     3   am
     3     3     4    1
     4     4     5    1
     5     5     6    1
     6     6     7    1
     7     7     8    1
     8     8     9    2
     9     8    10    2
    10     8    11    1
    11     2    12    1
    12    12    13   ar
    13    13    14   ar
    14    14    15   ar
    15    15    16    1
    16    16    17    1
    17    17    18   ar
    18    18    19   ar
    19    19    20   ar
    20    20    21    1
    21    21    22    3
    22    23    22    1
    23    23    24    1
    24    23    25    1
    25    25    26    1
    26    26    27    1
    27    27    28    1
    28    28    29    1
    29    29    30    1
    30    30    31    1
    31    20    32   ar
    32    32    33   ar
    33    15    34   ar
    34    34    35   ar
    35    11     4    1
    36    35    12   ar
    37    33    17   ar
    38    29    23    1
    39    31    26    1
    40     3    36    1
    41     4    37    1
    42     5    38    1
    43     5    39    1
    44     6    40    1
    45     6    41    1
    46     7    42    1
    47     7    43    1
    48    11    44    1
    49    11    45    1
    50    13    46    1
    51    14    47    1
    52    18    48    1
    53    19    49    1
    54    24    50    1
    55    25    51    1
    56    25    52    1
    57    27    53    1
    58    27    54    1
    59    28    55    1
    60    28    56    1
    61    29    57    1
    62    30    58    1
    63    30    59    1
    64    31    60    1
    65    31    61    1
    66    32    62    1
    67    33    63    1
    68    34    64    1
    69    35    65    1
