@<TRIPOS>MOLECULE
*****
 69 72 0 0 0
SMALL
GASTEIGER

@<TRIPOS>ATOM
      1 C          -0.6219   -6.4666   -1.5651 C.3     1  UNL1       -0.0468
      2 C          -0.1952   -5.3055   -0.6934 C.3     1  UNL1        0.0189
      3 C          -0.2846   -5.8484    0.7518 C.3     1  UNL1       -0.0468
      4 N          -1.1026   -4.2289   -0.8441 N.am    1  UNL1       -0.2969
      5 C          -1.0076   -2.8646   -0.8178 C.2     1  UNL1        0.3030
      6 O           0.6010   -3.0091   -0.5583 O.2     1  UNL1       -0.2526
      7 N          -0.9079   -1.5587   -0.7911 N.am    1  UNL1       -0.2770
      8 C           0.1739   -0.7217   -0.3784 C.3     1  UNL1        0.0416
      9 C           1.1638   -0.2593   -1.2838 C.ar    1  UNL1       -0.0289
     10 C           1.0349    0.0924   -2.5499 C.ar    1  UNL1       -0.0570
     11 C           1.9677    0.7055   -3.2713 C.ar    1  UNL1       -0.0603
     12 C           3.2349    1.0281   -2.7159 C.ar    1  UNL1       -0.0463
     13 C           3.4394    0.6553   -1.3100 C.ar    1  UNL1        0.0256
     14 C           4.6062    1.1187   -0.7950 C.1     1  UNL1       -0.0610
     15 C           5.6580    1.5161   -0.3284 C.1     1  UNL1       -0.0610
     16 C           7.0131    2.0043    0.2787 C.ar    1  UNL1        0.0253
     17 C           7.3905    1.4826    1.4009 C.ar    1  UNL1       -0.0458
     18 C           8.6657    1.9673    2.0078 C.ar    1  UNL1       -0.0490
     19 C           9.2601    2.9160    1.2340 C.ar    1  UNL1        0.0549
     20 C          10.6957    3.3074    1.7727 C.3     1  UNL1        0.4174
     21 F          11.2385    2.2618    2.4719 F       1  UNL1       -0.1659
     22 F          10.5293    4.4177    2.5243 F       1  UNL1       -0.1659
     23 F          11.4904    3.6099    0.6874 F       1  UNL1       -0.1659
     24 C           8.9131    3.4546    0.1205 C.ar    1  UNL1       -0.0490
     25 C           7.6352    2.9757   -0.4893 C.ar    1  UNL1       -0.0458
     26 C           2.4194    0.0471   -0.6897 C.ar    1  UNL1       -0.0416
     27 C          -2.1467   -0.7751   -1.2519 C.3     1  UNL1        0.0416
     28 C          -2.8221   -0.3146    0.0068 C.ar    1  UNL1       -0.0289
     29 C          -2.4882   -0.8022    1.1353 C.ar    1  UNL1       -0.0570
     30 C          -3.0725   -0.4167    2.3847 C.ar    1  UNL1       -0.0603
     31 C          -4.0646    0.5534    2.1811 C.ar    1  UNL1       -0.0463
     32 C          -4.3963    1.0189    0.9629 C.ar    1  UNL1        0.0256
     33 C          -5.9079    1.6390    0.8810 C.1     1  UNL1       -0.0610
     34 C          -6.9028    2.0648    0.8172 C.1     1  UNL1       -0.0595
     35 C          -8.2818    2.6607    0.7544 C.ar    1  UNL1        0.0433
     36 C          -9.4177    1.9008    0.7621 C.ar    1  UNL1       -0.0434
     37 C         -10.6640    2.6965    0.8501 C.ar    1  UNL1       -0.0424
     38 C         -10.5897    3.8845    0.8949 C.ar    1  UNL1        0.0276
     39 N          -9.4942    4.7850    0.8958 N.ar    1  UNL1       -0.2620
     40 C          -8.3042    4.0592    0.8187 C.ar    1  UNL1        0.0429
     41 C          -3.8506    0.6802   -0.2229 C.ar    1  UNL1       -0.0416
     42 H          -0.7848   -7.3664   -0.9818 H       1  UNL1        0.0247
     43 H           0.1753   -6.7025   -2.3242 H       1  UNL1        0.0247
     44 H          -1.5759   -6.2012   -2.0848 H       1  UNL1        0.0247
     45 H           0.8442   -5.0631   -0.8857 H       1  UNL1        0.0493
     46 H           0.1528   -6.8425    0.7622 H       1  UNL1        0.0247
     47 H           0.3163   -5.2324    1.4372 H       1  UNL1        0.0247
     48 H          -1.3657   -5.9391    1.0236 H       1  UNL1        0.0247
     49 H          -2.1563   -4.4662   -1.0072 H       1  UNL1        0.1505
     50 H           0.7461   -1.4316    0.3818 H       1  UNL1        0.0514
     51 H          -0.2772    0.0589    0.3304 H       1  UNL1        0.0514
     52 H           0.0876   -0.1715   -3.1157 H       1  UNL1        0.0621
     53 H           1.8220    1.0220   -4.3402 H       1  UNL1        0.0618
     54 H           3.9812    1.5388   -3.2551 H       1  UNL1        0.0630
     55 H           6.8933    0.7156    2.0042 H       1  UNL1        0.0630
     56 H           8.9733    1.5574    2.8914 H       1  UNL1        0.0623
     57 H           9.3188    4.1873   -0.4890 H       1  UNL1        0.0623
     58 H           7.2884    3.3427   -1.3470 H       1  UNL1        0.0630
     59 H           2.5930   -0.1956    0.3589 H       1  UNL1        0.0633
     60 H          -2.7899   -1.4345   -1.8216 H       1  UNL1        0.0514
     61 H          -1.7876    0.1002   -1.7769 H       1  UNL1        0.0514
     62 H          -1.7164   -1.6131    1.2656 H       1  UNL1        0.0621
     63 H          -2.7926   -0.8252    3.2637 H       1  UNL1        0.0618
     64 H          -4.5613    0.9507    3.0834 H       1  UNL1        0.0630
     65 H          -9.4345    0.8701    0.7205 H       1  UNL1        0.0631
     66 H         -11.5195    1.9953    0.8581 H       1  UNL1        0.0633
     67 H         -11.5523    4.5693    0.9793 H       1  UNL1        0.0829
     68 H          -7.3896    4.5884    0.7739 H       1  UNL1        0.0842
     69 H          -4.0968    1.0561   -1.1604 H       1  UNL1        0.0633
@<TRIPOS>BOND
     1     1     2    1
     2     2     3    1
     3     2     4    1
     4     4     5   am
     5     5     6    2
     6     5     7   am
     7     7     8    1
     8     8     9    1
     9     9    10   ar
    10    10    11   ar
    11    11    12   ar
    12    12    13   ar
    13    13    14    1
    14    14    15    3
    15    15    16    1
    16    16    17   ar
    17    17    18   ar
    18    18    19   ar
    19    19    20    1
    20    20    21    1
    21    20    22    1
    22    20    23    1
    23    19    24   ar
    24    24    25   ar
    25    13    26   ar
    26     7    27    1
    27    27    28    1
    28    28    29   ar
    29    29    30   ar
    30    30    31   ar
    31    31    32   ar
    32    32    33    1
    33    33    34    3
    34    34    35    1
    35    35    36   ar
    36    36    37   ar
    37    37    38   ar
    38    38    39   ar
    39    39    40   ar
    40    32    41   ar
    41    26     9   ar
    42    41    28   ar
    43    25    16   ar
    44    40    35   ar
    45     1    42    1
    46     1    43    1
    47     1    44    1
    48     2    45    1
    49     3    46    1
    50     3    47    1
    51     3    48    1
    52     4    49    1
    53     8    50    1
    54     8    51    1
    55    10    52    1
    56    11    53    1
    57    12    54    1
    58    17    55    1
    59    18    56    1
    60    24    57    1
    61    25    58    1
    62    26    59    1
    63    27    60    1
    64    27    61    1
    65    29    62    1
    66    30    63    1
    67    31    64    1
    68    36    65    1
    69    37    66    1
    70    38    67    1
    71    40    68    1
    72    41    69    1
