@<TRIPOS>MOLECULE
*****
 44 46 0 0 0
SMALL
GASTEIGER

@<TRIPOS>ATOM
      1 C          -4.0957    3.1836    0.3938 C.3     1  UNL1        0.0788
      2 O          -2.9940    2.4151   -0.0514 O.3     1  UNL1       -0.4951
      3 C          -3.1188    1.0445    0.0875 C.ar    1  UNL1        0.1209
      4 C          -2.1072    0.2404   -0.3169 C.ar    1  UNL1       -0.0093
      5 C          -1.9778   -1.1120   -0.2910 C.ar    1  UNL1        0.0201
      6 C          -0.9502   -2.0773   -0.5638 C.2     1  UNL1       -0.0504
      7 C           0.3485   -1.9564   -0.5577 C.2     1  UNL1       -0.0522
      8 C           1.0983   -0.7734   -0.2382 C.ar    1  UNL1       -0.0032
      9 C           2.2998   -0.5146   -0.8502 C.ar    1  UNL1       -0.0279
     10 C           2.8061   -1.3202   -1.9912 C.3     1  UNL1       -0.0383
     11 C           3.0855    0.5364   -0.4512 C.ar    1  UNL1        0.0622
     12 C           4.2904    0.8200   -1.0408 C.ar    1  UNL1        0.1308
     13 N           4.8254    0.0698   -2.0845 N.pl3   1  UNL1       -0.3425
     14 N           5.0981    1.8364   -0.6888 N.ar    1  UNL1       -0.1994
     15 C           4.7350    2.6755    0.3253 C.ar    1  UNL1        0.2162
     16 N           5.4697    3.7874    0.8139 N.pl3   1  UNL1       -0.3274
     17 N           3.5589    2.4200    0.9209 N.ar    1  UNL1       -0.1948
     18 C           2.7585    1.4058    0.5658 C.ar    1  UNL1        0.1668
     19 N           1.5739    1.1733    1.1899 N.ar    1  UNL1       -0.2349
     20 C           0.8375    0.1332    0.7680 C.ar    1  UNL1        0.0374
     21 C          -3.1098   -1.7487    0.2526 C.ar    1  UNL1        0.1274
     22 O          -3.2312   -3.1245    0.3885 O.3     1  UNL1       -0.4945
     23 C          -4.3929   -3.6698    0.9399 C.3     1  UNL1        0.0788
     24 C          -4.1793   -0.9596    0.6836 C.ar    1  UNL1       -0.0159
     25 C          -4.2182    0.4131    0.6184 C.ar    1  UNL1       -0.0165
     26 H          -5.0483    2.8124   -0.0585 H       1  UNL1        0.0660
     27 H          -4.0113    4.2354    0.1078 H       1  UNL1        0.0660
     28 H          -4.1868    3.1267    1.4921 H       1  UNL1        0.0660
     29 H          -1.2398    0.7249   -0.7916 H       1  UNL1        0.0661
     30 H          -1.2179   -3.1111   -0.8460 H       1  UNL1        0.0625
     31 H           0.9848   -2.8300   -0.7945 H       1  UNL1        0.0624
     32 H           1.9777   -2.0478   -2.2517 H       1  UNL1        0.0278
     33 H           3.6537   -1.9597   -1.7757 H       1  UNL1        0.0278
     34 H           2.8656   -0.7328   -2.9478 H       1  UNL1        0.0278
     35 H           5.6429   -0.5997   -1.9620 H       1  UNL1        0.1437
     36 H           5.4242   -0.5944   -2.6172 H       1  UNL1        0.1437
     37 H           5.9726    3.5367    1.7060 H       1  UNL1        0.1452
     38 H           5.1903    4.4489    0.0305 H       1  UNL1        0.1452
     39 H          -0.0466    0.0537    1.3865 H       1  UNL1        0.0836
     40 H          -4.5043   -3.3800    2.0103 H       1  UNL1        0.0660
     41 H          -5.3414   -3.3502    0.4421 H       1  UNL1        0.0660
     42 H          -4.4092   -4.7804    0.8821 H       1  UNL1        0.0660
     43 H          -5.0633   -1.4496    1.1132 H       1  UNL1        0.0655
     44 H          -5.0535    0.9991    0.9580 H       1  UNL1        0.0655
@<TRIPOS>BOND
     1     1     2    1
     2     2     3    1
     3     3     4   ar
     4     4     5   ar
     5     5     6    1
     6     6     7    2
     7     7     8    1
     8     8     9   ar
     9     9    10    1
    10     9    11   ar
    11    11    12   ar
    12    12    13    1
    13    12    14   ar
    14    14    15   ar
    15    15    16    1
    16    15    17   ar
    17    17    18   ar
    18    18    19   ar
    19    19    20   ar
    20     5    21   ar
    21    21    22    1
    22    22    23    1
    23    21    24   ar
    24    24    25   ar
    25    25     3   ar
    26    20     8   ar
    27    18    11   ar
    28     1    26    1
    29     1    27    1
    30     1    28    1
    31     4    29    1
    32     6    30    1
    33     7    31    1
    34    10    32    1
    35    10    33    1
    36    10    34    1
    37    13    35    1
    38    13    36    1
    39    16    37    1
    40    16    38    1
    41    20    39    1
    42    23    40    1
    43    23    41    1
    44    23    42    1
    45    24    43    1
    46    25    44    1
