@<TRIPOS>MOLECULE
*****
 49 52 0 0 0
SMALL
GASTEIGER

@<TRIPOS>ATOM
      1 C           7.9505    0.7821    1.1734 C.3     1  UNL1        0.0788
      2 O           6.8118    0.7565    0.3662 O.3     1  UNL1       -0.4948
      3 C           5.5620    0.4166    0.8714 C.ar    1  UNL1        0.1251
      4 C           5.4594    0.1002    2.2001 C.ar    1  UNL1       -0.0196
      5 C           4.2377   -0.2388    2.7239 C.ar    1  UNL1       -0.0565
      6 C           3.1199   -0.2603    1.9152 C.ar    1  UNL1       -0.0398
      7 C           3.2020    0.0583    0.5598 C.ar    1  UNL1        0.0430
      8 C           4.4372    0.3930    0.0659 C.ar    1  UNL1        0.0171
      9 C           4.3211    0.6941   -1.3718 C.3     1  UNL1       -0.0062
     10 C           2.8196    0.7758   -1.5986 C.3     1  UNL1        0.0240
     11 N           2.2182    0.1087   -0.4611 N.am    1  UNL1       -0.2704
     12 C           0.9090   -0.4084   -0.3453 C.2     1  UNL1        0.2271
     13 O           0.5515   -0.9604    0.7228 O.2     1  UNL1       -0.2748
     14 C          -0.0501   -0.3031   -1.4822 C.3     1  UNL1        0.0826
     15 C          -1.3620   -0.9099   -1.1429 C.ar    1  UNL1        0.1206
     16 N          -2.3585   -0.1705   -0.5724 N.ar    1  UNL1       -0.2186
     17 C          -3.5440   -0.7205   -0.2662 C.ar    1  UNL1        0.1285
     18 N          -4.5910    0.0393    0.3291 N.pl3   1  UNL1       -0.3106
     19 C          -5.8287   -0.6040    0.6300 C.3     1  UNL1        0.0370
     20 C          -6.9430    0.3152    0.9879 C.3     1  UNL1        0.0634
     21 O          -6.5632    1.5476    1.4490 O.3     1  UNL1       -0.3767
     22 C          -5.7220    2.1315    0.4743 C.3     1  UNL1        0.0634
     23 C          -4.3846    1.4356    0.6156 C.3     1  UNL1        0.0370
     24 C          -3.7025   -2.0599   -0.5551 C.ar    1  UNL1        0.0427
     25 C          -2.6904   -2.8082   -1.1339 C.ar    1  UNL1        0.2533
     26 O          -2.8259   -4.0385   -1.4032 O.2     1  UNL1       -0.2677
     27 N          -1.5178   -2.2164   -1.4243 N.ar    1  UNL1       -0.3104
     28 H           8.1046   -0.1786    1.7218 H       1  UNL1        0.0660
     29 H           8.8534    0.9495    0.5723 H       1  UNL1        0.0660
     30 H           7.9256    1.5831    1.9507 H       1  UNL1        0.0660
     31 H           6.3505    0.1209    2.8290 H       1  UNL1        0.0654
     32 H           4.1748   -0.4898    3.7931 H       1  UNL1        0.0619
     33 H           2.1641   -0.5333    2.3597 H       1  UNL1        0.0636
     34 H           4.8110    1.6190   -1.6857 H       1  UNL1        0.0330
     35 H           4.7613   -0.1883   -1.9178 H       1  UNL1        0.0330
     36 H           2.4776    1.8370   -1.6624 H       1  UNL1        0.0472
     37 H           2.6039    0.3009   -2.5532 H       1  UNL1        0.0472
     38 H          -0.2499    0.7881   -1.6549 H       1  UNL1        0.0438
     39 H           0.3890   -0.7049   -2.3995 H       1  UNL1        0.0438
     40 H          -6.1479   -1.1637   -0.2978 H       1  UNL1        0.0487
     41 H          -5.6983   -1.4084    1.4006 H       1  UNL1        0.0487
     42 H          -7.6696    0.4418    0.1496 H       1  UNL1        0.0575
     43 H          -7.5438   -0.1764    1.8083 H       1  UNL1        0.0575
     44 H          -6.1686    2.0280   -0.5166 H       1  UNL1        0.0575
     45 H          -5.6131    3.1880    0.7707 H       1  UNL1        0.0575
     46 H          -4.0597    1.5496    1.6611 H       1  UNL1        0.0487
     47 H          -3.6088    1.8912   -0.0336 H       1  UNL1        0.0487
     48 H          -4.6492   -2.5470   -0.3230 H       1  UNL1        0.0706
     49 H          -0.7234   -2.7622   -1.8678 H       1  UNL1        0.1700
@<TRIPOS>BOND
     1     1     2    1
     2     2     3    1
     3     3     4   ar
     4     4     5   ar
     5     5     6   ar
     6     6     7   ar
     7     7     8   ar
     8     8     9    1
     9     9    10    1
    10    10    11    1
    11    11    12   am
    12    12    13    2
    13    12    14    1
    14    14    15    1
    15    15    16   ar
    16    16    17   ar
    17    17    18    1
    18    18    19    1
    19    19    20    1
    20    20    21    1
    21    21    22    1
    22    22    23    1
    23    17    24   ar
    24    24    25   ar
    25    25    26    2
    26    25    27   ar
    27     8     3   ar
    28    27    15   ar
    29    11     7    1
    30    23    18    1
    31     1    28    1
    32     1    29    1
    33     1    30    1
    34     4    31    1
    35     5    32    1
    36     6    33    1
    37     9    34    1
    38     9    35    1
    39    10    36    1
    40    10    37    1
    41    14    38    1
    42    14    39    1
    43    19    40    1
    44    19    41    1
    45    20    42    1
    46    20    43    1
    47    22    44    1
    48    22    45    1
    49    23    46    1
    50    23    47    1
    51    24    48    1
    52    27    49    1
