
     RDKit          3D

 45 46  0  0  0  0  0  0  0  0999 V2000
   -5.2827    0.2225   -0.5125 C   0  0  0  0  0  0  0  0  0  0  0  0
   -4.1181    0.1402    0.4460 C   0  0  0  0  0  0  0  0  0  0  0  0
   -3.1321   -0.8147   -0.0000 N   0  0  0  0  0  0  0  0  0  0  0  0
   -3.2737   -2.1908    0.4446 C   0  0  0  0  0  0  0  0  0  0  0  0
   -2.5550   -2.4603    1.7363 C   0  0  0  0  0  0  0  0  0  0  0  0
   -2.0582   -0.4299   -0.8441 C   0  0  0  0  0  0  0  0  0  0  0  0
   -1.2262   -1.2886   -1.2070 O   0  0  0  0  0  0  0  0  0  0  0  0
   -1.9659    0.9891   -1.2653 C   0  0  0  0  0  0  0  0  0  0  0  0
   -0.7374    1.1610   -2.1628 C   0  0  0  0  0  0  0  0  0  0  0  0
   -0.8251    0.9854   -3.4985 C   0  0  0  0  0  0  0  0  0  0  0  0
    0.8830    1.3029   -4.0991 S   0  0  0  0  0  0  0  0  0  0  0  0
    1.4636    1.6435   -2.3075 C   0  0  0  0  0  0  0  0  0  0  0  0
    2.8718    1.9815   -2.1522 N   0  0  0  0  0  0  0  0  0  0  0  0
    3.4907    2.3049   -0.5926 S   0  0  0  0  0  6  0  0  0  0  0  0
    2.6742    3.4425   -0.0012 O   0  0  0  0  0  0  0  0  0  0  0  0
    4.9038    2.7930   -0.6753 O   0  0  0  0  0  0  0  0  0  0  0  0
    3.3406    0.9217    0.4698 C   0  0  0  0  0  0  0  0  0  0  0  0
    2.6040    1.0040    1.6469 C   0  0  0  0  0  0  0  0  0  0  0  0
    2.4984   -0.0940    2.4700 C   0  0  0  0  0  0  0  0  0  0  0  0
    3.1123   -1.2847    2.1505 C   0  0  0  0  0  0  0  0  0  0  0  0
    3.8469   -1.3921    0.9916 C   0  0  0  0  0  0  0  0  0  0  0  0
    4.6448   -2.9035    0.5553 Cl  0  0  0  0  0  0  0  0  0  0  0  0
    3.9529   -0.2748    0.1565 C   0  0  0  0  0  0  0  0  0  0  0  0
    4.7358   -0.3752   -1.0885 C   0  0  0  0  0  0  0  0  0  0  0  0
    0.4753    1.4842   -1.7505 N   0  0  0  0  0  0  0  0  0  0  0  0
   -5.2312    1.1509   -1.1257 H   0  0  0  0  0  0  0  0  0  0  0  0
   -5.2716   -0.6436   -1.2338 H   0  0  0  0  0  0  0  0  0  0  0  0
   -6.2382    0.2031    0.0798 H   0  0  0  0  0  0  0  0  0  0  0  0
   -4.4949   -0.1391    1.4681 H   0  0  0  0  0  0  0  0  0  0  0  0
   -3.6610    1.1495    0.5644 H   0  0  0  0  0  0  0  0  0  0  0  0
   -2.8313   -2.8399   -0.3543 H   0  0  0  0  0  0  0  0  0  0  0  0
   -4.3609   -2.4016    0.4954 H   0  0  0  0  0  0  0  0  0  0  0  0
   -3.3220   -2.8170    2.4762 H   0  0  0  0  0  0  0  0  0  0  0  0
   -2.0449   -1.5831    2.1487 H   0  0  0  0  0  0  0  0  0  0  0  0
   -1.7731   -3.2443    1.5948 H   0  0  0  0  0  0  0  0  0  0  0  0
   -1.8980    1.6854   -0.4041 H   0  0  0  0  0  0  0  0  0  0  0  0
   -2.8735    1.2593   -1.8336 H   0  0  0  0  0  0  0  0  0  0  0  0
   -1.6760    0.7080   -4.2227 H   0  0  0  0  0  0  0  0  0  0  0  0
    3.4725    2.0215   -2.9755 H   0  0  0  0  0  0  0  0  0  0  0  0
    2.1213    1.9577    1.8877 H   0  0  0  0  0  0  0  0  0  0  0  0
    1.9247   -0.0215    3.3818 H   0  0  0  0  0  0  0  0  0  0  0  0
    3.0439   -2.1664    2.7842 H   0  0  0  0  0  0  0  0  0  0  0  0
    5.7530   -0.7933   -0.9344 H   0  0  0  0  0  0  0  0  0  0  0  0
    4.8652    0.6257   -1.5420 H   0  0  0  0  0  0  0  0  0  0  0  0
    4.1721   -0.9788   -1.8549 H   0  0  0  0  0  0  0  0  0  0  0  0
  1  2  1  0
  2  3  1  0
  3  4  1  0
  4  5  1  0
  3  6  1  0
  6  7  2  0
  6  8  1  0
  8  9  1  0
  9 10  2  0
 10 11  1  0
 11 12  1  0
 12 13  1  0
 13 14  1  0
 14 15  2  0
 14 16  2  0
 14 17  1  0
 17 18  2  0
 18 19  1  0
 19 20  2  0
 20 21  1  0
 21 22  1  0
 21 23  2  0
 23 24  1  0
 12 25  2  0
 25  9  1  0
 23 17  1  0
  1 26  1  0
  1 27  1  0
  1 28  1  0
  2 29  1  0
  2 30  1  0
  4 31  1  0
  4 32  1  0
  5 33  1  0
  5 34  1  0
  5 35  1  0
  8 36  1  0
  8 37  1  0
 10 38  1  0
 13 39  1  0
 18 40  1  0
 19 41  1  0
 20 42  1  0
 24 43  1  0
 24 44  1  0
 24 45  1  0
M  END
$$$$
