@<TRIPOS>MOLECULE
*****
 45 46 0 0 0
SMALL
GASTEIGER

@<TRIPOS>ATOM
      1 C          -5.2827    0.2225   -0.5125 C.3     1  UNL1       -0.0493
      2 C          -4.1181    0.1402    0.4460 C.3     1  UNL1        0.0118
      3 N          -3.1321   -0.8147   -0.0000 N.am    1  UNL1       -0.3017
      4 C          -3.2737   -2.1908    0.4446 C.3     1  UNL1        0.0118
      5 C          -2.5550   -2.4603    1.7363 C.3     1  UNL1       -0.0493
      6 C          -2.0582   -0.4299   -0.8441 C.2     1  UNL1        0.2214
      7 O          -1.2262   -1.2886   -1.2070 O.2     1  UNL1       -0.2752
      8 C          -1.9659    0.9891   -1.2653 C.3     1  UNL1        0.0670
      9 C          -0.7374    1.1610   -2.1628 C.ar    1  UNL1        0.0593
     10 C          -0.8251    0.9854   -3.4985 C.ar    1  UNL1        0.0007
     11 S           0.8830    1.3029   -4.0991 S.2     1  UNL1       -0.0591
     12 C           1.4636    1.6435   -2.3075 C.ar    1  UNL1        0.1777
     13 N           2.8718    1.9815   -2.1522 N.pl3   1  UNL1       -0.1937
     14 S           3.4907    2.3049   -0.5926 S.O2    1  UNL1        0.0741
     15 O           2.6742    3.4425   -0.0012 O.2     1  UNL1       -0.1499
     16 O           4.9038    2.7930   -0.6753 O.2     1  UNL1       -0.1499
     17 C           3.3406    0.9217    0.4698 C.ar    1  UNL1        0.1128
     18 C           2.6040    1.0040    1.6469 C.ar    1  UNL1       -0.0347
     19 C           2.4984   -0.0940    2.4700 C.ar    1  UNL1       -0.0585
     20 C           3.1123   -1.2847    2.1505 C.ar    1  UNL1       -0.0430
     21 C           3.8469   -1.3921    0.9916 C.ar    1  UNL1        0.0457
     22 CL          4.6448   -2.9035    0.5553 Cl      1  UNL1       -0.0832
     23 C           3.9529   -0.2748    0.1565 C.ar    1  UNL1       -0.0056
     24 C           4.7358   -0.3752   -1.0885 C.3     1  UNL1       -0.0365
     25 N           0.4753    1.4842   -1.7505 N.ar    1  UNL1       -0.2282
     26 H          -5.2312    1.1509   -1.1257 H       1  UNL1        0.0245
     27 H          -5.2716   -0.6436   -1.2338 H       1  UNL1        0.0245
     28 H          -6.2382    0.2031    0.0798 H       1  UNL1        0.0245
     29 H          -4.4949   -0.1391    1.4681 H       1  UNL1        0.0462
     30 H          -3.6610    1.1495    0.5644 H       1  UNL1        0.0462
     31 H          -2.8313   -2.8399   -0.3543 H       1  UNL1        0.0462
     32 H          -4.3609   -2.4016    0.4954 H       1  UNL1        0.0462
     33 H          -3.3220   -2.8170    2.4762 H       1  UNL1        0.0245
     34 H          -2.0449   -1.5831    2.1487 H       1  UNL1        0.0245
     35 H          -1.7731   -3.2443    1.5948 H       1  UNL1        0.0245
     36 H          -1.8980    1.6854   -0.4041 H       1  UNL1        0.0423
     37 H          -2.8735    1.2593   -1.8336 H       1  UNL1        0.0423
     38 H          -1.6760    0.7080   -4.2227 H       1  UNL1        0.0712
     39 H           3.4725    2.0215   -2.9755 H       1  UNL1        0.1758
     40 H           2.1213    1.9577    1.8877 H       1  UNL1        0.0637
     41 H           1.9247   -0.0215    3.3818 H       1  UNL1        0.0619
     42 H           3.0439   -2.1664    2.7842 H       1  UNL1        0.0632
     43 H           5.7530   -0.7933   -0.9344 H       1  UNL1        0.0279
     44 H           4.8652    0.6257   -1.5420 H       1  UNL1        0.0279
     45 H           4.1721   -0.9788   -1.8549 H       1  UNL1        0.0279
@<TRIPOS>BOND
     1     1     2    1
     2     2     3    1
     3     3     4    1
     4     4     5    1
     5     3     6   am
     6     6     7    2
     7     6     8    1
     8     8     9    1
     9     9    10   ar
    10    10    11   ar
    11    11    12   ar
    12    12    13    1
    13    13    14    1
    14    14    15    2
    15    14    16    2
    16    14    17    1
    17    17    18   ar
    18    18    19   ar
    19    19    20   ar
    20    20    21   ar
    21    21    22    1
    22    21    23   ar
    23    23    24    1
    24    12    25   ar
    25    25     9   ar
    26    23    17   ar
    27     1    26    1
    28     1    27    1
    29     1    28    1
    30     2    29    1
    31     2    30    1
    32     4    31    1
    33     4    32    1
    34     5    33    1
    35     5    34    1
    36     5    35    1
    37     8    36    1
    38     8    37    1
    39    10    38    1
    40    13    39    1
    41    18    40    1
    42    19    41    1
    43    20    42    1
    44    24    43    1
    45    24    44    1
    46    24    45    1
