@<TRIPOS>MOLECULE
*****
 55 58 0 0 0
SMALL
GASTEIGER

@<TRIPOS>ATOM
      1 C           2.9515    1.8792   -1.5393 C.3     1  UNL1       -0.0165
      2 C           2.6039    1.0989   -0.2968 C.3     1  UNL1        0.1800
      3 C           3.1848    1.9184    0.8687 C.3     1  UNL1       -0.0165
      4 O           3.0951   -0.1899   -0.2292 O.3     1  UNL1       -0.4756
      5 C           4.4480   -0.4388   -0.2708 C.ar    1  UNL1        0.1402
      6 C           5.2052   -0.4478    0.9066 C.ar    1  UNL1       -0.0184
      7 C           6.5603   -0.6971    0.8736 C.ar    1  UNL1       -0.0582
      8 C           7.1953   -0.9427   -0.3230 C.ar    1  UNL1       -0.0602
      9 C           6.4716   -0.9387   -1.4879 C.ar    1  UNL1       -0.0398
     10 C           5.0977   -0.6861   -1.4543 C.ar    1  UNL1        0.0826
     11 CL          4.2277   -0.7121   -2.9550 Cl      1  UNL1       -0.0798
     12 C           1.1323    1.1967   -0.1373 C.2     1  UNL1        0.2566
     13 O           0.6584    2.3679   -0.1958 O.2     1  UNL1       -0.2714
     14 N           0.2899    0.0699    0.0679 N.am    1  UNL1       -0.3087
     15 C          -1.1123    0.2777    0.2088 C.3     1  UNL1        0.0290
     16 C          -1.9258   -0.3827   -0.8801 C.3     1  UNL1       -0.0200
     17 C          -2.0619   -1.8561   -0.7232 C.3     1  UNL1       -0.0455
     18 C          -2.7494   -2.1390    0.6007 C.3     1  UNL1       -0.0384
     19 C          -1.8155   -1.6343    1.6839 C.3     1  UNL1       -0.0455
     20 C          -1.6645   -0.1555    1.5442 C.3     1  UNL1       -0.0200
     21 C          -3.0413    0.4709    1.6504 C.3     1  UNL1       -0.0218
     22 C          -3.9344   -0.0144    0.5131 C.3     1  UNL1        0.1042
     23 S          -5.4489    0.8878    0.5999 S.O2    1  UNL1        0.0326
     24 N          -6.5582    0.4513   -0.6185 N.3     1  UNL1       -0.2076
     25 O          -5.1497    2.3538    0.4637 O.2     1  UNL1       -0.1579
     26 O          -6.0974    0.7039    1.9508 O.2     1  UNL1       -0.1579
     27 C          -4.1145   -1.4879    0.6793 C.3     1  UNL1       -0.0235
     28 C          -3.3028    0.2441   -0.8335 C.3     1  UNL1       -0.0218
     29 H           4.0264    1.9870   -1.7221 H       1  UNL1        0.0273
     30 H           2.3535    1.5308   -2.3998 H       1  UNL1        0.0273
     31 H           2.5896    2.9338   -1.3237 H       1  UNL1        0.0273
     32 H           2.7457    1.6025    1.8329 H       1  UNL1        0.0273
     33 H           2.8269    2.9588    0.6900 H       1  UNL1        0.0273
     34 H           4.2759    1.9364    0.8520 H       1  UNL1        0.0273
     35 H           4.6534   -0.2488    1.8150 H       1  UNL1        0.0654
     36 H           7.1272   -0.6999    1.7916 H       1  UNL1        0.0619
     37 H           8.2743   -1.1373   -0.3157 H       1  UNL1        0.0618
     38 H           6.9634   -1.1305   -2.4301 H       1  UNL1        0.0633
     39 H           0.7495   -0.8777    0.1064 H       1  UNL1        0.1491
     40 H          -1.3242    1.3628    0.1286 H       1  UNL1        0.0504
     41 H          -1.4368   -0.1587   -1.8434 H       1  UNL1        0.0319
     42 H          -2.6586   -2.2438   -1.5562 H       1  UNL1        0.0271
     43 H          -1.0497   -2.3056   -0.6484 H       1  UNL1        0.0271
     44 H          -2.9044   -3.2257    0.7711 H       1  UNL1        0.0302
     45 H          -0.8672   -2.1885    1.5671 H       1  UNL1        0.0271
     46 H          -2.3177   -1.8305    2.6510 H       1  UNL1        0.0271
     47 H          -1.0661    0.2461    2.3857 H       1  UNL1        0.0319
     48 H          -3.5008    0.0762    2.5908 H       1  UNL1        0.0290
     49 H          -2.9435    1.5712    1.6601 H       1  UNL1        0.0290
     50 H          -7.4029   -0.0206   -0.2185 H       1  UNL1        0.1439
     51 H          -6.9192    1.2782   -1.1498 H       1  UNL1        0.1439
     52 H          -4.6926   -1.8611   -0.1865 H       1  UNL1        0.0289
     53 H          -4.5540   -1.7836    1.6453 H       1  UNL1        0.0289
     54 H          -3.9190   -0.2851   -1.5865 H       1  UNL1        0.0290
     55 H          -3.1743    1.3162   -1.0560 H       1  UNL1        0.0290
@<TRIPOS>BOND
     1     1     2    1
     2     2     3    1
     3     2     4    1
     4     4     5    1
     5     5     6   ar
     6     6     7   ar
     7     7     8   ar
     8     8     9   ar
     9     9    10   ar
    10    10    11    1
    11     2    12    1
    12    12    13    2
    13    12    14   am
    14    14    15    1
    15    15    16    1
    16    16    17    1
    17    17    18    1
    18    18    19    1
    19    19    20    1
    20    20    21    1
    21    21    22    1
    22    22    23    1
    23    23    24    1
    24    23    25    2
    25    23    26    2
    26    22    27    1
    27    22    28    1
    28    10     5   ar
    29    20    15    1
    30    28    16    1
    31    27    18    1
    32     1    29    1
    33     1    30    1
    34     1    31    1
    35     3    32    1
    36     3    33    1
    37     3    34    1
    38     6    35    1
    39     7    36    1
    40     8    37    1
    41     9    38    1
    42    14    39    1
    43    15    40    1
    44    16    41    1
    45    17    42    1
    46    17    43    1
    47    18    44    1
    48    19    45    1
    49    19    46    1
    50    20    47    1
    51    21    48    1
    52    21    49    1
    53    24    50    1
    54    24    51    1
    55    27    52    1
    56    27    53    1
    57    28    54    1
    58    28    55    1
