
     RDKit          3D

 55 58  0  0  0  0  0  0  0  0999 V2000
    2.9515    1.8792   -1.5393 C   0  0  0  0  0  0  0  0  0  0  0  0
    2.6039    1.0989   -0.2968 C   0  0  0  0  0  0  0  0  0  0  0  0
    3.1848    1.9184    0.8687 C   0  0  0  0  0  0  0  0  0  0  0  0
    3.0951   -0.1899   -0.2292 O   0  0  0  0  0  0  0  0  0  0  0  0
    4.4480   -0.4388   -0.2708 C   0  0  0  0  0  0  0  0  0  0  0  0
    5.2052   -0.4478    0.9066 C   0  0  0  0  0  0  0  0  0  0  0  0
    6.5603   -0.6971    0.8736 C   0  0  0  0  0  0  0  0  0  0  0  0
    7.1953   -0.9427   -0.3230 C   0  0  0  0  0  0  0  0  0  0  0  0
    6.4716   -0.9387   -1.4879 C   0  0  0  0  0  0  0  0  0  0  0  0
    5.0977   -0.6861   -1.4543 C   0  0  0  0  0  0  0  0  0  0  0  0
    4.2277   -0.7121   -2.9550 Cl  0  0  0  0  0  0  0  0  0  0  0  0
    1.1323    1.1967   -0.1373 C   0  0  0  0  0  0  0  0  0  0  0  0
    0.6584    2.3679   -0.1958 O   0  0  0  0  0  0  0  0  0  0  0  0
    0.2899    0.0699    0.0679 N   0  0  0  0  0  0  0  0  0  0  0  0
   -1.1123    0.2777    0.2088 C   0  0  1  0  0  0  0  0  0  0  0  0
   -1.9258   -0.3827   -0.8801 C   0  0  0  0  0  0  0  0  0  0  0  0
   -2.0619   -1.8561   -0.7232 C   0  0  0  0  0  0  0  0  0  0  0  0
   -2.7494   -2.1390    0.6007 C   0  0  0  0  0  0  0  0  0  0  0  0
   -1.8155   -1.6343    1.6839 C   0  0  0  0  0  0  0  0  0  0  0  0
   -1.6645   -0.1555    1.5442 C   0  0  0  0  0  0  0  0  0  0  0  0
   -3.0413    0.4709    1.6504 C   0  0  0  0  0  0  0  0  0  0  0  0
   -3.9344   -0.0144    0.5131 C   0  0  2  0  0  0  0  0  0  0  0  0
   -5.4489    0.8878    0.5999 S   0  0  0  0  0  6  0  0  0  0  0  0
   -6.5582    0.4513   -0.6185 N   0  0  0  0  0  0  0  0  0  0  0  0
   -5.1497    2.3538    0.4637 O   0  0  0  0  0  0  0  0  0  0  0  0
   -6.0974    0.7039    1.9508 O   0  0  0  0  0  0  0  0  0  0  0  0
   -4.1145   -1.4879    0.6793 C   0  0  0  0  0  0  0  0  0  0  0  0
   -3.3028    0.2441   -0.8335 C   0  0  0  0  0  0  0  0  0  0  0  0
    4.0264    1.9870   -1.7221 H   0  0  0  0  0  0  0  0  0  0  0  0
    2.3535    1.5308   -2.3998 H   0  0  0  0  0  0  0  0  0  0  0  0
    2.5896    2.9338   -1.3237 H   0  0  0  0  0  0  0  0  0  0  0  0
    2.7457    1.6025    1.8329 H   0  0  0  0  0  0  0  0  0  0  0  0
    2.8269    2.9588    0.6900 H   0  0  0  0  0  0  0  0  0  0  0  0
    4.2759    1.9364    0.8520 H   0  0  0  0  0  0  0  0  0  0  0  0
    4.6534   -0.2488    1.8150 H   0  0  0  0  0  0  0  0  0  0  0  0
    7.1272   -0.6999    1.7916 H   0  0  0  0  0  0  0  0  0  0  0  0
    8.2743   -1.1373   -0.3157 H   0  0  0  0  0  0  0  0  0  0  0  0
    6.9634   -1.1305   -2.4301 H   0  0  0  0  0  0  0  0  0  0  0  0
    0.7495   -0.8777    0.1064 H   0  0  0  0  0  0  0  0  0  0  0  0
   -1.3242    1.3628    0.1286 H   0  0  0  0  0  0  0  0  0  0  0  0
   -1.4368   -0.1587   -1.8434 H   0  0  0  0  0  0  0  0  0  0  0  0
   -2.6586   -2.2438   -1.5562 H   0  0  0  0  0  0  0  0  0  0  0  0
   -1.0497   -2.3056   -0.6484 H   0  0  0  0  0  0  0  0  0  0  0  0
   -2.9044   -3.2257    0.7711 H   0  0  0  0  0  0  0  0  0  0  0  0
   -0.8672   -2.1885    1.5671 H   0  0  0  0  0  0  0  0  0  0  0  0
   -2.3177   -1.8305    2.6510 H   0  0  0  0  0  0  0  0  0  0  0  0
   -1.0661    0.2461    2.3857 H   0  0  0  0  0  0  0  0  0  0  0  0
   -3.5008    0.0762    2.5908 H   0  0  0  0  0  0  0  0  0  0  0  0
   -2.9435    1.5712    1.6601 H   0  0  0  0  0  0  0  0  0  0  0  0
   -7.4029   -0.0206   -0.2185 H   0  0  0  0  0  0  0  0  0  0  0  0
   -6.9192    1.2782   -1.1498 H   0  0  0  0  0  0  0  0  0  0  0  0
   -4.6926   -1.8611   -0.1865 H   0  0  0  0  0  0  0  0  0  0  0  0
   -4.5540   -1.7836    1.6453 H   0  0  0  0  0  0  0  0  0  0  0  0
   -3.9190   -0.2851   -1.5865 H   0  0  0  0  0  0  0  0  0  0  0  0
   -3.1743    1.3162   -1.0560 H   0  0  0  0  0  0  0  0  0  0  0  0
  1  2  1  0
  2  3  1  0
  2  4  1  0
  4  5  1  0
  5  6  2  0
  6  7  1  0
  7  8  2  0
  8  9  1  0
  9 10  2  0
 10 11  1  0
  2 12  1  0
 12 13  2  0
 12 14  1  0
 14 15  1  0
 15 16  1  0
 16 17  1  0
 17 18  1  0
 18 19  1  0
 19 20  1  0
 20 21  1  0
 21 22  1  0
 22 23  1  6
 23 24  1  0
 23 25  2  0
 23 26  2  0
 22 27  1  0
 22 28  1  0
 10  5  1  0
 20 15  1  0
 28 16  1  0
 27 18  1  0
  1 29  1  0
  1 30  1  0
  1 31  1  0
  3 32  1  0
  3 33  1  0
  3 34  1  0
  6 35  1  0
  7 36  1  0
  8 37  1  0
  9 38  1  0
 14 39  1  0
 15 40  1  6
 16 41  1  0
 17 42  1  0
 17 43  1  0
 18 44  1  0
 19 45  1  0
 19 46  1  0
 20 47  1  0
 21 48  1  0
 21 49  1  0
 24 50  1  0
 24 51  1  0
 27 52  1  0
 27 53  1  0
 28 54  1  0
 28 55  1  0
M  END
$$$$
