@<TRIPOS>MOLECULE
*****
 101 102 0 0 0
SMALL
GASTEIGER

@<TRIPOS>ATOM
      1 C           1.6430   -0.1261   -2.0152 C.3     1  UNL1       -0.0626
      2 C           1.6930   -1.3720   -1.2558 C.3     1  UNL1       -0.0450
      3 C           1.8901   -2.5921   -2.1875 C.3     1  UNL1       -0.0626
      4 C           2.5531   -1.5486   -0.0672 C.3     1  UNL1       -0.0297
      5 C           2.3288   -0.6125    1.0798 C.3     1  UNL1        0.0498
      6 N           0.8559   -0.8099    1.3786 N.am    1  UNL1       -0.3084
      7 C           0.4759   -1.7099    2.3894 C.2     1  UNL1        0.2339
      8 O           1.3999   -2.2947    3.0184 O.2     1  UNL1       -0.2738
      9 C          -0.9366   -1.9480    2.6785 C.3     1  UNL1        0.1017
     10 N          -1.8788   -1.1608    1.9198 N.am    1  UNL1       -0.3024
     11 C          -3.1854   -0.8825    2.3840 C.2     1  UNL1        0.2323
     12 O          -3.5264   -1.3747    3.4888 O.2     1  UNL1       -0.2740
     13 C          -4.1850   -0.0239    1.5979 C.3     1  UNL1        0.1045
     14 C          -5.0395   -0.9819    0.7980 C.3     1  UNL1       -0.0246
     15 C          -4.2402   -1.8008   -0.1836 C.3     1  UNL1       -0.0203
     16 C          -5.1884   -2.7306   -0.9032 C.3     1  UNL1        0.0647
     17 N          -6.1827   -1.9447   -1.6027 N.pl3   1  UNL1       -0.2761
     18 C          -7.2598   -2.5551   -2.3264 C.cat   1  UNL1        0.3762
     19 N          -7.0347   -3.6983   -2.8897 N.pl3   1  UNL1       -0.1298
     20 N          -8.4915   -1.8927   -2.3926 N.pl3   1  UNL1       -0.2893
     21 N          -3.4907    0.9722    0.8444 N.3     1  UNL1       -0.1823
     22 S          -3.9058    2.5304    1.5636 S.O2    1  UNL1        0.0341
     23 O          -3.0880    3.6258    0.9400 O.2     1  UNL1       -0.1579
     24 O          -3.5962    2.5040    3.0300 O.2     1  UNL1       -0.1579
     25 C          -5.6239    2.8961    1.3923 C.3     1  UNL1        0.1067
     26 C          -5.8548    3.1863   -0.0411 C.ar    1  UNL1       -0.0250
     27 C          -6.0048    4.5376   -0.3991 C.ar    1  UNL1       -0.0570
     28 C          -6.1680    4.9425   -1.7028 C.ar    1  UNL1       -0.0615
     29 C          -6.1899    4.0094   -2.7268 C.ar    1  UNL1       -0.0617
     30 C          -6.0453    2.6819   -2.4024 C.ar    1  UNL1       -0.0615
     31 C          -5.8792    2.2974   -1.0495 C.ar    1  UNL1       -0.0570
     32 C          -1.2889   -3.4327    2.4173 C.3     1  UNL1       -0.0197
     33 C          -1.0485   -3.8491    1.0129 C.3     1  UNL1       -0.0605
     34 C          -0.4710   -4.2930    3.3446 C.3     1  UNL1       -0.0605
     35 C           2.6291    0.7954    0.9467 C.3     1  UNL1        0.0817
     36 O           2.0650    1.4370    2.1517 O.3     1  UNL1       -0.3895
     37 C           4.0808    1.1528    1.0118 C.3     1  UNL1        0.0517
     38 C           5.0310    0.6738    0.0284 C.2     1  UNL1        0.2156
     39 O           4.7753    0.1562   -1.0592 O.2     1  UNL1       -0.2757
     40 N           6.4648    0.7833    0.2960 N.am    1  UNL1       -0.3149
     41 C           7.3654    0.2779   -0.7001 C.3     1  UNL1        0.0156
     42 C           8.7963    0.4519   -0.3444 C.3     1  UNL1       -0.0121
     43 C           9.2208    1.8741   -0.1891 C.ar    1  UNL1       -0.0459
     44 C           9.6659    2.5473   -1.3346 C.ar    1  UNL1       -0.0585
     45 C          10.0785    3.8575   -1.2721 C.ar    1  UNL1       -0.0615
     46 C          10.0585    4.5272   -0.0760 C.ar    1  UNL1       -0.0617
     47 C           9.6221    3.8672    1.0460 C.ar    1  UNL1       -0.0615
     48 C           9.2070    2.5581    1.0006 C.ar    1  UNL1       -0.0585
     49 H           0.8120    0.5672   -1.6595 H       1  UNL1        0.0232
     50 H           1.2236   -0.4137   -3.0553 H       1  UNL1        0.0232
     51 H           2.5478    0.4182   -2.2314 H       1  UNL1        0.0232
     52 H           0.6174   -1.5711   -0.8735 H       1  UNL1        0.0296
     53 H           2.7075   -2.4186   -2.8834 H       1  UNL1        0.0232
     54 H           0.9664   -2.7487   -2.7602 H       1  UNL1        0.0232
     55 H           2.1218   -3.4853   -1.5595 H       1  UNL1        0.0232
     56 H           3.5628   -1.7984   -0.3132 H       1  UNL1        0.0286
     57 H           2.1854   -2.5956    0.3755 H       1  UNL1        0.0286
     58 H           2.8852   -1.0717    1.9501 H       1  UNL1        0.0524
     59 H           0.1717   -0.2751    0.8374 H       1  UNL1        0.1491
     60 H          -1.1361   -1.8482    3.7526 H       1  UNL1        0.0597
     61 H          -1.6432   -0.7848    0.9775 H       1  UNL1        0.1495
     62 H          -4.8083    0.4363    2.3643 H       1  UNL1        0.0573
     63 H          -5.3744   -1.7485    1.5881 H       1  UNL1        0.0286
     64 H          -5.9667   -0.5964    0.4063 H       1  UNL1        0.0286
     65 H          -3.4066   -2.3322    0.2931 H       1  UNL1        0.0296
     66 H          -3.7817   -1.1073   -0.9357 H       1  UNL1        0.0296
     67 H          -5.7015   -3.3512   -0.1363 H       1  UNL1        0.0655
     68 H          -4.6440   -3.3827   -1.6284 H       1  UNL1        0.0655
     69 H          -6.1215   -0.9128   -1.5944 H       1  UNL1        0.2579
     70 H          -6.1154   -4.1835   -2.8389 H       1  UNL1        0.3062
     71 H          -8.9412   -1.4730   -1.5392 H       1  UNL1        0.2546
     72 H          -9.0415   -1.7654   -3.2696 H       1  UNL1        0.2546
     73 H          -2.4906    0.8997    0.7385 H       1  UNL1        0.1485
     74 H          -5.8833    3.7569    2.0266 H       1  UNL1        0.0565
     75 H          -6.2443    2.0260    1.7154 H       1  UNL1        0.0565
     76 H          -5.9912    5.2699    0.3956 H       1  UNL1        0.0621
     77 H          -6.2833    6.0123   -1.9339 H       1  UNL1        0.0618
     78 H          -6.3202    4.3676   -3.7476 H       1  UNL1        0.0618
     79 H          -6.0589    1.9453   -3.1666 H       1  UNL1        0.0618
     80 H          -5.7557    1.2552   -0.8347 H       1  UNL1        0.0621
     81 H          -2.3487   -3.5359    2.7116 H       1  UNL1        0.0318
     82 H          -0.0088   -4.2819    0.9541 H       1  UNL1        0.0233
     83 H          -1.7272   -4.6286    0.6427 H       1  UNL1        0.0233
     84 H          -1.0156   -2.9443    0.3488 H       1  UNL1        0.0233
     85 H           0.3980   -4.6919    2.7423 H       1  UNL1        0.0233
     86 H          -1.0930   -5.1524    3.6545 H       1  UNL1        0.0233
     87 H          -0.1144   -3.6619    4.1922 H       1  UNL1        0.0233
     88 H           2.1406    1.3242    0.1327 H       1  UNL1        0.0616
     89 H           2.3164    2.3834    1.9957 H       1  UNL1        0.2099
     90 H           4.1875    2.2991    0.9975 H       1  UNL1        0.0384
     91 H           4.4476    0.9433    2.0762 H       1  UNL1        0.0384
     92 H           6.7656    1.2140    1.1785 H       1  UNL1        0.1487
     93 H           7.1955   -0.8243   -0.8705 H       1  UNL1        0.0465
     94 H           7.2065    0.7617   -1.6962 H       1  UNL1        0.0465
     95 H           9.4492    0.0141   -1.1434 H       1  UNL1        0.0328
     96 H           9.0730   -0.1390    0.5746 H       1  UNL1        0.0328
     97 H           9.6760    2.0088   -2.2635 H       1  UNL1        0.0620
     98 H          10.4190    4.3483   -2.1878 H       1  UNL1        0.0618
     99 H          10.3841    5.5568   -0.0347 H       1  UNL1        0.0618
    100 H           9.5963    4.3831    2.0181 H       1  UNL1        0.0618
    101 H           8.8642    2.0244    1.8894 H       1  UNL1        0.0620
@<TRIPOS>BOND
     1     1     2    1
     2     2     3    1
     3     2     4    1
     4     4     5    1
     5     5     6    1
     6     6     7   am
     7     7     8    2
     8     7     9    1
     9     9    10    1
    10    10    11   am
    11    11    12    2
    12    11    13    1
    13    13    14    1
    14    14    15    1
    15    15    16    1
    16    16    17    1
    17    17    18    1
    18    18    19    2
    19    18    20    1
    20    13    21    1
    21    21    22    1
    22    22    23    2
    23    22    24    2
    24    22    25    1
    25    25    26    1
    26    26    27   ar
    27    27    28   ar
    28    28    29   ar
    29    29    30   ar
    30    30    31   ar
    31     9    32    1
    32    32    33    1
    33    32    34    1
    34     5    35    1
    35    35    36    1
    36    35    37    1
    37    37    38    1
    38    38    39    2
    39    38    40   am
    40    40    41    1
    41    41    42    1
    42    42    43    1
    43    43    44   ar
    44    44    45   ar
    45    45    46   ar
    46    46    47   ar
    47    47    48   ar
    48    31    26   ar
    49    48    43   ar
    50     1    49    1
    51     1    50    1
    52     1    51    1
    53     2    52    1
    54     3    53    1
    55     3    54    1
    56     3    55    1
    57     4    56    1
    58     4    57    1
    59     5    58    1
    60     6    59    1
    61     9    60    1
    62    10    61    1
    63    13    62    1
    64    14    63    1
    65    14    64    1
    66    15    65    1
    67    15    66    1
    68    16    67    1
    69    16    68    1
    70    17    69    1
    71    19    70    1
    72    20    71    1
    73    20    72    1
    74    21    73    1
    75    25    74    1
    76    25    75    1
    77    27    76    1
    78    28    77    1
    79    29    78    1
    80    30    79    1
    81    31    80    1
    82    32    81    1
    83    33    82    1
    84    33    83    1
    85    33    84    1
    86    34    85    1
    87    34    86    1
    88    34    87    1
    89    35    88    1
    90    36    89    1
    91    37    90    1
    92    37    91    1
    93    40    92    1
    94    41    93    1
    95    41    94    1
    96    42    95    1
    97    42    96    1
    98    44    97    1
    99    45    98    1
   100    46    99    1
   101    47   100    1
   102    48   101    1
