
     RDKit          3D

101102  0  0  0  0  0  0  0  0999 V2000
    1.6430   -0.1261   -2.0152 C   0  0  0  0  0  0  0  0  0  0  0  0
    1.6930   -1.3720   -1.2558 C   0  0  0  0  0  0  0  0  0  0  0  0
    1.8901   -2.5921   -2.1875 C   0  0  0  0  0  0  0  0  0  0  0  0
    2.5531   -1.5486   -0.0672 C   0  0  0  0  0  0  0  0  0  0  0  0
    2.3288   -0.6125    1.0798 C   0  0  2  0  0  0  0  0  0  0  0  0
    0.8559   -0.8099    1.3786 N   0  0  0  0  0  0  0  0  0  0  0  0
    0.4759   -1.7099    2.3894 C   0  0  0  0  0  0  0  0  0  0  0  0
    1.3999   -2.2947    3.0184 O   0  0  0  0  0  0  0  0  0  0  0  0
   -0.9366   -1.9480    2.6785 C   0  0  1  0  0  0  0  0  0  0  0  0
   -1.8788   -1.1608    1.9198 N   0  0  0  0  0  0  0  0  0  0  0  0
   -3.1854   -0.8825    2.3840 C   0  0  0  0  0  0  0  0  0  0  0  0
   -3.5264   -1.3747    3.4888 O   0  0  0  0  0  0  0  0  0  0  0  0
   -4.1850   -0.0239    1.5979 C   0  0  2  0  0  0  0  0  0  0  0  0
   -5.0395   -0.9819    0.7980 C   0  0  0  0  0  0  0  0  0  0  0  0
   -4.2402   -1.8008   -0.1836 C   0  0  0  0  0  0  0  0  0  0  0  0
   -5.1884   -2.7306   -0.9032 C   0  0  0  0  0  0  0  0  0  0  0  0
   -6.1827   -1.9447   -1.6027 N   0  0  0  0  0  0  0  0  0  0  0  0
   -7.2598   -2.5551   -2.3264 C   0  0  0  0  0  0  0  0  0  0  0  0
   -7.0347   -3.6983   -2.8897 N   0  0  0  0  0  0  0  0  0  0  0  0
   -8.4915   -1.8927   -2.3926 N   0  0  0  0  0  0  0  0  0  0  0  0
   -3.4907    0.9722    0.8444 N   0  0  0  0  0  0  0  0  0  0  0  0
   -3.9058    2.5304    1.5636 S   0  0  0  0  0  6  0  0  0  0  0  0
   -3.0880    3.6258    0.9400 O   0  0  0  0  0  0  0  0  0  0  0  0
   -3.5962    2.5040    3.0300 O   0  0  0  0  0  0  0  0  0  0  0  0
   -5.6239    2.8961    1.3923 C   0  0  0  0  0  0  0  0  0  0  0  0
   -5.8548    3.1863   -0.0411 C   0  0  0  0  0  0  0  0  0  0  0  0
   -6.0048    4.5376   -0.3991 C   0  0  0  0  0  0  0  0  0  0  0  0
   -6.1680    4.9425   -1.7028 C   0  0  0  0  0  0  0  0  0  0  0  0
   -6.1899    4.0094   -2.7268 C   0  0  0  0  0  0  0  0  0  0  0  0
   -6.0453    2.6819   -2.4024 C   0  0  0  0  0  0  0  0  0  0  0  0
   -5.8792    2.2974   -1.0495 C   0  0  0  0  0  0  0  0  0  0  0  0
   -1.2889   -3.4327    2.4173 C   0  0  0  0  0  0  0  0  0  0  0  0
   -1.0485   -3.8491    1.0129 C   0  0  0  0  0  0  0  0  0  0  0  0
   -0.4710   -4.2930    3.3446 C   0  0  0  0  0  0  0  0  0  0  0  0
    2.6291    0.7954    0.9467 C   0  0  1  0  0  0  0  0  0  0  0  0
    2.0650    1.4370    2.1517 O   0  0  0  0  0  0  0  0  0  0  0  0
    4.0808    1.1528    1.0118 C   0  0  0  0  0  0  0  0  0  0  0  0
    5.0310    0.6738    0.0284 C   0  0  0  0  0  0  0  0  0  0  0  0
    4.7753    0.1562   -1.0592 O   0  0  0  0  0  0  0  0  0  0  0  0
    6.4648    0.7833    0.2960 N   0  0  0  0  0  0  0  0  0  0  0  0
    7.3654    0.2779   -0.7001 C   0  0  0  0  0  0  0  0  0  0  0  0
    8.7963    0.4519   -0.3444 C   0  0  0  0  0  0  0  0  0  0  0  0
    9.2208    1.8741   -0.1891 C   0  0  0  0  0  0  0  0  0  0  0  0
    9.6659    2.5473   -1.3346 C   0  0  0  0  0  0  0  0  0  0  0  0
   10.0785    3.8575   -1.2721 C   0  0  0  0  0  0  0  0  0  0  0  0
   10.0585    4.5272   -0.0760 C   0  0  0  0  0  0  0  0  0  0  0  0
    9.6221    3.8672    1.0460 C   0  0  0  0  0  0  0  0  0  0  0  0
    9.2070    2.5581    1.0006 C   0  0  0  0  0  0  0  0  0  0  0  0
    0.8120    0.5672   -1.6595 H   0  0  0  0  0  0  0  0  0  0  0  0
    1.2236   -0.4137   -3.0553 H   0  0  0  0  0  0  0  0  0  0  0  0
    2.5478    0.4182   -2.2314 H   0  0  0  0  0  0  0  0  0  0  0  0
    0.6174   -1.5711   -0.8735 H   0  0  0  0  0  0  0  0  0  0  0  0
    2.7075   -2.4186   -2.8834 H   0  0  0  0  0  0  0  0  0  0  0  0
    0.9664   -2.7487   -2.7602 H   0  0  0  0  0  0  0  0  0  0  0  0
    2.1218   -3.4853   -1.5595 H   0  0  0  0  0  0  0  0  0  0  0  0
    3.5628   -1.7984   -0.3132 H   0  0  0  0  0  0  0  0  0  0  0  0
    2.1854   -2.5956    0.3755 H   0  0  0  0  0  0  0  0  0  0  0  0
    2.8852   -1.0717    1.9501 H   0  0  0  0  0  0  0  0  0  0  0  0
    0.1717   -0.2751    0.8374 H   0  0  0  0  0  0  0  0  0  0  0  0
   -1.1361   -1.8482    3.7526 H   0  0  0  0  0  0  0  0  0  0  0  0
   -1.6432   -0.7848    0.9775 H   0  0  0  0  0  0  0  0  0  0  0  0
   -4.8083    0.4363    2.3643 H   0  0  0  0  0  0  0  0  0  0  0  0
   -5.3744   -1.7485    1.5881 H   0  0  0  0  0  0  0  0  0  0  0  0
   -5.9667   -0.5964    0.4063 H   0  0  0  0  0  0  0  0  0  0  0  0
   -3.4066   -2.3322    0.2931 H   0  0  0  0  0  0  0  0  0  0  0  0
   -3.7817   -1.1073   -0.9357 H   0  0  0  0  0  0  0  0  0  0  0  0
   -5.7015   -3.3512   -0.1363 H   0  0  0  0  0  0  0  0  0  0  0  0
   -4.6440   -3.3827   -1.6284 H   0  0  0  0  0  0  0  0  0  0  0  0
   -6.1215   -0.9128   -1.5944 H   0  0  0  0  0  0  0  0  0  0  0  0
   -6.1154   -4.1835   -2.8389 H   0  0  0  0  0  0  0  0  0  0  0  0
   -8.9412   -1.4730   -1.5392 H   0  0  0  0  0  0  0  0  0  0  0  0
   -9.0415   -1.7654   -3.2696 H   0  0  0  0  0  0  0  0  0  0  0  0
   -2.4906    0.8997    0.7385 H   0  0  0  0  0  0  0  0  0  0  0  0
   -5.8833    3.7569    2.0266 H   0  0  0  0  0  0  0  0  0  0  0  0
   -6.2443    2.0260    1.7154 H   0  0  0  0  0  0  0  0  0  0  0  0
   -5.9912    5.2699    0.3956 H   0  0  0  0  0  0  0  0  0  0  0  0
   -6.2833    6.0123   -1.9339 H   0  0  0  0  0  0  0  0  0  0  0  0
   -6.3202    4.3676   -3.7476 H   0  0  0  0  0  0  0  0  0  0  0  0
   -6.0589    1.9453   -3.1666 H   0  0  0  0  0  0  0  0  0  0  0  0
   -5.7557    1.2552   -0.8347 H   0  0  0  0  0  0  0  0  0  0  0  0
   -2.3487   -3.5359    2.7116 H   0  0  0  0  0  0  0  0  0  0  0  0
   -0.0088   -4.2819    0.9541 H   0  0  0  0  0  0  0  0  0  0  0  0
   -1.7272   -4.6286    0.6427 H   0  0  0  0  0  0  0  0  0  0  0  0
   -1.0156   -2.9443    0.3488 H   0  0  0  0  0  0  0  0  0  0  0  0
    0.3980   -4.6919    2.7423 H   0  0  0  0  0  0  0  0  0  0  0  0
   -1.0930   -5.1524    3.6545 H   0  0  0  0  0  0  0  0  0  0  0  0
   -0.1144   -3.6619    4.1922 H   0  0  0  0  0  0  0  0  0  0  0  0
    2.1406    1.3242    0.1327 H   0  0  0  0  0  0  0  0  0  0  0  0
    2.3164    2.3834    1.9957 H   0  0  0  0  0  0  0  0  0  0  0  0
    4.1875    2.2991    0.9975 H   0  0  0  0  0  0  0  0  0  0  0  0
    4.4476    0.9433    2.0762 H   0  0  0  0  0  0  0  0  0  0  0  0
    6.7656    1.2140    1.1785 H   0  0  0  0  0  0  0  0  0  0  0  0
    7.1955   -0.8243   -0.8705 H   0  0  0  0  0  0  0  0  0  0  0  0
    7.2065    0.7617   -1.6962 H   0  0  0  0  0  0  0  0  0  0  0  0
    9.4492    0.0141   -1.1434 H   0  0  0  0  0  0  0  0  0  0  0  0
    9.0730   -0.1390    0.5746 H   0  0  0  0  0  0  0  0  0  0  0  0
    9.6760    2.0088   -2.2635 H   0  0  0  0  0  0  0  0  0  0  0  0
   10.4190    4.3483   -2.1878 H   0  0  0  0  0  0  0  0  0  0  0  0
   10.3841    5.5568   -0.0347 H   0  0  0  0  0  0  0  0  0  0  0  0
    9.5963    4.3831    2.0181 H   0  0  0  0  0  0  0  0  0  0  0  0
    8.8642    2.0244    1.8894 H   0  0  0  0  0  0  0  0  0  0  0  0
  1  2  1  0
  2  3  1  0
  2  4  1  0
  4  5  1  0
  5  6  1  0
  6  7  1  0
  7  8  2  0
  7  9  1  0
  9 10  1  0
 10 11  1  0
 11 12  2  0
 11 13  1  0
 13 14  1  0
 14 15  1  0
 15 16  1  0
 16 17  1  0
 17 18  1  0
 18 19  2  3
 18 20  1  0
 13 21  1  0
 21 22  1  0
 22 23  2  0
 22 24  2  0
 22 25  1  0
 25 26  1  0
 26 27  2  0
 27 28  1  0
 28 29  2  0
 29 30  1  0
 30 31  2  0
  9 32  1  0
 32 33  1  0
 32 34  1  0
  5 35  1  0
 35 36  1  0
 35 37  1  0
 37 38  1  0
 38 39  2  0
 38 40  1  0
 40 41  1  0
 41 42  1  0
 42 43  1  0
 43 44  2  0
 44 45  1  0
 45 46  2  0
 46 47  1  0
 47 48  2  0
 31 26  1  0
 48 43  1  0
  1 49  1  0
  1 50  1  0
  1 51  1  0
  2 52  1  0
  3 53  1  0
  3 54  1  0
  3 55  1  0
  4 56  1  0
  4 57  1  0
  5 58  1  1
  6 59  1  0
  9 60  1  1
 10 61  1  0
 13 62  1  1
 14 63  1  0
 14 64  1  0
 15 65  1  0
 15 66  1  0
 16 67  1  0
 16 68  1  0
 17 69  1  0
 19 70  1  0
 20 71  1  0
 20 72  1  0
 21 73  1  0
 25 74  1  0
 25 75  1  0
 27 76  1  0
 28 77  1  0
 29 78  1  0
 30 79  1  0
 31 80  1  0
 32 81  1  0
 33 82  1  0
 33 83  1  0
 33 84  1  0
 34 85  1  0
 34 86  1  0
 34 87  1  0
 35 88  1  6
 36 89  1  0
 37 90  1  0
 37 91  1  0
 40 92  1  0
 41 93  1  0
 41 94  1  0
 42 95  1  0
 42 96  1  0
 44 97  1  0
 45 98  1  0
 46 99  1  0
 47100  1  0
 48101  1  0
M  END
$$$$
