@<TRIPOS>MOLECULE
*****
 46 48 0 0 0
SMALL
GASTEIGER

@<TRIPOS>ATOM
      1 O          -1.0337    1.9083   -0.6680 O.2     1  UNL1       -0.2738
      2 C          -0.3147    0.9929   -0.1393 C.2     1  UNL1        0.2336
      3 N          -0.7456   -0.3389   -0.1996 N.am    1  UNL1       -0.3135
      4 C          -1.9291   -0.8301   -0.7768 C.3     1  UNL1        0.0146
      5 C          -3.2122   -0.4769   -0.1497 C.3     1  UNL1       -0.0232
      6 C          -4.3382   -1.1774   -0.9793 C.3     1  UNL1       -0.0361
      7 C          -5.4709   -1.4412   -0.0028 C.3     1  UNL1       -0.0038
      8 N          -5.4272   -0.3682    1.0021 N.3     1  UNL1       -0.3160
      9 C          -5.1301    0.8922    0.3923 C.3     1  UNL1       -0.0038
     10 C          -3.6327    0.9273   -0.0202 C.3     1  UNL1       -0.0361
     11 C           0.9407    1.3464    0.5202 C.3     1  UNL1        0.1038
     12 C           1.8555    1.9862   -0.6200 C.3     1  UNL1       -0.0239
     13 C           3.2760    1.5278   -0.4453 C.3     1  UNL1       -0.0282
     14 C           3.5899    0.0761   -0.3723 C.3     1  UNL1        0.0727
     15 C           2.1565   -0.5899   -0.3435 C.3     1  UNL1        0.0381
     16 N           1.8401    0.3041    0.8158 N.am    1  UNL1       -0.2704
     17 C           2.7597   -0.1770    1.7467 C.2     1  UNL1        0.3305
     18 O           2.6202   -0.3797    2.9622 O.2     1  UNL1       -0.2502
     19 N           3.9986   -0.4067    0.9719 N.am    1  UNL1       -0.1323
     20 O           5.1540   -0.9160    1.4026 O.3     1  UNL1       -0.0962
     21 S           6.3152   -1.0172    0.2302 S.O2    1  UNL1        0.2271
     22 O           6.6334    0.3619   -0.2814 O.2     1  UNL1       -0.1164
     23 O           5.8590   -1.9321   -0.8694 O.2     1  UNL1       -0.1164
     24 O           7.7197   -1.6329    0.9419 O.3     1  UNL1       -0.2297
     25 H          -0.0937   -1.0830    0.2691 H       1  UNL1        0.1487
     26 H          -1.8448   -1.9680   -0.8461 H       1  UNL1        0.0465
     27 H          -1.9921   -0.4959   -1.8647 H       1  UNL1        0.0465
     28 H          -3.2839   -0.9306    0.8910 H       1  UNL1        0.0317
     29 H          -3.9486   -2.1357   -1.3507 H       1  UNL1        0.0281
     30 H          -4.6370   -0.5228   -1.7926 H       1  UNL1        0.0281
     31 H          -5.2322   -2.3765    0.5354 H       1  UNL1        0.0424
     32 H          -6.4513   -1.4717   -0.4909 H       1  UNL1        0.0424
     33 H          -6.2731   -0.3540    1.5788 H       1  UNL1        0.1219
     34 H          -5.7484    1.0775   -0.5124 H       1  UNL1        0.0424
     35 H          -5.2895    1.7154    1.0969 H       1  UNL1        0.0424
     36 H          -3.5798    1.5438   -0.9426 H       1  UNL1        0.0281
     37 H          -3.1244    1.4553    0.7950 H       1  UNL1        0.0281
     38 H           0.8292    2.1085    1.3154 H       1  UNL1        0.0597
     39 H           1.7774    3.0568   -0.4724 H       1  UNL1        0.0288
     40 H           1.4347    1.6593   -1.5450 H       1  UNL1        0.0288
     41 H           3.8378    1.9475   -1.3030 H       1  UNL1        0.0285
     42 H           3.6746    2.0233    0.4654 H       1  UNL1        0.0285
     43 H           4.1781   -0.2666   -1.1794 H       1  UNL1        0.0542
     44 H           1.6064   -0.3385   -1.2342 H       1  UNL1        0.0484
     45 H           2.2341   -1.6352   -0.0714 H       1  UNL1        0.0484
     46 H           8.4422   -1.6475    0.2642 H       1  UNL1        0.2470
@<TRIPOS>BOND
     1     1     2    2
     2     2     3   am
     3     3     4    1
     4     4     5    1
     5     5     6    1
     6     6     7    1
     7     7     8    1
     8     8     9    1
     9     9    10    1
    10     2    11    1
    11    11    12    1
    12    12    13    1
    13    13    14    1
    14    14    15    1
    15    15    16    1
    16    16    17   am
    17    17    18    2
    18    17    19   am
    19    19    20    1
    20    20    21    1
    21    21    22    2
    22    21    23    2
    23    21    24    1
    24    10     5    1
    25    16    11    1
    26    19    14    1
    27     3    25    1
    28     4    26    1
    29     4    27    1
    30     5    28    1
    31     6    29    1
    32     6    30    1
    33     7    31    1
    34     7    32    1
    35     8    33    1
    36     9    34    1
    37     9    35    1
    38    10    36    1
    39    10    37    1
    40    11    38    1
    41    12    39    1
    42    12    40    1
    43    13    41    1
    44    13    42    1
    45    14    43    1
    46    15    44    1
    47    15    45    1
    48    24    46    1
