
     RDKit          3D

 26 26  0  0  0  0  0  0  0  0999 V2000
    3.8465   -1.8042   -0.3134 N   0  0  0  0  0  0  0  0  0  0  0  0
    3.5650   -0.2090    0.2854 S   0  0  0  0  0  0  0  0  0  0  0  0
    4.3836    0.7996   -0.5095 O   0  0  0  0  0  0  0  0  0  0  0  0
    4.1138   -0.0936    1.6989 O   0  0  0  0  0  0  0  0  0  0  0  0
    1.8683    0.2134    0.2330 C   0  0  0  0  0  0  0  0  0  0  0  0
    1.0167   -0.0397    1.2881 C   0  0  0  0  0  0  0  0  0  0  0  0
   -0.3349    0.3047    1.2305 C   0  0  0  0  0  0  0  0  0  0  0  0
   -0.8501    0.9115    0.1044 C   0  0  0  0  0  0  0  0  0  0  0  0
   -2.2246    1.3382   -0.1311 C   0  0  0  0  0  0  0  0  0  0  0  0
   -3.1266    0.3291   -0.7613 C   0  0  0  0  0  0  0  0  0  0  0  0
   -3.2466   -0.8857    0.0671 C   0  0  0  0  0  0  0  0  0  0  0  0
   -2.9517   -1.6397    1.1661 O   0  0  0  0  0  0  0  0  0  0  0  0
   -4.0431   -1.6702   -0.5363 O   0  0  0  0  0  0  0  0  0  0  0  0
    0.0046    1.1714   -0.9683 C   0  0  0  0  0  0  0  0  0  0  0  0
    1.3520    0.8251   -0.9039 C   0  0  0  0  0  0  0  0  0  0  0  0
    4.3974   -2.3655    0.4040 H   0  0  0  0  0  0  0  0  0  0  0  0
    4.4591   -1.7245   -1.1763 H   0  0  0  0  0  0  0  0  0  0  0  0
    1.3886   -0.5159    2.1896 H   0  0  0  0  0  0  0  0  0  0  0  0
   -1.0357    0.1265    2.0305 H   0  0  0  0  0  0  0  0  0  0  0  0
   -2.3004    2.2816   -0.7104 H   0  0  0  0  0  0  0  0  0  0  0  0
   -2.6737    1.5658    0.8770 H   0  0  0  0  0  0  0  0  0  0  0  0
   -4.1323    0.8218   -0.8274 H   0  0  0  0  0  0  0  0  0  0  0  0
   -2.8436    0.0915   -1.8134 H   0  0  0  0  0  0  0  0  0  0  0  0
   -2.3754   -2.4863    1.0942 H   0  0  0  0  0  0  0  0  0  0  0  0
   -0.2979    1.6429   -1.8967 H   0  0  0  0  0  0  0  0  0  0  0  0
    2.0408    1.0111   -1.7140 H   0  0  0  0  0  0  0  0  0  0  0  0
  1  2  1  0
  2  3  2  0
  2  4  2  0
  2  5  1  0
  5  6  2  0
  6  7  1  0
  7  8  2  0
  8  9  1  0
  9 10  1  0
 10 11  1  0
 11 12  1  0
 11 13  2  0
  8 14  1  0
 14 15  2  0
 15  5  1  0
  1 16  1  0
  1 17  1  0
  6 18  1  0
  7 19  1  0
  9 20  1  0
  9 21  1  0
 10 22  1  0
 10 23  1  0
 12 24  1  0
 14 25  1  0
 15 26  1  0
M  END
$$$$
