@<TRIPOS>MOLECULE
*****
 26 26 0 0 0
SMALL
GASTEIGER

@<TRIPOS>ATOM
      1 N           3.8465   -1.8042   -0.3134 N.3     1  UNL1       -0.2035
      2 S           3.5650   -0.2090    0.2854 S.O2    1  UNL1        0.0559
      3 O           4.3836    0.7996   -0.5095 O.2     1  UNL1       -0.1533
      4 O           4.1138   -0.0936    1.6989 O.2     1  UNL1       -0.1533
      5 C           1.8683    0.2134    0.2330 C.ar    1  UNL1        0.1050
      6 C           1.0167   -0.0397    1.2881 C.ar    1  UNL1       -0.0351
      7 C          -0.3349    0.3047    1.2305 C.ar    1  UNL1       -0.0567
      8 C          -0.8501    0.9115    0.1044 C.ar    1  UNL1       -0.0467
      9 C          -2.2246    1.3382   -0.1311 C.3     1  UNL1       -0.0176
     10 C          -3.1266    0.3291   -0.7613 C.3     1  UNL1        0.0487
     11 C          -3.2466   -0.8857    0.0671 C.2     1  UNL1        0.3050
     12 O          -2.9517   -1.6397    1.1661 O.3     1  UNL1       -0.4806
     13 O          -4.0431   -1.6702   -0.5363 O.2     1  UNL1       -0.2510
     14 C           0.0046    1.1714   -0.9683 C.ar    1  UNL1       -0.0567
     15 C           1.3520    0.8251   -0.9039 C.ar    1  UNL1       -0.0351
     16 H           4.3974   -2.3655    0.4040 H       1  UNL1        0.1442
     17 H           4.4591   -1.7245   -1.1763 H       1  UNL1        0.1442
     18 H           1.3886   -0.5159    2.1896 H       1  UNL1        0.0637
     19 H          -1.0357    0.1265    2.0305 H       1  UNL1        0.0621
     20 H          -2.3004    2.2816   -0.7104 H       1  UNL1        0.0318
     21 H          -2.6737    1.5658    0.8770 H       1  UNL1        0.0318
     22 H          -4.1323    0.8218   -0.8274 H       1  UNL1        0.0381
     23 H          -2.8436    0.0915   -1.8134 H       1  UNL1        0.0381
     24 H          -2.3754   -2.4863    1.0942 H       1  UNL1        0.2951
     25 H          -0.2979    1.6429   -1.8967 H       1  UNL1        0.0621
     26 H           2.0408    1.0111   -1.7140 H       1  UNL1        0.0637
@<TRIPOS>BOND
     1     1     2    1
     2     2     3    2
     3     2     4    2
     4     2     5    1
     5     5     6   ar
     6     6     7   ar
     7     7     8   ar
     8     8     9    1
     9     9    10    1
    10    10    11    1
    11    11    12    1
    12    11    13    2
    13     8    14   ar
    14    14    15   ar
    15    15     5   ar
    16     1    16    1
    17     1    17    1
    18     6    18    1
    19     7    19    1
    20     9    20    1
    21     9    21    1
    22    10    22    1
    23    10    23    1
    24    12    24    1
    25    14    25    1
    26    15    26    1
