@<TRIPOS>MOLECULE
*****
 34 35 0 0 0
SMALL
GASTEIGER

@<TRIPOS>ATOM
      1 N           5.6603    1.8149    1.5314 N.3     1  UNL1       -0.2035
      2 S           5.5552    0.3305    0.6832 S.O2    1  UNL1        0.0559
      3 O           6.2156   -0.7345    1.5103 O.2     1  UNL1       -0.1533
      4 O           6.3121    0.4555   -0.6024 O.2     1  UNL1       -0.1533
      5 C           3.8868   -0.0786    0.3735 C.ar    1  UNL1        0.1050
      6 C           3.2282    0.3177   -0.7734 C.ar    1  UNL1       -0.0346
      7 C           1.9084   -0.0106   -1.0051 C.ar    1  UNL1       -0.0478
      8 C           1.1736   -0.7538   -0.1022 C.ar    1  UNL1        0.0368
      9 C           1.8289   -1.1616    1.0638 C.ar    1  UNL1       -0.0478
     10 C           3.1506   -0.8209    1.2740 C.ar    1  UNL1       -0.0346
     11 C          -0.2212   -1.1647   -0.2291 C.2     1  UNL1        0.2443
     12 O          -0.8125   -1.8554    0.6724 O.2     1  UNL1       -0.2702
     13 N          -1.0545   -0.8528   -1.3354 N.am    1  UNL1       -0.3072
     14 C          -2.4179   -1.1951   -1.5683 C.3     1  UNL1        0.0373
     15 C          -3.3903   -0.3804   -0.7890 C.ar    1  UNL1       -0.0247
     16 C          -3.8502    0.7961   -1.3417 C.ar    1  UNL1       -0.0187
     17 C          -4.7577    1.6114   -0.6896 C.ar    1  UNL1        0.1616
     18 F          -5.2483    2.7805   -1.1793 F       1  UNL1       -0.2024
     19 C          -5.1954    1.2078    0.5458 C.ar    1  UNL1        0.1933
     20 F          -6.0868    1.9532    1.2472 F       1  UNL1       -0.1995
     21 C          -4.7779    0.0389    1.1632 C.ar    1  UNL1        0.1616
     22 F          -5.2014   -0.3743    2.3832 F       1  UNL1       -0.2024
     23 C          -3.8599   -0.7354    0.4459 C.ar    1  UNL1       -0.0187
     24 H           6.0896    2.5478    0.9387 H       1  UNL1        0.1442
     25 H           4.6790    2.1502    1.7694 H       1  UNL1        0.1442
     26 H           3.7676    0.9032   -1.5108 H       1  UNL1        0.0637
     27 H           1.3849    0.2911   -1.8921 H       1  UNL1        0.0626
     28 H           1.3025   -1.7540    1.8203 H       1  UNL1        0.0626
     29 H           3.5980   -1.1689    2.1975 H       1  UNL1        0.0637
     30 H          -0.5555   -0.2780   -2.0808 H       1  UNL1        0.1493
     31 H          -2.6685   -1.0921   -2.6383 H       1  UNL1        0.0512
     32 H          -2.5910   -2.2839   -1.3423 H       1  UNL1        0.0512
     33 H          -3.5215    1.1371   -2.3140 H       1  UNL1        0.0650
     34 H          -3.5306   -1.6409    0.9112 H       1  UNL1        0.0650
@<TRIPOS>BOND
     1     1     2    1
     2     2     3    2
     3     2     4    2
     4     2     5    1
     5     5     6   ar
     6     6     7   ar
     7     7     8   ar
     8     8     9   ar
     9     9    10   ar
    10     8    11    1
    11    11    12    2
    12    11    13   am
    13    13    14    1
    14    14    15    1
    15    15    16   ar
    16    16    17   ar
    17    17    18    1
    18    17    19   ar
    19    19    20    1
    20    19    21   ar
    21    21    22    1
    22    21    23   ar
    23    10     5   ar
    24    23    15   ar
    25     1    24    1
    26     1    25    1
    27     6    26    1
    28     7    27    1
    29     9    28    1
    30    10    29    1
    31    13    30    1
    32    14    31    1
    33    14    32    1
    34    16    33    1
    35    23    34    1
