
     RDKit          3D

 33 35  0  0  0  0  0  0  0  0999 V2000
    4.6660   -1.3015   -1.8204 O   0  0  0  0  0  0  0  0  0  0  0  0
    3.9410   -0.4015   -1.3319 C   0  0  0  0  0  0  0  0  0  0  0  0
    4.3502    1.0100   -1.2533 C   0  0  0  0  0  0  0  0  0  0  0  0
    3.8963    1.5576    0.1044 C   0  0  0  0  0  0  0  0  0  0  0  0
    2.5293    1.2875    0.3189 O   0  0  0  0  0  0  0  0  0  0  0  0
    1.9428    0.0724    0.0033 C   0  0  0  0  0  0  0  0  0  0  0  0
    0.6976   -0.2927    0.4904 C   0  0  0  0  0  0  0  0  0  0  0  0
    0.0840   -1.4898    0.1987 C   0  0  0  0  0  0  0  0  0  0  0  0
   -1.1023   -1.9346    0.6106 O   0  0  0  0  0  0  0  0  0  0  0  0
   -2.1504   -1.5629    1.3667 C   0  0  0  0  0  0  0  0  0  0  0  0
   -2.8665   -0.3400    0.9182 C   0  0  0  0  0  0  0  0  0  0  0  0
   -2.5794    0.8870    1.4272 C   0  0  0  0  0  0  0  0  0  0  0  0
   -3.2818    1.9973    0.9595 C   0  0  0  0  0  0  0  0  0  0  0  0
   -4.2601    1.9147    0.0004 C   0  0  0  0  0  0  0  0  0  0  0  0
   -5.0983    3.3595   -0.5351 Cl  0  0  0  0  0  0  0  0  0  0  0  0
   -4.5450    0.6720   -0.5091 C   0  0  0  0  0  0  0  0  0  0  0  0
   -3.8640   -0.4369   -0.0619 C   0  0  0  0  0  0  0  0  0  0  0  0
    0.8250   -2.3363   -0.6469 C   0  0  0  0  0  0  0  0  0  0  0  0
    2.0611   -2.0007   -1.1442 C   0  0  0  0  0  0  0  0  0  0  0  0
    2.6331   -0.7878   -0.8219 C   0  0  0  0  0  0  0  0  0  0  0  0
    5.4610    1.0316   -1.2398 H   0  0  0  0  0  0  0  0  0  0  0  0
    3.9107    1.6267   -2.0462 H   0  0  0  0  0  0  0  0  0  0  0  0
    4.5454    1.1069    0.8714 H   0  0  0  0  0  0  0  0  0  0  0  0
    4.1012    2.6323    0.0802 H   0  0  0  0  0  0  0  0  0  0  0  0
    0.2091    0.3978    1.1238 H   0  0  0  0  0  0  0  0  0  0  0  0
   -1.9554   -1.4126    2.4552 H   0  0  0  0  0  0  0  0  0  0  0  0
   -2.9339   -2.3814    1.3424 H   0  0  0  0  0  0  0  0  0  0  0  0
   -1.8150    1.0004    2.1939 H   0  0  0  0  0  0  0  0  0  0  0  0
   -3.0146    2.9624    1.3995 H   0  0  0  0  0  0  0  0  0  0  0  0
   -5.3138    0.5683   -1.2700 H   0  0  0  0  0  0  0  0  0  0  0  0
   -4.0876   -1.4239   -0.4640 H   0  0  0  0  0  0  0  0  0  0  0  0
    0.3969   -3.3029   -0.9188 H   0  0  0  0  0  0  0  0  0  0  0  0
    2.6174   -2.6787   -1.8012 H   0  0  0  0  0  0  0  0  0  0  0  0
  1  2  2  0
  2  3  1  0
  3  4  1  0
  4  5  1  0
  5  6  1  0
  6  7  2  0
  7  8  1  0
  8  9  1  0
  9 10  1  0
 10 11  1  0
 11 12  2  0
 12 13  1  0
 13 14  2  0
 14 15  1  0
 14 16  1  0
 16 17  2  0
  8 18  2  0
 18 19  1  0
 19 20  2  0
 20  2  1  0
 20  6  1  0
 17 11  1  0
  3 21  1  0
  3 22  1  0
  4 23  1  0
  4 24  1  0
  7 25  1  0
 10 26  1  0
 10 27  1  0
 12 28  1  0
 13 29  1  0
 16 30  1  0
 17 31  1  0
 18 32  1  0
 19 33  1  0
M  END
$$$$
