@<TRIPOS>MOLECULE
*****
 33 35 0 0 0
SMALL
GASTEIGER

@<TRIPOS>ATOM
      1 O           4.6660   -1.3015   -1.8204 O.2     1  UNL1       -0.2918
      2 C           3.9410   -0.4015   -1.3319 C.2     1  UNL1        0.1699
      3 C           4.3502    1.0100   -1.2533 C.3     1  UNL1        0.0448
      4 C           3.8963    1.5576    0.1044 C.3     1  UNL1        0.0966
      5 O           2.5293    1.2875    0.3189 O.3     1  UNL1       -0.4907
      6 C           1.9428    0.0724    0.0033 C.ar    1  UNL1        0.1344
      7 C           0.6976   -0.2927    0.4904 C.ar    1  UNL1        0.0225
      8 C           0.0840   -1.4898    0.1987 C.ar    1  UNL1        0.1245
      9 O          -1.1023   -1.9346    0.6106 O.3     1  UNL1       -0.4873
     10 C          -2.1504   -1.5629    1.3667 C.3     1  UNL1        0.1146
     11 C          -2.8665   -0.3400    0.9182 C.ar    1  UNL1       -0.0103
     12 C          -2.5794    0.8870    1.4272 C.ar    1  UNL1       -0.0540
     13 C          -3.2818    1.9973    0.9595 C.ar    1  UNL1       -0.0430
     14 C          -4.2601    1.9147    0.0004 C.ar    1  UNL1        0.0410
     15 CL         -5.0983    3.3595   -0.5351 Cl      1  UNL1       -0.0835
     16 C          -4.5450    0.6720   -0.5091 C.ar    1  UNL1       -0.0430
     17 C          -3.8640   -0.4369   -0.0619 C.ar    1  UNL1       -0.0540
     18 C           0.8250   -2.3363   -0.6469 C.ar    1  UNL1       -0.0190
     19 C           2.0611   -2.0007   -1.1442 C.ar    1  UNL1       -0.0443
     20 C           2.6331   -0.7878   -0.8219 C.ar    1  UNL1        0.0593
     21 H           5.4610    1.0316   -1.2398 H       1  UNL1        0.0378
     22 H           3.9107    1.6267   -2.0462 H       1  UNL1        0.0378
     23 H           4.5454    1.1069    0.8714 H       1  UNL1        0.0701
     24 H           4.1012    2.6323    0.0802 H       1  UNL1        0.0701
     25 H           0.2091    0.3978    1.1238 H       1  UNL1        0.0691
     26 H          -1.9554   -1.4126    2.4552 H       1  UNL1        0.0748
     27 H          -2.9339   -2.3814    1.3424 H       1  UNL1        0.0748
     28 H          -1.8150    1.0004    2.1939 H       1  UNL1        0.0622
     29 H          -3.0146    2.9624    1.3995 H       1  UNL1        0.0632
     30 H          -5.3138    0.5683   -1.2700 H       1  UNL1        0.0632
     31 H          -4.0876   -1.4239   -0.4640 H       1  UNL1        0.0622
     32 H           0.3969   -3.3029   -0.9188 H       1  UNL1        0.0654
     33 H           2.6174   -2.6787   -1.8012 H       1  UNL1        0.0627
@<TRIPOS>BOND
     1     1     2    2
     2     2     3    1
     3     3     4    1
     4     4     5    1
     5     5     6    1
     6     6     7   ar
     7     7     8   ar
     8     8     9    1
     9     9    10    1
    10    10    11    1
    11    11    12   ar
    12    12    13   ar
    13    13    14   ar
    14    14    15    1
    15    14    16   ar
    16    16    17   ar
    17     8    18   ar
    18    18    19   ar
    19    19    20   ar
    20    20     2    1
    21    20     6   ar
    22    17    11   ar
    23     3    21    1
    24     3    22    1
    25     4    23    1
    26     4    24    1
    27     7    25    1
    28    10    26    1
    29    10    27    1
    30    12    28    1
    31    13    29    1
    32    16    30    1
    33    17    31    1
    34    18    32    1
    35    19    33    1
