@<TRIPOS>MOLECULE
*****
 41 44 0 0 0
SMALL
GASTEIGER

@<TRIPOS>ATOM
      1 O          -5.2549   -1.1323    3.4814 O.3     1  UNL1       -0.4803
      2 C          -4.5761   -0.5190    2.4445 C.2     1  UNL1        0.3107
      3 O          -5.1353    0.4449    1.8558 O.2     1  UNL1       -0.2506
      4 C          -3.2277   -1.0310    2.0841 C.3     1  UNL1        0.0892
      5 C          -2.6320   -0.2792    0.9667 C.ar    1  UNL1        0.0802
      6 N          -1.6751    0.6162    1.1637 N.ar    1  UNL1       -0.1717
      7 N          -1.0901    1.3345    0.1951 N.ar    1  UNL1       -0.2223
      8 C          -0.0743    2.2493    0.6427 C.3     1  UNL1        0.0937
      9 C           1.2822    1.5793    0.6545 C.ar    1  UNL1        0.1009
     10 N           2.1653    1.4702   -0.1742 N.ar    1  UNL1       -0.2421
     11 C           3.3067    0.8260    0.0474 C.ar    1  UNL1        0.0791
     12 C           3.4876    0.2406    1.3242 C.ar    1  UNL1        0.0393
     13 S           1.8903    0.7031    2.1421 S.2     1  UNL1       -0.0703
     14 C           4.6254   -0.4734    1.7322 C.ar    1  UNL1       -0.0454
     15 C           5.6467   -0.6171    0.8219 C.ar    1  UNL1       -0.0489
     16 C           5.4757   -0.0467   -0.4284 C.ar    1  UNL1        0.0569
     17 C           4.3708    0.6413   -0.8112 C.ar    1  UNL1       -0.0236
     18 C           6.6368   -0.2541   -1.3469 C.3     1  UNL1        0.4175
     19 F           7.0511   -1.5674   -1.3069 F       1  UNL1       -0.1659
     20 F           6.3197    0.0765   -2.6425 F       1  UNL1       -0.1659
     21 F           7.7157    0.5452   -0.9433 F       1  UNL1       -0.1659
     22 C          -1.4855    1.1542   -1.0955 C.ar    1  UNL1        0.2754
     23 O          -0.9160    1.8416   -1.9627 O.2     1  UNL1       -0.2655
     24 C          -2.4903    0.2241   -1.3665 C.ar    1  UNL1        0.0498
     25 C          -3.0563   -0.4866   -0.3287 C.ar    1  UNL1        0.0108
     26 C          -4.0466   -1.3950   -0.6436 C.ar    1  UNL1       -0.0521
     27 C          -4.5002   -1.6310   -1.9322 C.ar    1  UNL1       -0.0611
     28 C          -3.8885   -0.8829   -2.9252 C.ar    1  UNL1       -0.0610
     29 C          -2.8844    0.0524   -2.6974 C.ar    1  UNL1       -0.0487
     30 H          -5.9166   -0.6460    4.0747 H       1  UNL1        0.2951
     31 H          -2.5945   -0.8851    2.9820 H       1  UNL1        0.0442
     32 H          -3.2422   -2.1265    1.9132 H       1  UNL1        0.0442
     33 H          -0.3225    2.6416    1.6435 H       1  UNL1        0.0580
     34 H           0.0450    3.0415   -0.1181 H       1  UNL1        0.0580
     35 H           4.5595   -0.8336    2.7384 H       1  UNL1        0.0629
     36 H           6.4690   -1.1779    1.2324 H       1  UNL1        0.0623
     37 H           4.3856    1.0275   -1.8214 H       1  UNL1        0.0645
     38 H          -4.4915   -1.9506    0.1517 H       1  UNL1        0.0624
     39 H          -5.2776   -2.3462   -2.1664 H       1  UNL1        0.0618
     40 H          -4.2244   -1.0445   -3.9593 H       1  UNL1        0.0618
     41 H          -2.4303    0.6163   -3.4909 H       1  UNL1        0.0625
@<TRIPOS>BOND
     1     1     2    1
     2     2     3    2
     3     2     4    1
     4     4     5    1
     5     5     6   ar
     6     6     7   ar
     7     7     8    1
     8     8     9    1
     9     9    10   ar
    10    10    11   ar
    11    11    12   ar
    12    12    13   ar
    13    12    14   ar
    14    14    15   ar
    15    15    16   ar
    16    16    17   ar
    17    16    18    1
    18    18    19    1
    19    18    20    1
    20    18    21    1
    21     7    22   ar
    22    22    23    2
    23    22    24   ar
    24    24    25   ar
    25    25    26   ar
    26    26    27   ar
    27    27    28   ar
    28    28    29   ar
    29    25     5   ar
    30    13     9   ar
    31    29    24   ar
    32    17    11   ar
    33     1    30    1
    34     4    31    1
    35     4    32    1
    36     8    33    1
    37     8    34    1
    38    14    35    1
    39    15    36    1
    40    17    37    1
    41    26    38    1
    42    27    39    1
    43    28    40    1
    44    29    41    1
