
     RDKit          3D

 47 49  0  0  0  0  0  0  0  0999 V2000
   -0.2958   -0.1012   -0.5547 C   0  0  1  0  0  0  0  0  0  0  0  0
    0.5881   -1.2931   -0.6871 C   0  0  0  0  0  0  0  0  0  0  0  0
    1.9074   -0.8448   -0.7467 O   0  0  0  0  0  0  0  0  0  0  0  0
    2.9842   -2.1381   -0.8977 P   0  0  0  0  0  0  0  0  0  0  0  0
    2.9413   -3.0380    0.5303 O   0  0  0  0  0  0  0  0  0  0  0  0
    2.6250   -2.9929   -2.0914 O   0  0  0  0  0  0  0  0  0  0  0  0
    4.5294   -1.5044   -1.1356 O   0  0  0  0  0  0  0  0  0  0  0  0
    5.3477   -1.3221    0.3250 P   0  0  0  0  0  0  0  0  0  0  0  0
    4.4291   -1.8963    1.6222 O   0  0  0  0  0  0  0  0  0  0  0  0
    6.6678   -2.0720    0.3161 O   0  0  0  0  0  0  0  0  0  0  0  0
    5.5983    0.3356    0.5757 O   0  0  0  0  0  0  0  0  0  0  0  0
    7.2415    0.7346    0.5363 P   0  0  0  0  0  0  0  0  0  0  0  0
    7.3460    2.4167    0.6758 O   0  0  0  0  0  0  0  0  0  0  0  0
    7.9214    0.2392   -0.9298 O   0  0  0  0  0  0  0  0  0  0  0  0
    8.0704    0.0169    1.8703 S   0  0  0  0  0  0  0  0  0  0  0  0
   -1.6687   -0.4340   -0.4844 O   0  0  0  0  0  0  0  0  0  0  0  0
   -2.1669    0.8686   -0.3681 C   0  0  1  0  0  0  0  0  0  0  0  0
   -3.5748    0.9882   -0.4158 N   0  0  0  0  0  0  0  0  0  0  0  0
   -4.2459    1.9293   -1.1442 C   0  0  0  0  0  0  0  0  0  0  0  0
   -5.5709    1.7948   -0.9918 N   0  0  0  0  0  0  0  0  0  0  0  0
   -5.7545    0.7569   -0.1570 C   0  0  0  0  0  0  0  0  0  0  0  0
   -6.9592    0.2379    0.2982 C   0  0  0  0  0  0  0  0  0  0  0  0
   -8.1997    0.8006   -0.1088 N   0  0  0  0  0  0  0  0  0  0  0  0
   -6.8528   -0.8133    1.1337 N   0  0  0  0  0  0  0  0  0  0  0  0
   -5.6377   -1.2970    1.4786 C   0  0  0  0  0  0  0  0  0  0  0  0
   -4.4666   -0.7778    1.0243 N   0  0  0  0  0  0  0  0  0  0  0  0
   -4.5087    0.2622    0.1955 C   0  0  0  0  0  0  0  0  0  0  0  0
   -1.4903    1.3452    0.8794 C   0  0  2  0  0  0  0  0  0  0  0  0
   -1.2906    2.7233    0.7869 O   0  0  0  0  0  0  0  0  0  0  0  0
   -0.1141    0.6808    0.7179 C   0  0  2  0  0  0  0  0  0  0  0  0
    0.8796    1.6334    0.5042 O   0  0  0  0  0  0  0  0  0  0  0  0
   -0.2120    0.5247   -1.4647 H   0  0  0  0  0  0  0  0  0  0  0  0
    0.5339   -1.9483    0.2049 H   0  0  0  0  0  0  0  0  0  0  0  0
    0.3141   -1.8146   -1.6095 H   0  0  0  0  0  0  0  0  0  0  0  0
    2.0110   -3.2189    0.8109 H   0  0  0  0  0  0  0  0  0  0  0  0
    4.8482   -2.7020    2.0521 H   0  0  0  0  0  0  0  0  0  0  0  0
    7.3253    2.8621   -0.2021 H   0  0  0  0  0  0  0  0  0  0  0  0
    8.4848   -0.5422   -0.7651 H   0  0  0  0  0  0  0  0  0  0  0  0
   -1.6780    1.4301   -1.2160 H   0  0  0  0  0  0  0  0  0  0  0  0
   -3.8310    2.7088   -1.7805 H   0  0  0  0  0  0  0  0  0  0  0  0
   -8.2663    1.0185   -1.1423 H   0  0  0  0  0  0  0  0  0  0  0  0
   -9.0340    1.0170    0.4910 H   0  0  0  0  0  0  0  0  0  0  0  0
   -5.6935   -2.1459    2.1581 H   0  0  0  0  0  0  0  0  0  0  0  0
   -1.9548    1.0343    1.8207 H   0  0  0  0  0  0  0  0  0  0  0  0
   -0.7833    2.8733   -0.0502 H   0  0  0  0  0  0  0  0  0  0  0  0
    0.1056    0.0059    1.5485 H   0  0  0  0  0  0  0  0  0  0  0  0
    1.5499    1.6580    1.2095 H   0  0  0  0  0  0  0  0  0  0  0  0
  1  2  1  0
  2  3  1  0
  3  4  1  0
  4  5  1  0
  4  6  2  0
  4  7  1  0
  7  8  1  0
  8  9  1  0
  8 10  2  0
  8 11  1  0
 11 12  1  0
 12 13  1  0
 12 14  1  0
 12 15  2  0
  1 16  1  0
 16 17  1  0
 17 18  1  0
 18 19  1  0
 19 20  2  0
 20 21  1  0
 21 22  2  0
 22 23  1  0
 22 24  1  0
 24 25  2  0
 25 26  1  0
 26 27  2  0
 17 28  1  0
 28 29  1  0
 28 30  1  0
 30 31  1  0
 30  1  1  0
 27 18  1  0
 27 21  1  0
  1 32  1  6
  2 33  1  0
  2 34  1  0
  5 35  1  0
  9 36  1  0
 13 37  1  0
 14 38  1  0
 17 39  1  6
 19 40  1  0
 23 41  1  0
 23 42  1  0
 25 43  1  0
 28 44  1  1
 29 45  1  0
 30 46  1  1
 31 47  1  0
M  END
$$$$
