@<TRIPOS>MOLECULE
*****
 47 49 0 0 0
SMALL
GASTEIGER

@<TRIPOS>ATOM
      1 C          -0.2958   -0.1012   -0.5547 C.3     1  UNL1        0.1134
      2 C           0.5881   -1.2931   -0.6871 C.3     1  UNL1        0.0879
      3 O           1.9074   -0.8448   -0.7467 O.3     1  UNL1       -0.2837
      4 P           2.9842   -2.1381   -0.8977 P.3     1  UNL1        0.4835
      5 O           2.9413   -3.0380    0.5303 O.3     1  UNL1       -0.3022
      6 O           2.6250   -2.9929   -2.0914 O.2     1  UNL1       -0.2269
      7 O           4.5294   -1.5044   -1.1356 O.3     1  UNL1       -0.1858
      8 P           5.3477   -1.3221    0.3250 P.3     1  UNL1        0.4901
      9 O           4.4291   -1.8963    1.6222 O.3     1  UNL1       -0.3020
     10 O           6.6678   -2.0720    0.3161 O.2     1  UNL1       -0.2265
     11 O           5.5983    0.3356    0.5757 O.3     1  UNL1       -0.2108
     12 P           7.2415    0.7346    0.5363 P.3     1  UNL1        0.3115
     13 O           7.3460    2.4167    0.6758 O.3     1  UNL1       -0.3266
     14 O           7.9214    0.2392   -0.9298 O.3     1  UNL1       -0.3266
     15 S           8.0704    0.0169    1.8703 S.2     1  UNL1        0.0226
     16 O          -1.6687   -0.4340   -0.4844 O.3     1  UNL1       -0.3456
     17 C          -2.1669    0.8686   -0.3681 C.3     1  UNL1        0.1667
     18 N          -3.5748    0.9882   -0.4158 N.ar    1  UNL1       -0.2855
     19 C          -4.2459    1.9293   -1.1442 C.ar    1  UNL1        0.1004
     20 N          -5.5709    1.7948   -0.9918 N.ar    1  UNL1       -0.2306
     21 C          -5.7545    0.7569   -0.1570 C.ar    1  UNL1        0.1473
     22 C          -6.9592    0.2379    0.2982 C.ar    1  UNL1        0.1472
     23 N          -8.1997    0.8006   -0.1088 N.pl3   1  UNL1       -0.3413
     24 N          -6.8528   -0.8133    1.1337 N.ar    1  UNL1       -0.2188
     25 C          -5.6377   -1.2970    1.4786 C.ar    1  UNL1        0.1205
     26 N          -4.4666   -0.7778    1.0243 N.ar    1  UNL1       -0.2159
     27 C          -4.5087    0.2622    0.1955 C.ar    1  UNL1        0.1674
     28 C          -1.4903    1.3452    0.8794 C.3     1  UNL1        0.1285
     29 O          -1.2906    2.7233    0.7869 O.3     1  UNL1       -0.3847
     30 C          -0.1141    0.6808    0.7179 C.3     1  UNL1        0.1135
     31 O           0.8796    1.6334    0.5042 O.3     1  UNL1       -0.3864
     32 H          -0.2120    0.5247   -1.4647 H       1  UNL1        0.0647
     33 H           0.5339   -1.9483    0.2049 H       1  UNL1        0.0592
     34 H           0.3141   -1.8146   -1.6095 H       1  UNL1        0.0592
     35 H           2.0110   -3.2189    0.8109 H       1  UNL1        0.2220
     36 H           4.8482   -2.7020    2.0521 H       1  UNL1        0.2220
     37 H           7.3253    2.8621   -0.2021 H       1  UNL1        0.2195
     38 H           8.4848   -0.5422   -0.7651 H       1  UNL1        0.2195
     39 H          -1.6780    1.4301   -1.2160 H       1  UNL1        0.0866
     40 H          -3.8310    2.7088   -1.7805 H       1  UNL1        0.1030
     41 H          -8.2663    1.0185   -1.1423 H       1  UNL1        0.1438
     42 H          -9.0340    1.0170    0.4910 H       1  UNL1        0.1438
     43 H          -5.6935   -2.1459    2.1581 H       1  UNL1        0.1048
     44 H          -1.9548    1.0343    1.8207 H       1  UNL1        0.0665
     45 H          -0.7833    2.8733   -0.0502 H       1  UNL1        0.2101
     46 H           0.1056    0.0059    1.5485 H       1  UNL1        0.0647
     47 H           1.5499    1.6580    1.2095 H       1  UNL1        0.2100
@<TRIPOS>BOND
     1     1     2    1
     2     2     3    1
     3     3     4    1
     4     4     5    1
     5     4     6    2
     6     4     7    1
     7     7     8    1
     8     8     9    1
     9     8    10    2
    10     8    11    1
    11    11    12    1
    12    12    13    1
    13    12    14    1
    14    12    15    2
    15     1    16    1
    16    16    17    1
    17    17    18    1
    18    18    19   ar
    19    19    20   ar
    20    20    21   ar
    21    21    22   ar
    22    22    23    1
    23    22    24   ar
    24    24    25   ar
    25    25    26   ar
    26    26    27   ar
    27    17    28    1
    28    28    29    1
    29    28    30    1
    30    30    31    1
    31    30     1    1
    32    27    18   ar
    33    27    21   ar
    34     1    32    1
    35     2    33    1
    36     2    34    1
    37     5    35    1
    38     9    36    1
    39    13    37    1
    40    14    38    1
    41    17    39    1
    42    19    40    1
    43    23    41    1
    44    23    42    1
    45    25    43    1
    46    28    44    1
    47    29    45    1
    48    30    46    1
    49    31    47    1
