
     RDKit          3D

 31 31  0  0  0  0  0  0  0  0999 V2000
   -0.9027    1.4721    1.7237 O   0  0  0  0  0  0  0  0  0  0  0  0
   -0.3405    0.5393    1.2404 N   0  0  0  0  0  0  0  0  0  0  0  0
   -0.2849    0.4510   -0.1729 C   0  0  0  0  0  0  0  0  0  0  0  0
    0.6999   -0.5808   -0.6656 C   0  0  0  0  0  0  0  0  0  0  0  0
    2.0823   -0.3183   -0.2344 C   0  0  0  0  0  0  0  0  0  0  0  0
    2.5306   -0.8500    0.9573 C   0  0  0  0  0  0  0  0  0  0  0  0
    3.8173   -0.6462    1.4279 C   0  0  0  0  0  0  0  0  0  0  0  0
    4.7012    0.1151    0.6916 C   0  0  0  0  0  0  0  0  0  0  0  0
    6.0169    0.3552    1.1187 O   0  0  0  0  0  0  0  0  0  0  0  0
    4.2676    0.6560   -0.5064 C   0  0  0  0  0  0  0  0  0  0  0  0
    5.4242    1.7133   -1.5740 Br  0  0  0  0  0  0  0  0  0  0  0  0
    2.9758    0.4404   -0.9600 C   0  0  0  0  0  0  0  0  0  0  0  0
   -1.6061    0.1233   -0.7692 C   0  0  0  0  0  0  0  0  0  0  0  0
   -1.6796    0.0186   -2.0208 O   0  0  0  0  0  0  0  0  0  0  0  0
   -2.7385   -0.0615    0.0706 N   0  0  0  0  0  0  0  0  0  0  0  0
   -3.9967   -0.3790   -0.5756 C   0  0  0  0  0  0  0  0  0  0  0  0
   -5.1182   -0.5514    0.4064 C   0  0  0  0  0  0  0  0  0  0  0  0
   -5.4272    0.9174    1.3910 S   0  0  0  0  0  0  0  0  0  0  0  0
    0.0004    1.4643   -0.5562 H   0  0  0  0  0  0  0  0  0  0  0  0
    0.6716   -0.5875   -1.7681 H   0  0  0  0  0  0  0  0  0  0  0  0
    0.4012   -1.5717   -0.2698 H   0  0  0  0  0  0  0  0  0  0  0  0
    1.8747   -1.4561    1.5738 H   0  0  0  0  0  0  0  0  0  0  0  0
    4.1748   -1.0609    2.3622 H   0  0  0  0  0  0  0  0  0  0  0  0
    6.8186    0.0078    0.5958 H   0  0  0  0  0  0  0  0  0  0  0  0
    2.6087    0.8539   -1.8986 H   0  0  0  0  0  0  0  0  0  0  0  0
   -2.7068    0.0191    1.1091 H   0  0  0  0  0  0  0  0  0  0  0  0
   -4.2292    0.3734   -1.3492 H   0  0  0  0  0  0  0  0  0  0  0  0
   -3.8467   -1.3674   -1.0736 H   0  0  0  0  0  0  0  0  0  0  0  0
   -6.0292   -0.8014   -0.1644 H   0  0  0  0  0  0  0  0  0  0  0  0
   -4.8913   -1.3928    1.0668 H   0  0  0  0  0  0  0  0  0  0  0  0
   -5.2682    2.1050    0.6556 H   0  0  0  0  0  0  0  0  0  0  0  0
  1  2  2  0
  2  3  1  0
  3  4  1  0
  4  5  1  0
  5  6  2  0
  6  7  1  0
  7  8  2  0
  8  9  1  0
  8 10  1  0
 10 11  1  0
 10 12  2  0
  3 13  1  0
 13 14  2  0
 13 15  1  0
 15 16  1  0
 16 17  1  0
 17 18  1  0
 12  5  1  0
  3 19  1  0
  4 20  1  0
  4 21  1  0
  6 22  1  0
  7 23  1  0
  9 24  1  0
 12 25  1  0
 15 26  1  0
 16 27  1  0
 16 28  1  0
 17 29  1  0
 17 30  1  0
 18 31  1  0
M  END
$$$$
