@<TRIPOS>MOLECULE
*****
 31 31 0 0 0
SMALL
GASTEIGER

@<TRIPOS>ATOM
      1 O          -0.9027    1.4721    1.7237 O.2     1  UNL1       -0.1482
      2 N          -0.3405    0.5393    1.2404 N.2     1  UNL1       -0.0559
      3 C          -0.2849    0.4510   -0.1729 C.3     1  UNL1        0.1713
      4 C           0.6999   -0.5808   -0.6656 C.3     1  UNL1        0.0067
      5 C           2.0823   -0.3183   -0.2344 C.ar    1  UNL1       -0.0435
      6 C           2.5306   -0.8500    0.9573 C.ar    1  UNL1       -0.0550
      7 C           3.8173   -0.6462    1.4279 C.ar    1  UNL1       -0.0188
      8 C           4.7012    0.1151    0.6916 C.ar    1  UNL1        0.1308
      9 O           6.0169    0.3552    1.1187 O.3     1  UNL1       -0.5057
     10 C           4.2676    0.6560   -0.5064 C.ar    1  UNL1        0.0595
     11 BR          5.4242    1.7133   -1.5740 Br      1  UNL1       -0.0465
     12 C           2.9758    0.4404   -0.9600 C.ar    1  UNL1       -0.0410
     13 C          -1.6061    0.1233   -0.7692 C.2     1  UNL1        0.2413
     14 O          -1.6796    0.0186   -2.0208 O.2     1  UNL1       -0.2733
     15 N          -2.7385   -0.0615    0.0706 N.am    1  UNL1       -0.3127
     16 C          -3.9967   -0.3790   -0.5756 C.3     1  UNL1        0.0204
     17 C          -5.1182   -0.5514    0.4064 C.3     1  UNL1        0.0063
     18 S          -5.4272    0.9174    1.3910 S.3     1  UNL1       -0.1767
     19 H           0.0004    1.4643   -0.5562 H       1  UNL1        0.0679
     20 H           0.6716   -0.5875   -1.7681 H       1  UNL1        0.0340
     21 H           0.4012   -1.5717   -0.2698 H       1  UNL1        0.0340
     22 H           1.8747   -1.4561    1.5738 H       1  UNL1        0.0621
     23 H           4.1748   -1.0609    2.3622 H       1  UNL1        0.0654
     24 H           6.8186    0.0078    0.5958 H       1  UNL1        0.2922
     25 H           2.6087    0.8539   -1.8986 H       1  UNL1        0.0632
     26 H          -2.7068    0.0191    1.1091 H       1  UNL1        0.1488
     27 H          -4.2292    0.3734   -1.3492 H       1  UNL1        0.0470
     28 H          -3.8467   -1.3674   -1.0736 H       1  UNL1        0.0470
     29 H          -6.0292   -0.8014   -0.1644 H       1  UNL1        0.0389
     30 H          -4.8913   -1.3928    1.0668 H       1  UNL1        0.0389
     31 H          -5.2682    2.1050    0.6556 H       1  UNL1        0.1017
@<TRIPOS>BOND
     1     1     2    2
     2     2     3    1
     3     3     4    1
     4     4     5    1
     5     5     6   ar
     6     6     7   ar
     7     7     8   ar
     8     8     9    1
     9     8    10   ar
    10    10    11    1
    11    10    12   ar
    12     3    13    1
    13    13    14    2
    14    13    15   am
    15    15    16    1
    16    16    17    1
    17    17    18    1
    18    12     5   ar
    19     3    19    1
    20     4    20    1
    21     4    21    1
    22     6    22    1
    23     7    23    1
    24     9    24    1
    25    12    25    1
    26    15    26    1
    27    16    27    1
    28    16    28    1
    29    17    29    1
    30    17    30    1
    31    18    31    1
