@<TRIPOS>MOLECULE
*****
 70 74 0 0 0
SMALL
GASTEIGER

@<TRIPOS>ATOM
      1 C          -0.1622   -2.1041    2.3381 C.3     1  UNL1       -0.0421
      2 C          -0.0791   -0.6252    2.1345 C.3     1  UNL1        0.0515
      3 C           1.1935   -0.2323    1.4591 C.ar    1  UNL1       -0.0271
      4 C           1.3308    1.0162    0.8896 C.ar    1  UNL1       -0.0562
      5 C           2.5011    1.4023    0.2587 C.ar    1  UNL1       -0.0537
      6 C           3.5819    0.5480    0.1746 C.ar    1  UNL1       -0.0165
      7 C           4.8351    0.9115   -0.4803 C.ar    1  UNL1       -0.0015
      8 C           4.8226    1.7718   -1.5574 C.ar    1  UNL1       -0.0475
      9 C           6.0188    2.1013   -2.1607 C.ar    1  UNL1        0.0036
     10 C           7.2333    1.6054   -1.7316 C.ar    1  UNL1        0.2516
     11 O           8.3317    1.8955   -2.2700 O.2     1  UNL1       -0.2677
     12 N           7.2231    0.7588   -0.6681 N.ar    1  UNL1       -0.3116
     13 C           8.5043    0.2279   -0.2059 C.3     1  UNL1        0.0375
     14 C           8.6816   -1.2732   -0.3097 C.3     1  UNL1       -0.0301
     15 C           9.3547   -0.3323   -1.3026 C.3     1  UNL1       -0.0301
     16 C           6.0623    0.4317   -0.0735 C.ar    1  UNL1        0.0159
     17 C           3.4372   -0.6995    0.7467 C.ar    1  UNL1       -0.0537
     18 C           2.2725   -1.0896    1.3770 C.ar    1  UNL1       -0.0562
     19 N          -1.1656   -0.2122    1.2788 N.am    1  UNL1       -0.2605
     20 C          -1.2249   -0.7327   -0.0466 C.3     1  UNL1        0.0224
     21 C          -2.2491   -0.1299   -0.9460 C.3     1  UNL1        0.0076
     22 C          -3.5446    0.2195   -0.1448 C.3     1  UNL1        0.1440
     23 C          -3.9925   -1.0936    0.3443 C.3     1  UNL1        0.0199
     24 C          -5.1990   -1.2615    1.1543 C.3     1  UNL1        0.0645
     25 C          -6.4883   -0.8608    0.5038 C.3     1  UNL1       -0.0362
     26 C          -5.3045   -2.7720    1.4617 C.3     1  UNL1       -0.0362
     27 O          -5.1088   -0.6768    2.4285 O.3     1  UNL1       -0.3890
     28 C          -4.4098    1.0082   -1.0017 C.ar    1  UNL1       -0.0040
     29 C          -5.4049    1.8172   -0.5111 C.ar    1  UNL1       -0.0548
     30 C          -6.2222    2.5575   -1.3468 C.ar    1  UNL1       -0.0614
     31 C          -6.0657    2.5103   -2.7270 C.ar    1  UNL1       -0.0617
     32 C          -5.0767    1.7078   -3.2345 C.ar    1  UNL1       -0.0614
     33 C          -4.2619    0.9692   -2.3931 C.ar    1  UNL1       -0.0548
     34 O          -3.1839    1.0122    0.9982 O.3     1  UNL1       -0.4387
     35 C          -2.1280    0.7010    1.8098 C.2     1  UNL1        0.4042
     36 O          -2.0198    1.1940    2.9523 O.2     1  UNL1       -0.2262
     37 H          -1.2500   -2.3706    2.3997 H       1  UNL1        0.0251
     38 H           0.2907   -2.3511    3.3090 H       1  UNL1        0.0251
     39 H           0.2471   -2.6923    1.4932 H       1  UNL1        0.0251
     40 H          -0.1481   -0.1448    3.1498 H       1  UNL1        0.0549
     41 H           0.4885    1.7188    0.9400 H       1  UNL1        0.0621
     42 H           2.5865    2.3918   -0.1834 H       1  UNL1        0.0624
     43 H           3.8731    2.1738   -1.9108 H       1  UNL1        0.0626
     44 H           6.0314    2.7740   -3.0064 H       1  UNL1        0.0672
     45 H           8.9861    0.7487    0.6442 H       1  UNL1        0.0529
     46 H           9.3333   -1.7221    0.4693 H       1  UNL1        0.0286
     47 H           7.7826   -1.8353   -0.6563 H       1  UNL1        0.0286
     48 H          10.4400   -0.1968   -1.2610 H       1  UNL1        0.0286
     49 H           8.9488   -0.3805   -2.3363 H       1  UNL1        0.0286
     50 H           6.0835   -0.2433    0.7698 H       1  UNL1        0.0816
     51 H           4.2902   -1.3703    0.6789 H       1  UNL1        0.0624
     52 H           2.1619   -2.0613    1.8217 H       1  UNL1        0.0621
     53 H          -0.2281   -0.6210   -0.5723 H       1  UNL1        0.0467
     54 H          -1.3588   -1.8527    0.0347 H       1  UNL1        0.0467
     55 H          -2.6004   -0.9580   -1.6314 H       1  UNL1        0.0322
     56 H          -1.9147    0.7271   -1.5285 H       1  UNL1        0.0322
     57 H          -4.0273   -1.8527   -0.4981 H       1  UNL1        0.0335
     58 H          -3.1261   -1.5069    0.9654 H       1  UNL1        0.0335
     59 H          -6.4634   -0.7964   -0.5897 H       1  UNL1        0.0257
     60 H          -7.2384   -1.6953    0.7264 H       1  UNL1        0.0257
     61 H          -6.9389    0.0101    1.0239 H       1  UNL1        0.0257
     62 H          -6.2025   -2.9629    2.0854 H       1  UNL1        0.0257
     63 H          -4.3870   -3.1187    1.9440 H       1  UNL1        0.0257
     64 H          -5.4781   -3.2772    0.4858 H       1  UNL1        0.0257
     65 H          -4.5112   -1.2335    2.9872 H       1  UNL1        0.2101
     66 H          -5.5918    1.9150    0.5505 H       1  UNL1        0.0622
     67 H          -6.9992    3.1863   -0.9197 H       1  UNL1        0.0618
     68 H          -6.7014    3.0870   -3.3937 H       1  UNL1        0.0618
     69 H          -4.9595    1.6752   -4.3105 H       1  UNL1        0.0618
     70 H          -3.5116    0.3669   -2.8799 H       1  UNL1        0.0622
@<TRIPOS>BOND
     1     1     2    1
     2     2     3    1
     3     3     4   ar
     4     4     5   ar
     5     5     6   ar
     6     6     7    1
     7     7     8   ar
     8     8     9   ar
     9     9    10   ar
    10    10    11    2
    11    10    12   ar
    12    12    13    1
    13    13    14    1
    14    14    15    1
    15    12    16   ar
    16     6    17   ar
    17    17    18   ar
    18     2    19    1
    19    19    20    1
    20    20    21    1
    21    21    22    1
    22    22    23    1
    23    23    24    1
    24    24    25    1
    25    24    26    1
    26    24    27    1
    27    22    28    1
    28    28    29   ar
    29    29    30   ar
    30    30    31   ar
    31    31    32   ar
    32    32    33   ar
    33    22    34    1
    34    34    35    1
    35    35    36    2
    36    18     3   ar
    37    35    19   am
    38    16     7   ar
    39    33    28   ar
    40    15    13    1
    41     1    37    1
    42     1    38    1
    43     1    39    1
    44     2    40    1
    45     4    41    1
    46     5    42    1
    47     8    43    1
    48     9    44    1
    49    13    45    1
    50    14    46    1
    51    14    47    1
    52    15    48    1
    53    15    49    1
    54    16    50    1
    55    17    51    1
    56    18    52    1
    57    20    53    1
    58    20    54    1
    59    21    55    1
    60    21    56    1
    61    23    57    1
    62    23    58    1
    63    25    59    1
    64    25    60    1
    65    25    61    1
    66    26    62    1
    67    26    63    1
    68    26    64    1
    69    27    65    1
    70    29    66    1
    71    30    67    1
    72    31    68    1
    73    32    69    1
    74    33    70    1
