
     RDKit          3D

 67 73  0  0  0  0  0  0  0  0999 V2000
    2.3863    2.9446    0.2815 N   0  0  0  0  0  0  0  0  0  0  0  0
    0.9928    2.9111    0.5230 C   0  0  0  0  0  0  0  0  0  0  0  0
    0.3976    3.9497    1.1703 N   0  0  0  0  0  0  0  0  0  0  0  0
   -0.9234    3.9594    1.3852 C   0  0  0  0  0  0  0  0  0  0  0  0
   -1.6717    2.8962    0.9382 C   0  0  0  0  0  0  0  0  0  0  0  0
   -1.0626    1.8708    0.2959 N   0  0  0  0  0  0  0  0  0  0  0  0
    0.2672    1.8280    0.0633 C   0  0  0  0  0  0  0  0  0  0  0  0
    0.5657    0.6727   -0.6087 C   0  0  0  0  0  0  0  0  0  0  0  0
    1.9005    0.2258   -1.0597 C   0  0  0  0  0  0  0  0  0  0  0  0
    2.1256   -0.1428   -2.3692 C   0  0  0  0  0  0  0  0  0  0  0  0
    3.3516   -0.6130   -2.7877 C   0  0  0  0  0  0  0  0  0  0  0  0
    4.4160   -0.7318   -1.8872 C   0  0  0  0  0  0  0  0  0  0  0  0
    5.6510   -1.2090   -2.2551 C   0  0  0  0  0  0  0  0  0  0  0  0
    6.6758   -1.3179   -1.2942 C   0  0  0  0  0  0  0  0  0  0  0  0
    6.4447   -0.9488    0.0059 C   0  0  0  0  0  0  0  0  0  0  0  0
    7.4937   -1.0507    1.0417 C   0  0  0  0  0  0  0  0  0  0  0  0
    8.7487   -1.5088    0.8206 C   0  0  0  0  0  0  0  0  0  0  0  0
    9.6719   -1.5659    1.8725 C   0  0  0  0  0  0  0  0  0  0  0  0
    9.3248   -1.1605    3.1419 C   0  0  0  0  0  0  0  0  0  0  0  0
    8.0397   -0.6872    3.3844 C   0  0  0  0  0  0  0  0  0  0  0  0
    7.1681   -0.6461    2.3363 C   0  0  0  0  0  0  0  0  0  0  0  0
    5.2203   -0.4868    0.3168 N   0  0  0  0  0  0  0  0  0  0  0  0
    4.2181   -0.3693   -0.5720 C   0  0  0  0  0  0  0  0  0  0  0  0
    2.9648    0.0978   -0.2009 C   0  0  0  0  0  0  0  0  0  0  0  0
   -0.5940    0.0117   -0.7886 N   0  0  0  0  0  0  0  0  0  0  0  0
   -1.5749    0.7323   -0.2444 C   0  0  0  0  0  0  0  0  0  0  0  0
   -3.0314    0.4096   -0.1986 C   0  0  1  0  0  0  0  0  0  0  0  0
   -3.6476    0.5087   -1.6102 C   0  0  0  0  0  0  0  0  0  0  0  0
   -4.3266   -0.8600   -1.3492 C   0  0  2  0  0  0  0  0  0  0  0  0
   -5.7817   -0.7220   -1.1490 C   0  0  0  0  0  0  0  0  0  0  0  0
   -6.2141    0.0763   -0.0589 N   0  0  0  0  0  0  0  0  0  0  0  0
   -7.6097    0.5449   -0.3181 C   0  0  0  0  0  0  0  0  0  0  0  0
   -8.5838   -0.5884   -0.3088 C   0  0  0  0  0  0  0  0  0  0  0  0
   -8.6238   -1.2396    0.9268 O   0  0  0  0  0  0  0  0  0  0  0  0
   -7.3567   -1.7648    1.1552 C   0  0  0  0  0  0  0  0  0  0  0  0
   -6.3768   -0.6169    1.2139 C   0  0  0  0  0  0  0  0  0  0  0  0
   -3.3480   -1.0744   -0.2733 C   0  0  0  0  0  0  0  0  0  0  0  0
    3.0301    2.8787    1.0958 H   0  0  0  0  0  0  0  0  0  0  0  0
    2.8174    3.0324   -0.6633 H   0  0  0  0  0  0  0  0  0  0  0  0
   -1.3990    4.8079    1.9092 H   0  0  0  0  0  0  0  0  0  0  0  0
   -2.7427    2.8861    1.1031 H   0  0  0  0  0  0  0  0  0  0  0  0
    1.3407   -0.0698   -3.0999 H   0  0  0  0  0  0  0  0  0  0  0  0
    3.5461   -0.9095   -3.8192 H   0  0  0  0  0  0  0  0  0  0  0  0
    5.8441   -1.5006   -3.2638 H   0  0  0  0  0  0  0  0  0  0  0  0
    7.6382   -1.6906   -1.5853 H   0  0  0  0  0  0  0  0  0  0  0  0
    9.0433   -1.8354   -0.1765 H   0  0  0  0  0  0  0  0  0  0  0  0
   10.6803   -1.9413    1.6715 H   0  0  0  0  0  0  0  0  0  0  0  0
    9.9989   -1.1863    3.9779 H   0  0  0  0  0  0  0  0  0  0  0  0
    7.7193   -0.3579    4.3642 H   0  0  0  0  0  0  0  0  0  0  0  0
    6.1450   -0.2737    2.5076 H   0  0  0  0  0  0  0  0  0  0  0  0
    2.8523    0.3525    0.8466 H   0  0  0  0  0  0  0  0  0  0  0  0
   -3.6328    1.0081    0.5042 H   0  0  0  0  0  0  0  0  0  0  0  0
   -2.8969    0.4629   -2.4142 H   0  0  0  0  0  0  0  0  0  0  0  0
   -4.4222    1.2887   -1.6732 H   0  0  0  0  0  0  0  0  0  0  0  0
   -4.1085   -1.5504   -2.2386 H   0  0  0  0  0  0  0  0  0  0  0  0
   -6.3081   -1.7043   -1.2300 H   0  0  0  0  0  0  0  0  0  0  0  0
   -6.1653   -0.1721   -2.0866 H   0  0  0  0  0  0  0  0  0  0  0  0
   -7.8729    1.2516    0.4755 H   0  0  0  0  0  0  0  0  0  0  0  0
   -7.5876    0.9889   -1.3286 H   0  0  0  0  0  0  0  0  0  0  0  0
   -9.5961   -0.1572   -0.4743 H   0  0  0  0  0  0  0  0  0  0  0  0
   -8.4447   -1.3152   -1.1455 H   0  0  0  0  0  0  0  0  0  0  0  0
   -7.3174   -2.2367    2.1760 H   0  0  0  0  0  0  0  0  0  0  0  0
   -7.0656   -2.4875    0.3978 H   0  0  0  0  0  0  0  0  0  0  0  0
   -6.8570    0.1904    1.8767 H   0  0  0  0  0  0  0  0  0  0  0  0
   -5.4897   -0.9553    1.7094 H   0  0  0  0  0  0  0  0  0  0  0  0
   -2.4361   -1.6744   -0.6204 H   0  0  0  0  0  0  0  0  0  0  0  0
   -3.6104   -1.4649    0.6969 H   0  0  0  0  0  0  0  0  0  0  0  0
  1  2  1  0
  2  3  2  0
  3  4  1  0
  4  5  2  0
  5  6  1  0
  6  7  1  0
  7  8  2  0
  8  9  1  0
  9 10  2  0
 10 11  1  0
 11 12  2  0
 12 13  1  0
 13 14  2  0
 14 15  1  0
 15 16  1  0
 16 17  2  0
 17 18  1  0
 18 19  2  0
 19 20  1  0
 20 21  2  0
 15 22  2  0
 22 23  1  0
 23 24  2  0
  8 25  1  0
 25 26  2  0
 26 27  1  0
 27 28  1  0
 28 29  1  0
 29 30  1  0
 30 31  1  0
 31 32  1  0
 32 33  1  0
 33 34  1  0
 34 35  1  0
 35 36  1  0
 29 37  1  0
  7  2  1  0
 24  9  1  0
 37 27  1  0
 26  6  1  0
 36 31  1  0
 23 12  1  0
 21 16  1  0
  1 38  1  0
  1 39  1  0
  4 40  1  0
  5 41  1  0
 10 42  1  0
 11 43  1  0
 13 44  1  0
 14 45  1  0
 17 46  1  0
 18 47  1  0
 19 48  1  0
 20 49  1  0
 21 50  1  0
 24 51  1  0
 27 52  1  1
 28 53  1  0
 28 54  1  0
 29 55  1  6
 30 56  1  0
 30 57  1  0
 32 58  1  0
 32 59  1  0
 33 60  1  0
 33 61  1  0
 35 62  1  0
 35 63  1  0
 36 64  1  0
 36 65  1  0
 37 66  1  0
 37 67  1  0
M  END
$$$$
