@<TRIPOS>MOLECULE
*****
 67 73 0 0 0
SMALL
GASTEIGER

@<TRIPOS>ATOM
      1 N           2.3863    2.9446    0.2815 N.pl3   1  UNL1       -0.3414
      2 C           0.9928    2.9111    0.5230 C.ar    1  UNL1        0.1424
      3 N           0.3976    3.9497    1.1703 N.ar    1  UNL1       -0.2371
      4 C          -0.9234    3.9594    1.3852 C.ar    1  UNL1        0.0463
      5 C          -1.6717    2.8962    0.9382 C.ar    1  UNL1        0.0297
      6 N          -1.0626    1.8708    0.2959 N.ar    1  UNL1       -0.2982
      7 C           0.2672    1.8280    0.0633 C.ar    1  UNL1        0.1135
      8 C           0.5657    0.6727   -0.6087 C.ar    1  UNL1        0.1002
      9 C           1.9005    0.2258   -1.0597 C.ar    1  UNL1        0.0046
     10 C           2.1256   -0.1428   -2.3692 C.ar    1  UNL1       -0.0518
     11 C           3.3516   -0.6130   -2.7877 C.ar    1  UNL1       -0.0519
     12 C           4.4160   -0.7318   -1.8872 C.ar    1  UNL1        0.0005
     13 C           5.6510   -1.2090   -2.2551 C.ar    1  UNL1       -0.0505
     14 C           6.6758   -1.3179   -1.2942 C.ar    1  UNL1       -0.0351
     15 C           6.4447   -0.9488    0.0059 C.ar    1  UNL1        0.0717
     16 C           7.4937   -1.0507    1.0417 C.ar    1  UNL1        0.0004
     17 C           8.7487   -1.5088    0.8206 C.ar    1  UNL1       -0.0526
     18 C           9.6719   -1.5659    1.8725 C.ar    1  UNL1       -0.0611
     19 C           9.3248   -1.1605    3.1419 C.ar    1  UNL1       -0.0617
     20 C           8.0397   -0.6872    3.3844 C.ar    1  UNL1       -0.0611
     21 C           7.1681   -0.6461    2.3363 C.ar    1  UNL1       -0.0526
     22 N           5.2203   -0.4868    0.3168 N.ar    1  UNL1       -0.2467
     23 C           4.2181   -0.3693   -0.5720 C.ar    1  UNL1        0.0723
     24 C           2.9648    0.0978   -0.2009 C.ar    1  UNL1       -0.0265
     25 N          -0.5940    0.0117   -0.7886 N.ar    1  UNL1       -0.2309
     26 C          -1.5749    0.7323   -0.2444 C.ar    1  UNL1        0.1181
     27 C          -3.0314    0.4096   -0.1986 C.3     1  UNL1        0.0182
     28 C          -3.6476    0.5087   -1.6102 C.3     1  UNL1       -0.0393
     29 C          -4.3266   -0.8600   -1.3492 C.3     1  UNL1       -0.0270
     30 C          -5.7817   -0.7220   -1.1490 C.3     1  UNL1        0.0019
     31 N          -6.2141    0.0763   -0.0589 N.3     1  UNL1       -0.2977
     32 C          -7.6097    0.5449   -0.3181 C.3     1  UNL1        0.0224
     33 C          -8.5838   -0.5884   -0.3088 C.3     1  UNL1        0.0604
     34 O          -8.6238   -1.2396    0.9268 O.3     1  UNL1       -0.3772
     35 C          -7.3567   -1.7648    1.1552 C.3     1  UNL1        0.0604
     36 C          -6.3768   -0.6169    1.2139 C.3     1  UNL1        0.0224
     37 C          -3.3480   -1.0744   -0.2733 C.3     1  UNL1       -0.0393
     38 H           3.0301    2.8787    1.0958 H       1  UNL1        0.1438
     39 H           2.8174    3.0324   -0.6633 H       1  UNL1        0.1438
     40 H          -1.3990    4.8079    1.9092 H       1  UNL1        0.0845
     41 H          -2.7427    2.8861    1.1031 H       1  UNL1        0.0829
     42 H           1.3407   -0.0698   -3.0999 H       1  UNL1        0.0624
     43 H           3.5461   -0.9095   -3.8192 H       1  UNL1        0.0624
     44 H           5.8441   -1.5006   -3.2638 H       1  UNL1        0.0625
     45 H           7.6382   -1.6906   -1.5853 H       1  UNL1        0.0639
     46 H           9.0433   -1.8354   -0.1765 H       1  UNL1        0.0624
     47 H          10.6803   -1.9413    1.6715 H       1  UNL1        0.0618
     48 H           9.9989   -1.1863    3.9779 H       1  UNL1        0.0618
     49 H           7.7193   -0.3579    4.3642 H       1  UNL1        0.0618
     50 H           6.1450   -0.2737    2.5076 H       1  UNL1        0.0624
     51 H           2.8523    0.3525    0.8466 H       1  UNL1        0.0645
     52 H          -3.6328    1.0081    0.5042 H       1  UNL1        0.0379
     53 H          -2.8969    0.4629   -2.4142 H       1  UNL1        0.0275
     54 H          -4.4222    1.2887   -1.6732 H       1  UNL1        0.0275
     55 H          -4.1085   -1.5504   -2.2386 H       1  UNL1        0.0313
     56 H          -6.3081   -1.7043   -1.2300 H       1  UNL1        0.0429
     57 H          -6.1653   -0.1721   -2.0866 H       1  UNL1        0.0429
     58 H          -7.8729    1.2516    0.4755 H       1  UNL1        0.0449
     59 H          -7.5876    0.9889   -1.3286 H       1  UNL1        0.0449
     60 H          -9.5961   -0.1572   -0.4743 H       1  UNL1        0.0572
     61 H          -8.4447   -1.3152   -1.1455 H       1  UNL1        0.0572
     62 H          -7.3174   -2.2367    2.1760 H       1  UNL1        0.0572
     63 H          -7.0656   -2.4875    0.3978 H       1  UNL1        0.0572
     64 H          -6.8570    0.1904    1.8767 H       1  UNL1        0.0449
     65 H          -5.4897   -0.9553    1.7094 H       1  UNL1        0.0449
     66 H          -2.4361   -1.6744   -0.6204 H       1  UNL1        0.0275
     67 H          -3.6104   -1.4649    0.6969 H       1  UNL1        0.0275
@<TRIPOS>BOND
     1     1     2    1
     2     2     3   ar
     3     3     4   ar
     4     4     5   ar
     5     5     6   ar
     6     6     7   ar
     7     7     8   ar
     8     8     9    1
     9     9    10   ar
    10    10    11   ar
    11    11    12   ar
    12    12    13   ar
    13    13    14   ar
    14    14    15   ar
    15    15    16    1
    16    16    17   ar
    17    17    18   ar
    18    18    19   ar
    19    19    20   ar
    20    20    21   ar
    21    15    22   ar
    22    22    23   ar
    23    23    24   ar
    24     8    25   ar
    25    25    26   ar
    26    26    27    1
    27    27    28    1
    28    28    29    1
    29    29    30    1
    30    30    31    1
    31    31    32    1
    32    32    33    1
    33    33    34    1
    34    34    35    1
    35    35    36    1
    36    29    37    1
    37     7     2   ar
    38    24     9   ar
    39    37    27    1
    40    26     6   ar
    41    36    31    1
    42    23    12   ar
    43    21    16   ar
    44     1    38    1
    45     1    39    1
    46     4    40    1
    47     5    41    1
    48    10    42    1
    49    11    43    1
    50    13    44    1
    51    14    45    1
    52    17    46    1
    53    18    47    1
    54    19    48    1
    55    20    49    1
    56    21    50    1
    57    24    51    1
    58    27    52    1
    59    28    53    1
    60    28    54    1
    61    29    55    1
    62    30    56    1
    63    30    57    1
    64    32    58    1
    65    32    59    1
    66    33    60    1
    67    33    61    1
    68    35    62    1
    69    35    63    1
    70    36    64    1
    71    36    65    1
    72    37    66    1
    73    37    67    1
