
     RDKit          3D

 63 67  0  0  0  0  0  0  0  0999 V2000
   -3.8381   -1.7529    1.1179 O   0  0  0  0  0  0  0  0  0  0  0  0
   -3.1609   -0.8234    0.6023 C   0  0  0  0  0  0  0  0  0  0  0  0
   -3.8735    0.2762    0.0550 N   0  0  0  0  0  0  0  0  0  0  0  0
   -5.3013    0.2864    0.1097 C   0  0  1  0  0  0  0  0  0  0  0  0
   -5.8307    1.4702    0.9225 C   0  0  0  0  0  0  0  0  0  0  0  0
   -7.2732    1.2049    1.1941 C   0  0  0  0  0  0  0  0  0  0  0  0
   -8.0877    0.9383   -0.0281 C   0  0  0  0  0  0  0  0  0  0  0  0
   -7.4259    0.0987   -1.0645 C   0  0  2  0  0  0  0  0  0  0  0  0
   -7.6688   -1.3885   -0.8934 C   0  0  0  0  0  0  0  0  0  0  0  0
   -9.0444   -1.6761   -0.9609 O   0  0  0  0  0  0  0  0  0  0  0  0
   -5.9505    0.3714   -1.2434 C   0  0  0  0  0  0  0  0  0  0  0  0
   -1.6976   -0.9324    0.5991 C   0  0  0  0  0  0  0  0  0  0  0  0
   -1.1728   -0.9084   -0.8101 C   0  0  0  0  0  0  0  0  0  0  0  0
    0.3127   -0.9975   -0.8964 C   0  0  0  0  0  0  0  0  0  0  0  0
    1.0217   -0.4886    0.2342 N   0  0  0  0  0  0  0  0  0  0  0  0
    2.4114   -0.1593    0.0877 C   0  0  0  0  0  0  0  0  0  0  0  0
    2.8229    1.0616   -0.2653 N   0  0  0  0  0  0  0  0  0  0  0  0
    4.1762    1.0264   -0.3100 C   0  0  0  0  0  0  0  0  0  0  0  0
    5.1091    2.0015   -0.6160 C   0  0  0  0  0  0  0  0  0  0  0  0
    6.4378    1.6999   -0.5863 C   0  0  0  0  0  0  0  0  0  0  0  0
    7.5833    2.9694   -0.9855 Cl  0  0  0  0  0  0  0  0  0  0  0  0
    6.8534    0.4350   -0.2544 C   0  0  0  0  0  0  0  0  0  0  0  0
    8.2887    0.1048   -0.2182 C   0  0  0  0  0  0  0  0  0  0  0  0
    9.2167    0.9154    0.3958 C   0  0  0  0  0  0  0  0  0  0  0  0
   10.5706    0.5830    0.4154 C   0  0  0  0  0  0  0  0  0  0  0  0
   11.0202   -0.5740   -0.1834 C   0  0  0  0  0  0  0  0  0  0  0  0
   12.7339   -1.0040   -0.1639 Cl  0  0  0  0  0  0  0  0  0  0  0  0
   10.0969   -1.3909   -0.8003 C   0  0  0  0  0  0  0  0  0  0  0  0
    8.7555   -1.0492   -0.8126 C   0  0  0  0  0  0  0  0  0  0  0  0
    5.9003   -0.5258    0.0485 C   0  0  0  0  0  0  0  0  0  0  0  0
    4.5630   -0.2489    0.0259 C   0  0  0  0  0  0  0  0  0  0  0  0
    3.4528   -0.9108    0.2529 O   0  0  0  0  0  0  0  0  0  0  0  0
    0.4376   -0.2733    1.5423 C   0  0  0  0  0  0  0  0  0  0  0  0
   -1.0285    0.1597    1.4040 C   0  0  0  0  0  0  0  0  0  0  0  0
   -3.3570    1.0511   -0.3735 H   0  0  0  0  0  0  0  0  0  0  0  0
   -5.7145   -0.6205    0.6153 H   0  0  0  0  0  0  0  0  0  0  0  0
   -5.6866    2.3735    0.2882 H   0  0  0  0  0  0  0  0  0  0  0  0
   -5.3088    1.5544    1.8967 H   0  0  0  0  0  0  0  0  0  0  0  0
   -7.3531    0.4029    1.9395 H   0  0  0  0  0  0  0  0  0  0  0  0
   -7.7124    2.1260    1.6790 H   0  0  0  0  0  0  0  0  0  0  0  0
   -8.4950    1.8727   -0.4883 H   0  0  0  0  0  0  0  0  0  0  0  0
   -9.0085    0.3785    0.3112 H   0  0  0  0  0  0  0  0  0  0  0  0
   -7.9333    0.3477   -2.0464 H   0  0  0  0  0  0  0  0  0  0  0  0
   -7.2447   -1.8134    0.0147 H   0  0  0  0  0  0  0  0  0  0  0  0
   -7.2105   -1.8889   -1.7797 H   0  0  0  0  0  0  0  0  0  0  0  0
   -9.2473   -2.3633   -0.2788 H   0  0  0  0  0  0  0  0  0  0  0  0
   -5.8750    1.4252   -1.6154 H   0  0  0  0  0  0  0  0  0  0  0  0
   -5.5537   -0.3569   -1.9639 H   0  0  0  0  0  0  0  0  0  0  0  0
   -1.3960   -1.8910    1.0590 H   0  0  0  0  0  0  0  0  0  0  0  0
   -1.5563   -0.0327   -1.3581 H   0  0  0  0  0  0  0  0  0  0  0  0
   -1.5910   -1.8275   -1.3145 H   0  0  0  0  0  0  0  0  0  0  0  0
    0.6481   -2.0397   -1.1629 H   0  0  0  0  0  0  0  0  0  0  0  0
    0.6278   -0.3839   -1.7909 H   0  0  0  0  0  0  0  0  0  0  0  0
    4.7331    3.0019   -0.8765 H   0  0  0  0  0  0  0  0  0  0  0  0
    8.8832    1.8327    0.8764 H   0  0  0  0  0  0  0  0  0  0  0  0
   11.2733    1.2321    0.9008 H   0  0  0  0  0  0  0  0  0  0  0  0
   10.4704   -2.2927   -1.2636 H   0  0  0  0  0  0  0  0  0  0  0  0
    8.0348   -1.6906   -1.2962 H   0  0  0  0  0  0  0  0  0  0  0  0
    6.2290   -1.5168    0.3082 H   0  0  0  0  0  0  0  0  0  0  0  0
    0.4464   -1.2350    2.0728 H   0  0  0  0  0  0  0  0  0  0  0  0
    0.9742    0.4940    2.1053 H   0  0  0  0  0  0  0  0  0  0  0  0
   -1.0649    1.1435    0.9252 H   0  0  0  0  0  0  0  0  0  0  0  0
   -1.4225    0.2181    2.4226 H   0  0  0  0  0  0  0  0  0  0  0  0
  1  2  2  0
  2  3  1  0
  3  4  1  0
  4  5  1  0
  5  6  1  0
  6  7  1  0
  7  8  1  0
  8  9  1  0
  9 10  1  0
  8 11  1  0
  2 12  1  0
 12 13  1  0
 13 14  1  0
 14 15  1  0
 15 16  1  0
 16 17  2  0
 17 18  1  0
 18 19  2  0
 19 20  1  0
 20 21  1  0
 20 22  2  0
 22 23  1  0
 23 24  2  0
 24 25  1  0
 25 26  2  0
 26 27  1  0
 26 28  1  0
 28 29  2  0
 22 30  1  0
 30 31  2  0
 31 32  1  0
 15 33  1  0
 33 34  1  0
 11  4  1  0
 34 12  1  0
 32 16  1  0
 31 18  1  0
 29 23  1  0
  3 35  1  0
  4 36  1  1
  5 37  1  0
  5 38  1  0
  6 39  1  0
  6 40  1  0
  7 41  1  0
  7 42  1  0
  8 43  1  6
  9 44  1  0
  9 45  1  0
 10 46  1  0
 11 47  1  0
 11 48  1  0
 12 49  1  0
 13 50  1  0
 13 51  1  0
 14 52  1  0
 14 53  1  0
 19 54  1  0
 24 55  1  0
 25 56  1  0
 28 57  1  0
 29 58  1  0
 30 59  1  0
 33 60  1  0
 33 61  1  0
 34 62  1  0
 34 63  1  0
M  END
$$$$
