@<TRIPOS>MOLECULE
*****
 63 67 0 0 0
SMALL
GASTEIGER

@<TRIPOS>ATOM
      1 O          -3.8381   -1.7529    1.1179 O.2     1  UNL1       -0.2755
      2 C          -3.1609   -0.8234    0.6023 C.2     1  UNL1        0.2164
      3 N          -3.8735    0.2762    0.0550 N.am    1  UNL1       -0.3122
      4 C          -5.3013    0.2864    0.1097 C.3     1  UNL1        0.0234
      5 C          -5.8307    1.4702    0.9225 C.3     1  UNL1       -0.0345
      6 C          -7.2732    1.2049    1.1941 C.3     1  UNL1       -0.0511
      7 C          -8.0877    0.9383   -0.0281 C.3     1  UNL1       -0.0480
      8 C          -7.4259    0.0987   -1.0645 C.3     1  UNL1       -0.0161
      9 C          -7.6688   -1.3885   -0.8934 C.3     1  UNL1        0.0471
     10 O          -9.0444   -1.6761   -0.9609 O.3     1  UNL1       -0.3947
     11 C          -5.9505    0.3714   -1.2434 C.3     1  UNL1       -0.0296
     12 C          -1.6976   -0.9324    0.5991 C.3     1  UNL1        0.0384
     13 C          -1.1728   -0.9084   -0.8101 C.3     1  UNL1       -0.0259
     14 C           0.3127   -0.9975   -0.8964 C.3     1  UNL1        0.0170
     15 N           1.0217   -0.4886    0.2342 N.pl3   1  UNL1       -0.2850
     16 C           2.4114   -0.1593    0.0877 C.ar    1  UNL1        0.2911
     17 N           2.8229    1.0616   -0.2653 N.ar    1  UNL1       -0.1953
     18 C           4.1762    1.0264   -0.3100 C.ar    1  UNL1        0.1126
     19 C           5.1091    2.0015   -0.6160 C.ar    1  UNL1       -0.0136
     20 C           6.4378    1.6999   -0.5863 C.ar    1  UNL1        0.0509
     21 CL          7.5833    2.9694   -0.9855 Cl      1  UNL1       -0.0828
     22 C           6.8534    0.4350   -0.2544 C.ar    1  UNL1        0.0040
     23 C           8.2887    0.1048   -0.2182 C.ar    1  UNL1       -0.0163
     24 C           9.2167    0.9154    0.3958 C.ar    1  UNL1       -0.0526
     25 C          10.5706    0.5830    0.4154 C.ar    1  UNL1       -0.0428
     26 C          11.0202   -0.5740   -0.1834 C.ar    1  UNL1        0.0410
     27 CL         12.7339   -1.0040   -0.1639 Cl      1  UNL1       -0.0835
     28 C          10.0969   -1.3909   -0.8003 C.ar    1  UNL1       -0.0428
     29 C           8.7555   -1.0492   -0.8126 C.ar    1  UNL1       -0.0526
     30 C           5.9003   -0.5258    0.0485 C.ar    1  UNL1       -0.0080
     31 C           4.5630   -0.2489    0.0259 C.ar    1  UNL1        0.1577
     32 O           3.4528   -0.9108    0.2529 O.2     1  UNL1       -0.4244
     33 C           0.4376   -0.2733    1.5423 C.3     1  UNL1        0.0170
     34 C          -1.0285    0.1597    1.4040 C.3     1  UNL1       -0.0259
     35 H          -3.3570    1.0511   -0.3735 H       1  UNL1        0.1490
     36 H          -5.7145   -0.6205    0.6153 H       1  UNL1        0.0498
     37 H          -5.6866    2.3735    0.2882 H       1  UNL1        0.0283
     38 H          -5.3088    1.5544    1.8967 H       1  UNL1        0.0283
     39 H          -7.3531    0.4029    1.9395 H       1  UNL1        0.0266
     40 H          -7.7124    2.1260    1.6790 H       1  UNL1        0.0266
     41 H          -8.4950    1.8727   -0.4883 H       1  UNL1        0.0269
     42 H          -9.0085    0.3785    0.3112 H       1  UNL1        0.0269
     43 H          -7.9333    0.3477   -2.0464 H       1  UNL1        0.0323
     44 H          -7.2447   -1.8134    0.0147 H       1  UNL1        0.0560
     45 H          -7.2105   -1.8889   -1.7797 H       1  UNL1        0.0560
     46 H          -9.2473   -2.3633   -0.2788 H       1  UNL1        0.2094
     47 H          -5.8750    1.4252   -1.6154 H       1  UNL1        0.0286
     48 H          -5.5537   -0.3569   -1.9639 H       1  UNL1        0.0286
     49 H          -1.3960   -1.8910    1.0590 H       1  UNL1        0.0395
     50 H          -1.5563   -0.0327   -1.3581 H       1  UNL1        0.0288
     51 H          -1.5910   -1.8275   -1.3145 H       1  UNL1        0.0288
     52 H           0.6481   -2.0397   -1.1629 H       1  UNL1        0.0465
     53 H           0.6278   -0.3839   -1.7909 H       1  UNL1        0.0465
     54 H           4.7331    3.0019   -0.8765 H       1  UNL1        0.0655
     55 H           8.8832    1.8327    0.8764 H       1  UNL1        0.0624
     56 H          11.2733    1.2321    0.9008 H       1  UNL1        0.0632
     57 H          10.4704   -2.2927   -1.2636 H       1  UNL1        0.0632
     58 H           8.0348   -1.6906   -1.2962 H       1  UNL1        0.0624
     59 H           6.2290   -1.5168    0.3082 H       1  UNL1        0.0661
     60 H           0.4464   -1.2350    2.0728 H       1  UNL1        0.0465
     61 H           0.9742    0.4940    2.1053 H       1  UNL1        0.0465
     62 H          -1.0649    1.1435    0.9252 H       1  UNL1        0.0288
     63 H          -1.4225    0.2181    2.4226 H       1  UNL1        0.0288
@<TRIPOS>BOND
     1     1     2    2
     2     2     3   am
     3     3     4    1
     4     4     5    1
     5     5     6    1
     6     6     7    1
     7     7     8    1
     8     8     9    1
     9     9    10    1
    10     8    11    1
    11     2    12    1
    12    12    13    1
    13    13    14    1
    14    14    15    1
    15    15    16    1
    16    16    17   ar
    17    17    18   ar
    18    18    19   ar
    19    19    20   ar
    20    20    21    1
    21    20    22   ar
    22    22    23    1
    23    23    24   ar
    24    24    25   ar
    25    25    26   ar
    26    26    27    1
    27    26    28   ar
    28    28    29   ar
    29    22    30   ar
    30    30    31   ar
    31    31    32   ar
    32    15    33    1
    33    33    34    1
    34    11     4    1
    35    34    12    1
    36    32    16   ar
    37    31    18   ar
    38    29    23   ar
    39     3    35    1
    40     4    36    1
    41     5    37    1
    42     5    38    1
    43     6    39    1
    44     6    40    1
    45     7    41    1
    46     7    42    1
    47     8    43    1
    48     9    44    1
    49     9    45    1
    50    10    46    1
    51    11    47    1
    52    11    48    1
    53    12    49    1
    54    13    50    1
    55    13    51    1
    56    14    52    1
    57    14    53    1
    58    19    54    1
    59    24    55    1
    60    25    56    1
    61    28    57    1
    62    29    58    1
    63    30    59    1
    64    33    60    1
    65    33    61    1
    66    34    62    1
    67    34    63    1
