@<TRIPOS>MOLECULE
*****
 35 36 0 0 0
SMALL
GASTEIGER

@<TRIPOS>ATOM
      1 C           6.5164    0.1891    0.2140 C.3     1  UNL1       -0.0057
      2 C           5.1327   -0.2475    0.0295 C.2     1  UNL1        0.1133
      3 O           4.7987   -1.5198   -0.3997 O.2     1  UNL1       -0.5099
      4 C           4.0795    0.5127    0.2491 C.2     1  UNL1        0.1502
      5 C           4.4321    1.8544    0.7017 C.1     1  UNL1        0.1077
      6 N           4.6966    2.9415    1.0677 N.1     1  UNL1       -0.1906
      7 C           2.6518    0.2827    0.1313 C.2     1  UNL1        0.2618
      8 O           1.7738    1.1605    0.3948 O.2     1  UNL1       -0.2690
      9 N           1.9675   -0.8925   -0.2761 N.am    1  UNL1       -0.2808
     10 C           0.5502   -0.6868   -0.2500 C.ar    1  UNL1        0.0351
     11 C          -0.0671   -0.9930    0.9461 C.ar    1  UNL1       -0.0215
     12 C          -1.4331   -0.8208    1.0494 C.ar    1  UNL1        0.0505
     13 CL         -2.3189   -1.1776    2.5185 Cl      1  UNL1       -0.0829
     14 C          -2.1300   -0.3427   -0.0663 C.ar    1  UNL1        0.0019
     15 C          -1.4944   -0.0404   -1.2590 C.ar    1  UNL1       -0.0508
     16 C          -0.1289   -0.2143   -1.3571 C.ar    1  UNL1       -0.0398
     17 C          -3.5835   -0.1330   -0.0358 C.ar    1  UNL1        0.0018
     18 C          -4.5607   -1.0224   -0.3554 C.ar    1  UNL1       -0.0526
     19 C          -5.8894   -0.6258   -0.2600 C.ar    1  UNL1       -0.0611
     20 C          -6.2529    0.6480    0.1507 C.ar    1  UNL1       -0.0603
     21 C          -5.2459    1.5492    0.4750 C.ar    1  UNL1       -0.0428
     22 C          -3.9339    1.1476    0.3775 C.ar    1  UNL1        0.0487
     23 CL         -2.7613    2.3894    0.8186 Cl      1  UNL1       -0.0829
     24 H           7.1812   -0.1810   -0.6019 H       1  UNL1        0.0308
     25 H           6.5371    1.3113    0.1517 H       1  UNL1        0.0308
     26 H           6.8861   -0.1351    1.2076 H       1  UNL1        0.0308
     27 H           4.8955   -2.3497    0.1752 H       1  UNL1        0.2917
     28 H           2.5425   -1.7187   -0.5315 H       1  UNL1        0.1552
     29 H           0.4955   -1.3631    1.7993 H       1  UNL1        0.0651
     30 H          -2.0413    0.3282   -2.1150 H       1  UNL1        0.0625
     31 H           0.4496    0.0012   -2.2643 H       1  UNL1        0.0636
     32 H          -4.2276   -1.9820   -0.6632 H       1  UNL1        0.0624
     33 H          -6.6591   -1.3531   -0.5205 H       1  UNL1        0.0618
     34 H          -7.2873    0.9480    0.2222 H       1  UNL1        0.0618
     35 H          -5.5718    2.5354    0.7918 H       1  UNL1        0.0632
@<TRIPOS>BOND
     1     1     2    1
     2     2     3    1
     3     2     4    2
     4     4     5    1
     5     5     6    3
     6     4     7    1
     7     7     8    2
     8     7     9   am
     9     9    10    1
    10    10    11   ar
    11    11    12   ar
    12    12    13    1
    13    12    14   ar
    14    14    15   ar
    15    15    16   ar
    16    14    17    1
    17    17    18   ar
    18    18    19   ar
    19    19    20   ar
    20    20    21   ar
    21    21    22   ar
    22    22    23    1
    23    16    10   ar
    24    22    17   ar
    25     1    24    1
    26     1    25    1
    27     1    26    1
    28     3    27    1
    29     9    28    1
    30    11    29    1
    31    15    30    1
    32    16    31    1
    33    18    32    1
    34    19    33    1
    35    20    34    1
    36    21    35    1
