@<TRIPOS>MOLECULE
*****
 43 45 0 0 0
SMALL
GASTEIGER

@<TRIPOS>ATOM
      1 C          -1.1046    1.5528    2.2903 C.3     1  UNL1       -0.0239
      2 C          -1.5337    0.4518    1.3905 C.ar    1  UNL1        0.0222
      3 C          -2.6929    0.4806    0.6003 C.ar    1  UNL1       -0.0070
      4 C          -3.5893    1.6301    0.5974 C.3     1  UNL1        0.0721
      5 C          -4.5080    1.7945   -0.5020 C.2     1  UNL1        0.3091
      6 O          -4.0829    1.9779   -1.6769 O.2     1  UNL1       -0.2507
      7 O          -5.8913    1.7618   -0.3380 O.3     1  UNL1       -0.4804
      8 C          -2.7764   -0.6970   -0.0923 C.ar    1  UNL1        0.0228
      9 C          -3.7070   -1.1754   -0.9883 C.ar    1  UNL1       -0.0493
     10 C          -3.5179   -2.4399   -1.5298 C.ar    1  UNL1       -0.0429
     11 C          -2.4006   -3.1432   -1.1311 C.ar    1  UNL1        0.0299
     12 N          -1.5231   -2.6490   -0.2618 N.ar    1  UNL1       -0.2373
     13 C          -1.6770   -1.4181    0.2833 C.ar    1  UNL1        0.1414
     14 N          -0.9199   -0.7195    1.1854 N.ar    1  UNL1       -0.3247
     15 C           0.2884   -1.2564    1.7357 C.3     1  UNL1        0.0499
     16 C           1.5326   -0.9008    0.9875 C.ar    1  UNL1       -0.0276
     17 C           2.5561   -0.2150    1.6266 C.ar    1  UNL1       -0.0551
     18 C           3.6968    0.1114    0.9445 C.ar    1  UNL1       -0.0366
     19 C           3.9058   -0.2046   -0.3797 C.ar    1  UNL1        0.0879
     20 S           5.4182    0.2105   -1.1692 S.O2    1  UNL1       -0.0059
     21 C           5.5142    1.9861   -1.2228 C.3     1  UNL1        0.0596
     22 O           5.4167   -0.2590   -2.6045 O.2     1  UNL1       -0.1696
     23 O           6.5814   -0.3286   -0.4321 O.2     1  UNL1       -0.1696
     24 C           2.8969   -0.8815   -1.0177 C.ar    1  UNL1       -0.0366
     25 C           1.7250   -1.2215   -0.3328 C.ar    1  UNL1       -0.0551
     26 H          -0.5096    2.2564    1.7145 H       1  UNL1        0.0292
     27 H          -0.6731    1.2031    3.2432 H       1  UNL1        0.0292
     28 H          -2.0421    2.1049    2.5898 H       1  UNL1        0.0292
     29 H          -2.9438    2.5675    0.6629 H       1  UNL1        0.0427
     30 H          -4.1428    1.6400    1.5824 H       1  UNL1        0.0427
     31 H          -6.5459    1.7216   -1.1329 H       1  UNL1        0.2951
     32 H          -4.5584   -0.6053   -1.2597 H       1  UNL1        0.0625
     33 H          -4.2330   -2.8162   -2.2285 H       1  UNL1        0.0633
     34 H          -2.2671   -4.1208   -1.5565 H       1  UNL1        0.0830
     35 H           0.2548   -2.3788    1.8293 H       1  UNL1        0.0542
     36 H           0.4402   -0.9168    2.8067 H       1  UNL1        0.0542
     37 H           2.4498    0.0655    2.6721 H       1  UNL1        0.0621
     38 H           4.5216    0.6672    1.4457 H       1  UNL1        0.0637
     39 H           5.7322    2.2944   -0.1546 H       1  UNL1        0.0468
     40 H           6.3890    2.3399   -1.8087 H       1  UNL1        0.0468
     41 H           4.5650    2.4446   -1.4941 H       1  UNL1        0.0468
     42 H           3.0127   -1.1591   -2.0726 H       1  UNL1        0.0637
     43 H           0.9432   -1.7561   -0.8855 H       1  UNL1        0.0621
@<TRIPOS>BOND
     1     1     2    1
     2     2     3   ar
     3     3     4    1
     4     4     5    1
     5     5     6    2
     6     5     7    1
     7     3     8   ar
     8     8     9   ar
     9     9    10   ar
    10    10    11   ar
    11    11    12   ar
    12    12    13   ar
    13    13    14   ar
    14    14    15    1
    15    15    16    1
    16    16    17   ar
    17    17    18   ar
    18    18    19   ar
    19    19    20    1
    20    20    21    1
    21    20    22    2
    22    20    23    2
    23    19    24   ar
    24    24    25   ar
    25    14     2   ar
    26    25    16   ar
    27    13     8   ar
    28     1    26    1
    29     1    27    1
    30     1    28    1
    31     4    29    1
    32     4    30    1
    33     7    31    1
    34     9    32    1
    35    10    33    1
    36    11    34    1
    37    15    35    1
    38    15    36    1
    39    17    37    1
    40    18    38    1
    41    21    39    1
    42    21    40    1
    43    21    41    1
    44    24    42    1
    45    25    43    1
