
     RDKit          3D

 43 45  0  0  0  0  0  0  0  0999 V2000
   -1.1046    1.5528    2.2903 C   0  0  0  0  0  0  0  0  0  0  0  0
   -1.5337    0.4518    1.3905 C   0  0  0  0  0  0  0  0  0  0  0  0
   -2.6929    0.4806    0.6003 C   0  0  0  0  0  0  0  0  0  0  0  0
   -3.5893    1.6301    0.5974 C   0  0  0  0  0  0  0  0  0  0  0  0
   -4.5080    1.7945   -0.5020 C   0  0  0  0  0  0  0  0  0  0  0  0
   -4.0829    1.9779   -1.6769 O   0  0  0  0  0  0  0  0  0  0  0  0
   -5.8913    1.7618   -0.3380 O   0  0  0  0  0  0  0  0  0  0  0  0
   -2.7764   -0.6970   -0.0923 C   0  0  0  0  0  0  0  0  0  0  0  0
   -3.7070   -1.1754   -0.9883 C   0  0  0  0  0  0  0  0  0  0  0  0
   -3.5179   -2.4399   -1.5298 C   0  0  0  0  0  0  0  0  0  0  0  0
   -2.4006   -3.1432   -1.1311 C   0  0  0  0  0  0  0  0  0  0  0  0
   -1.5231   -2.6490   -0.2618 N   0  0  0  0  0  0  0  0  0  0  0  0
   -1.6770   -1.4181    0.2833 C   0  0  0  0  0  0  0  0  0  0  0  0
   -0.9199   -0.7195    1.1854 N   0  0  0  0  0  0  0  0  0  0  0  0
    0.2884   -1.2564    1.7357 C   0  0  0  0  0  0  0  0  0  0  0  0
    1.5326   -0.9008    0.9875 C   0  0  0  0  0  0  0  0  0  0  0  0
    2.5561   -0.2150    1.6266 C   0  0  0  0  0  0  0  0  0  0  0  0
    3.6968    0.1114    0.9445 C   0  0  0  0  0  0  0  0  0  0  0  0
    3.9058   -0.2046   -0.3797 C   0  0  0  0  0  0  0  0  0  0  0  0
    5.4182    0.2105   -1.1692 S   0  0  0  0  0  6  0  0  0  0  0  0
    5.5142    1.9861   -1.2228 C   0  0  0  0  0  0  0  0  0  0  0  0
    5.4167   -0.2590   -2.6045 O   0  0  0  0  0  0  0  0  0  0  0  0
    6.5814   -0.3286   -0.4321 O   0  0  0  0  0  0  0  0  0  0  0  0
    2.8969   -0.8815   -1.0177 C   0  0  0  0  0  0  0  0  0  0  0  0
    1.7250   -1.2215   -0.3328 C   0  0  0  0  0  0  0  0  0  0  0  0
   -0.5096    2.2564    1.7145 H   0  0  0  0  0  0  0  0  0  0  0  0
   -0.6731    1.2031    3.2432 H   0  0  0  0  0  0  0  0  0  0  0  0
   -2.0421    2.1049    2.5898 H   0  0  0  0  0  0  0  0  0  0  0  0
   -2.9438    2.5675    0.6629 H   0  0  0  0  0  0  0  0  0  0  0  0
   -4.1428    1.6400    1.5824 H   0  0  0  0  0  0  0  0  0  0  0  0
   -6.5459    1.7216   -1.1329 H   0  0  0  0  0  0  0  0  0  0  0  0
   -4.5584   -0.6053   -1.2597 H   0  0  0  0  0  0  0  0  0  0  0  0
   -4.2330   -2.8162   -2.2285 H   0  0  0  0  0  0  0  0  0  0  0  0
   -2.2671   -4.1208   -1.5565 H   0  0  0  0  0  0  0  0  0  0  0  0
    0.2548   -2.3788    1.8293 H   0  0  0  0  0  0  0  0  0  0  0  0
    0.4402   -0.9168    2.8067 H   0  0  0  0  0  0  0  0  0  0  0  0
    2.4498    0.0655    2.6721 H   0  0  0  0  0  0  0  0  0  0  0  0
    4.5216    0.6672    1.4457 H   0  0  0  0  0  0  0  0  0  0  0  0
    5.7322    2.2944   -0.1546 H   0  0  0  0  0  0  0  0  0  0  0  0
    6.3890    2.3399   -1.8087 H   0  0  0  0  0  0  0  0  0  0  0  0
    4.5650    2.4446   -1.4941 H   0  0  0  0  0  0  0  0  0  0  0  0
    3.0127   -1.1591   -2.0726 H   0  0  0  0  0  0  0  0  0  0  0  0
    0.9432   -1.7561   -0.8855 H   0  0  0  0  0  0  0  0  0  0  0  0
  1  2  1  0
  2  3  2  0
  3  4  1  0
  4  5  1  0
  5  6  2  0
  5  7  1  0
  3  8  1  0
  8  9  2  0
  9 10  1  0
 10 11  2  0
 11 12  1  0
 12 13  2  0
 13 14  1  0
 14 15  1  0
 15 16  1  0
 16 17  2  0
 17 18  1  0
 18 19  2  0
 19 20  1  0
 20 21  1  0
 20 22  2  0
 20 23  2  0
 19 24  1  0
 24 25  2  0
 14  2  1  0
 25 16  1  0
 13  8  1  0
  1 26  1  0
  1 27  1  0
  1 28  1  0
  4 29  1  0
  4 30  1  0
  7 31  1  0
  9 32  1  0
 10 33  1  0
 11 34  1  0
 15 35  1  0
 15 36  1  0
 17 37  1  0
 18 38  1  0
 21 39  1  0
 21 40  1  0
 21 41  1  0
 24 42  1  0
 25 43  1  0
M  END
$$$$
