@<TRIPOS>MOLECULE
*****
 32 33 0 0 0
SMALL
GASTEIGER

@<TRIPOS>ATOM
      1 C           1.1069    2.1529    1.6309 C.3     1  UNL1       -0.0636
      2 C           0.4468    1.9827    0.3217 C.3     1  UNL1       -0.0293
      3 C           0.0217    0.6086   -0.0687 C.3     1  UNL1        0.1481
      4 C          -0.6060    0.8335   -1.4266 C.2     1  UNL1        0.2399
      5 O           0.2669    1.1945   -2.2843 O.2     1  UNL1       -0.2739
      6 N          -1.9423    0.6893   -1.7780 N.am    1  UNL1       -0.2386
      7 C          -2.8011    0.2164   -0.7575 C.2     1  UNL1        0.3146
      8 O          -4.0415    0.0580   -1.0030 O.2     1  UNL1       -0.2518
      9 N          -2.3953   -0.1046    0.5448 N.am    1  UNL1       -0.2277
     10 C          -3.3252   -0.5853    1.5470 C.3     1  UNL1        0.0124
     11 C          -1.0126    0.0644    0.8435 C.2     1  UNL1        0.2422
     12 O          -0.6274   -0.2847    2.0037 O.2     1  UNL1       -0.2736
     13 C           1.1217   -0.3595   -0.2997 C.ar    1  UNL1       -0.0237
     14 C           0.7321   -1.4392   -1.1091 C.ar    1  UNL1       -0.0571
     15 C           1.5913   -2.4575   -1.4546 C.ar    1  UNL1       -0.0615
     16 C           2.8780   -2.4679   -1.0228 C.ar    1  UNL1       -0.0617
     17 C           3.2636   -1.4140   -0.2311 C.ar    1  UNL1       -0.0615
     18 C           2.4312   -0.3796    0.1336 C.ar    1  UNL1       -0.0571
     19 H           1.0851    1.2760    2.3119 H       1  UNL1        0.0230
     20 H           2.0962    2.6303    1.5261 H       1  UNL1        0.0230
     21 H           0.5109    2.9307    2.2032 H       1  UNL1        0.0230
     22 H          -0.4720    2.6207    0.2242 H       1  UNL1        0.0280
     23 H           1.1305    2.4018   -0.4769 H       1  UNL1        0.0280
     24 H          -2.2509    0.9241   -2.7378 H       1  UNL1        0.1591
     25 H          -3.9975    0.2345    1.8513 H       1  UNL1        0.0434
     26 H          -3.9793   -1.3541    1.0623 H       1  UNL1        0.0434
     27 H          -2.8005   -1.0786    2.3636 H       1  UNL1        0.0434
     28 H          -0.2833   -1.5511   -1.5252 H       1  UNL1        0.0621
     29 H           1.2701   -3.2892   -2.0851 H       1  UNL1        0.0618
     30 H           3.6391   -3.2078   -1.2271 H       1  UNL1        0.0618
     31 H           4.2669   -1.3029    0.1802 H       1  UNL1        0.0618
     32 H           2.6758    0.4578    0.7397 H       1  UNL1        0.0621
@<TRIPOS>BOND
     1     1     2    1
     2     2     3    1
     3     3     4    1
     4     4     5    2
     5     4     6   am
     6     6     7   am
     7     7     8    2
     8     7     9   am
     9     9    10    1
    10     9    11   am
    11    11    12    2
    12     3    13    1
    13    13    14   ar
    14    14    15   ar
    15    15    16   ar
    16    16    17   ar
    17    17    18   ar
    18    11     3    1
    19    18    13   ar
    20     1    19    1
    21     1    20    1
    22     1    21    1
    23     2    22    1
    24     2    23    1
    25     6    24    1
    26    10    25    1
    27    10    26    1
    28    10    27    1
    29    14    28    1
    30    15    29    1
    31    16    30    1
    32    17    31    1
    33    18    32    1
