@<TRIPOS>MOLECULE
*****
 37 37 0 0 0
SMALL
GASTEIGER

@<TRIPOS>ATOM
      1 C          -1.6876   -2.5112    0.5152 C.3     1  UNL1       -0.0653
      2 C          -2.6106   -1.4039    0.0943 C.3     1  UNL1       -0.0559
      3 C          -2.0371   -0.0339    0.5951 C.3     1  UNL1       -0.0522
      4 C          -0.7170    0.0591   -0.0597 C.3     1  UNL1       -0.0380
      5 C           0.1833    1.2113    0.2051 C.3     1  UNL1        0.0477
      6 C          -0.3610    2.5478   -0.1254 C.3     1  UNL1        0.0404
      7 C          -1.5076    3.0489    0.6018 C.2     1  UNL1        0.2366
      8 O          -1.8706    2.5826    1.6983 O.2     1  UNL1       -0.2737
      9 N          -2.2672    4.1210    0.0574 N.am    1  UNL1       -0.1975
     10 O          -3.3526    4.6294    0.6981 O.3     1  UNL1       -0.2952
     11 S           1.6087    0.9637   -0.9288 S.O     1  UNL1        0.0573
     12 O           1.1795    1.1332   -2.3549 O.2     1  UNL1       -0.2518
     13 C           2.4060   -0.5559   -0.5902 C.ar    1  UNL1        0.0391
     14 C           2.0435   -1.7346   -1.2092 C.ar    1  UNL1       -0.0459
     15 C           2.6730   -2.9356   -0.9423 C.ar    1  UNL1       -0.0606
     16 C           3.7084   -2.9932   -0.0261 C.ar    1  UNL1       -0.0617
     17 C           4.0834   -1.8219    0.6023 C.ar    1  UNL1       -0.0606
     18 C           3.4450   -0.6307    0.3249 C.ar    1  UNL1       -0.0459
     19 H          -0.9316   -2.7559   -0.2662 H       1  UNL1        0.0230
     20 H          -1.1505   -2.3196    1.4461 H       1  UNL1        0.0230
     21 H          -2.3018   -3.4452    0.6447 H       1  UNL1        0.0230
     22 H          -2.6201   -1.2901   -1.0077 H       1  UNL1        0.0263
     23 H          -3.6050   -1.5650    0.5088 H       1  UNL1        0.0263
     24 H          -2.7953    0.7073    0.2465 H       1  UNL1        0.0266
     25 H          -2.0425   -0.1088    1.6834 H       1  UNL1        0.0266
     26 H          -0.8360   -0.0320   -1.1982 H       1  UNL1        0.0277
     27 H          -0.1817   -0.9190    0.2099 H       1  UNL1        0.0277
     28 H           0.6002    1.1801    1.2553 H       1  UNL1        0.0445
     29 H           0.5124    3.2673   -0.0550 H       1  UNL1        0.0371
     30 H          -0.5798    2.5624   -1.2452 H       1  UNL1        0.0371
     31 H          -1.9759    4.5213   -0.8585 H       1  UNL1        0.1822
     32 H          -3.5040    5.5728    0.4793 H       1  UNL1        0.2414
     33 H           1.2308   -1.7285   -1.9380 H       1  UNL1        0.0629
     34 H           2.4007   -3.8709   -1.4196 H       1  UNL1        0.0618
     35 H           4.2198   -3.9113    0.2051 H       1  UNL1        0.0618
     36 H           4.9023   -1.8452    1.3325 H       1  UNL1        0.0618
     37 H           3.7385    0.3042    0.8212 H       1  UNL1        0.0629
@<TRIPOS>BOND
     1     1     2    1
     2     2     3    1
     3     3     4    1
     4     4     5    1
     5     5     6    1
     6     6     7    1
     7     7     8    2
     8     7     9   am
     9     9    10    1
    10     5    11    1
    11    11    12    2
    12    11    13    1
    13    13    14   ar
    14    14    15   ar
    15    15    16   ar
    16    16    17   ar
    17    17    18   ar
    18    18    13   ar
    19     1    19    1
    20     1    20    1
    21     1    21    1
    22     2    22    1
    23     2    23    1
    24     3    24    1
    25     3    25    1
    26     4    26    1
    27     4    27    1
    28     5    28    1
    29     6    29    1
    30     6    30    1
    31     9    31    1
    32    10    32    1
    33    14    33    1
    34    15    34    1
    35    16    35    1
    36    17    36    1
    37    18    37    1
