
     RDKit          3D

 37 37  0  0  0  0  0  0  0  0999 V2000
   -1.6876   -2.5112    0.5152 C   0  0  0  0  0  0  0  0  0  0  0  0
   -2.6106   -1.4039    0.0943 C   0  0  0  0  0  0  0  0  0  0  0  0
   -2.0371   -0.0339    0.5951 C   0  0  0  0  0  0  0  0  0  0  0  0
   -0.7170    0.0591   -0.0597 C   0  0  0  0  0  0  0  0  0  0  0  0
    0.1833    1.2113    0.2051 C   0  0  0  0  0  0  0  0  0  0  0  0
   -0.3610    2.5478   -0.1254 C   0  0  0  0  0  0  0  0  0  0  0  0
   -1.5076    3.0489    0.6018 C   0  0  0  0  0  0  0  0  0  0  0  0
   -1.8706    2.5826    1.6983 O   0  0  0  0  0  0  0  0  0  0  0  0
   -2.2672    4.1210    0.0574 N   0  0  0  0  0  0  0  0  0  0  0  0
   -3.3526    4.6294    0.6981 O   0  0  0  0  0  0  0  0  0  0  0  0
    1.6087    0.9637   -0.9288 S   0  0  0  0  0  4  0  0  0  0  0  0
    1.1795    1.1332   -2.3549 O   0  0  0  0  0  0  0  0  0  0  0  0
    2.4060   -0.5559   -0.5902 C   0  0  0  0  0  0  0  0  0  0  0  0
    2.0435   -1.7346   -1.2092 C   0  0  0  0  0  0  0  0  0  0  0  0
    2.6730   -2.9356   -0.9423 C   0  0  0  0  0  0  0  0  0  0  0  0
    3.7084   -2.9932   -0.0261 C   0  0  0  0  0  0  0  0  0  0  0  0
    4.0834   -1.8219    0.6023 C   0  0  0  0  0  0  0  0  0  0  0  0
    3.4450   -0.6307    0.3249 C   0  0  0  0  0  0  0  0  0  0  0  0
   -0.9316   -2.7559   -0.2662 H   0  0  0  0  0  0  0  0  0  0  0  0
   -1.1505   -2.3196    1.4461 H   0  0  0  0  0  0  0  0  0  0  0  0
   -2.3018   -3.4452    0.6447 H   0  0  0  0  0  0  0  0  0  0  0  0
   -2.6201   -1.2901   -1.0077 H   0  0  0  0  0  0  0  0  0  0  0  0
   -3.6050   -1.5650    0.5088 H   0  0  0  0  0  0  0  0  0  0  0  0
   -2.7953    0.7073    0.2465 H   0  0  0  0  0  0  0  0  0  0  0  0
   -2.0425   -0.1088    1.6834 H   0  0  0  0  0  0  0  0  0  0  0  0
   -0.8360   -0.0320   -1.1982 H   0  0  0  0  0  0  0  0  0  0  0  0
   -0.1817   -0.9190    0.2099 H   0  0  0  0  0  0  0  0  0  0  0  0
    0.6002    1.1801    1.2553 H   0  0  0  0  0  0  0  0  0  0  0  0
    0.5124    3.2673   -0.0550 H   0  0  0  0  0  0  0  0  0  0  0  0
   -0.5798    2.5624   -1.2452 H   0  0  0  0  0  0  0  0  0  0  0  0
   -1.9759    4.5213   -0.8585 H   0  0  0  0  0  0  0  0  0  0  0  0
   -3.5040    5.5728    0.4793 H   0  0  0  0  0  0  0  0  0  0  0  0
    1.2308   -1.7285   -1.9380 H   0  0  0  0  0  0  0  0  0  0  0  0
    2.4007   -3.8709   -1.4196 H   0  0  0  0  0  0  0  0  0  0  0  0
    4.2198   -3.9113    0.2051 H   0  0  0  0  0  0  0  0  0  0  0  0
    4.9023   -1.8452    1.3325 H   0  0  0  0  0  0  0  0  0  0  0  0
    3.7385    0.3042    0.8212 H   0  0  0  0  0  0  0  0  0  0  0  0
  1  2  1  0
  2  3  1  0
  3  4  1  0
  4  5  1  0
  5  6  1  0
  6  7  1  0
  7  8  2  0
  7  9  1  0
  9 10  1  0
  5 11  1  0
 11 12  2  0
 11 13  1  0
 13 14  2  0
 14 15  1  0
 15 16  2  0
 16 17  1  0
 17 18  2  0
 18 13  1  0
  1 19  1  0
  1 20  1  0
  1 21  1  0
  2 22  1  0
  2 23  1  0
  3 24  1  0
  3 25  1  0
  4 26  1  0
  4 27  1  0
  5 28  1  0
  6 29  1  0
  6 30  1  0
  9 31  1  0
 10 32  1  0
 14 33  1  0
 15 34  1  0
 16 35  1  0
 17 36  1  0
 18 37  1  0
M  END
$$$$
