@<TRIPOS>MOLECULE
*****
 61 64 0 0 0
SMALL
GASTEIGER

@<TRIPOS>ATOM
      1 C           3.5525   -0.6158   -2.1491 C.3     1  UNL1       -0.0374
      2 C           3.9373   -0.3572   -0.7319 C.ar    1  UNL1       -0.0165
      3 C           5.1957    0.2473   -0.5273 C.ar    1  UNL1       -0.0133
      4 C           5.6623    0.4821    0.7379 C.ar    1  UNL1        0.1394
      5 O           6.8749    1.0658    1.0475 O.3     1  UNL1       -0.4827
      6 C           7.8084    1.5047    0.1199 C.3     1  UNL1        0.1465
      7 C           9.2397    1.0820    0.3721 C.3     1  UNL1        0.0869
      8 O           9.6136    2.4101    0.1571 O.3     1  UNL1       -0.3723
      9 C           8.3366    2.8886    0.4972 C.3     1  UNL1        0.0869
     10 C           4.8232    0.0893    1.7696 C.ar    1  UNL1        0.0701
     11 N           3.6438   -0.4767    1.5484 N.ar    1  UNL1       -0.2465
     12 C           3.1285   -0.7334    0.2974 C.ar    1  UNL1        0.1288
     13 C           1.8019   -1.2981    0.1946 C.2     1  UNL1        0.2668
     14 O           1.3939   -1.9557    1.2321 O.2     1  UNL1       -0.2682
     15 N           0.8814   -1.2469   -0.8418 N.am    1  UNL1       -0.2802
     16 C          -0.4123   -1.8773   -0.7934 C.ar    1  UNL1        0.0343
     17 C          -0.5815   -3.1744   -1.2312 C.ar    1  UNL1       -0.0377
     18 C          -1.8063   -3.8090   -1.1991 C.ar    1  UNL1       -0.0243
     19 C          -2.9322   -3.1539   -0.7168 C.ar    1  UNL1        0.1312
     20 F          -4.1441   -3.7803   -0.6788 F       1  UNL1       -0.2050
     21 C          -2.7730   -1.8599   -0.2783 C.ar    1  UNL1        0.0448
     22 C          -3.9751   -1.1410    0.2371 C.3     1  UNL1        0.2263
     23 C          -4.3199   -1.8661    1.5575 C.3     1  UNL1        0.1433
     24 F          -3.2461   -1.7687    2.4206 F       1  UNL1       -0.2438
     25 C          -5.1133   -1.1476   -0.7014 C.3     1  UNL1        0.1211
     26 S          -5.4177    0.3991   -1.5161 S.O2    1  UNL1       -0.0100
     27 O          -6.7606    0.3741   -2.1475 O.2     1  UNL1       -0.1731
     28 O          -4.3292    0.6567   -2.5100 O.2     1  UNL1       -0.1731
     29 C          -5.3322    1.6160   -0.1908 C.3     1  UNL1        0.1831
     30 C          -6.4693    1.3665    0.7475 C.3     1  UNL1       -0.0288
     31 C          -5.3120    2.9843   -0.7816 C.3     1  UNL1       -0.0288
     32 C          -4.0258    1.2967    0.4908 C.2     1  UNL1        0.3068
     33 N          -3.3265    2.4179    1.0051 N.pl3   1  UNL1       -0.2488
     34 N          -3.5371    0.1601    0.6280 N.2     1  UNL1       -0.0698
     35 C          -1.5322   -1.2331   -0.3165 C.ar    1  UNL1       -0.0300
     36 H           2.9642    0.1725   -2.6122 H       1  UNL1        0.0278
     37 H           3.0808   -1.6002   -2.2840 H       1  UNL1        0.0278
     38 H           4.5262   -0.7266   -2.7542 H       1  UNL1        0.0278
     39 H           5.8042    0.5312   -1.3717 H       1  UNL1        0.0658
     40 H           7.5739    1.3827   -0.9380 H       1  UNL1        0.0780
     41 H           9.6715    0.4373   -0.4246 H       1  UNL1        0.0597
     42 H           9.4411    0.7042    1.3919 H       1  UNL1        0.0597
     43 H           7.9632    3.6860   -0.1447 H       1  UNL1        0.0597
     44 H           8.3059    3.0482    1.5890 H       1  UNL1        0.0597
     45 H           5.1926    0.2756    2.7918 H       1  UNL1        0.0867
     46 H           1.0911   -0.7162   -1.6956 H       1  UNL1        0.1552
     47 H           0.3137   -3.6687   -1.6049 H       1  UNL1        0.0637
     48 H          -1.8964   -4.8185   -1.5487 H       1  UNL1        0.0647
     49 H          -4.5504   -2.9149    1.3914 H       1  UNL1        0.0666
     50 H          -5.1722   -1.3654    2.0636 H       1  UNL1        0.0666
     51 H          -6.0336   -1.4302   -0.1060 H       1  UNL1        0.0551
     52 H          -5.0799   -1.9027   -1.5093 H       1  UNL1        0.0551
     53 H          -6.0879    0.8081    1.6231 H       1  UNL1        0.0256
     54 H          -6.8235    2.3571    1.1132 H       1  UNL1        0.0256
     55 H          -7.2568    0.8069    0.2153 H       1  UNL1        0.0256
     56 H          -4.2951    3.2957   -1.0482 H       1  UNL1        0.0256
     57 H          -5.7940    3.7016   -0.0891 H       1  UNL1        0.0256
     58 H          -5.9061    2.9616   -1.7261 H       1  UNL1        0.0256
     59 H          -3.8300    3.1216    1.5512 H       1  UNL1        0.2881
     60 H          -2.3206    2.5070    0.8210 H       1  UNL1        0.2881
     61 H          -1.4288   -0.1996    0.0390 H       1  UNL1        0.0641
@<TRIPOS>BOND
     1     1     2    1
     2     2     3   ar
     3     3     4   ar
     4     4     5    1
     5     5     6    1
     6     6     7    1
     7     7     8    1
     8     8     9    1
     9     4    10   ar
    10    10    11   ar
    11    11    12   ar
    12    12    13    1
    13    13    14    2
    14    13    15   am
    15    15    16    1
    16    16    17   ar
    17    17    18   ar
    18    18    19   ar
    19    19    20    1
    20    19    21   ar
    21    21    22    1
    22    22    23    1
    23    23    24    1
    24    22    25    1
    25    25    26    1
    26    26    27    2
    27    26    28    2
    28    26    29    1
    29    29    30    1
    30    29    31    1
    31    29    32    1
    32    32    33    1
    33    32    34    2
    34    21    35   ar
    35    12     2   ar
    36    35    16   ar
    37     9     6    1
    38    34    22    1
    39     1    36    1
    40     1    37    1
    41     1    38    1
    42     3    39    1
    43     6    40    1
    44     7    41    1
    45     7    42    1
    46     9    43    1
    47     9    44    1
    48    10    45    1
    49    15    46    1
    50    17    47    1
    51    18    48    1
    52    23    49    1
    53    23    50    1
    54    25    51    1
    55    25    52    1
    56    30    53    1
    57    30    54    1
    58    30    55    1
    59    31    56    1
    60    31    57    1
    61    31    58    1
    62    33    59    1
    63    33    60    1
    64    35    61    1
