
     RDKit          3D

 68 71  0  0  0  0  0  0  0  0999 V2000
    4.7629    5.8610   -0.3533 C   0  0  0  0  0  0  0  0  0  0  0  0
    3.4643    6.2190    0.0039 O   0  0  0  0  0  0  0  0  0  0  0  0
    2.4632    5.3053    0.2816 C   0  0  0  0  0  0  0  0  0  0  0  0
    1.1820    5.6931    0.6339 C   0  0  0  0  0  0  0  0  0  0  0  0
    0.2061    4.7634    0.9047 C   0  0  0  0  0  0  0  0  0  0  0  0
    0.5415    3.4314    0.8150 C   0  0  0  0  0  0  0  0  0  0  0  0
   -0.4499    2.3985    1.0908 C   0  0  0  0  0  0  0  0  0  0  0  0
   -0.6404    1.8828    2.3489 C   0  0  0  0  0  0  0  0  0  0  0  0
   -1.5939    0.9070    2.5501 C   0  0  0  0  0  0  0  0  0  0  0  0
   -2.3831    0.4146    1.5195 C   0  0  0  0  0  0  0  0  0  0  0  0
   -3.3735   -0.6166    1.7946 C   0  0  0  0  0  0  0  0  0  0  0  0
   -3.5035   -1.0531    2.9623 O   0  0  0  0  0  0  0  0  0  0  0  0
   -4.2161   -1.1655    0.7948 N   0  0  0  0  0  0  0  0  0  0  0  0
   -5.2015   -2.2058    1.1226 C   0  0  0  0  0  0  0  0  0  0  0  0
   -5.9735   -2.6315   -0.0817 C   0  0  0  0  0  0  0  0  0  0  0  0
   -6.7040   -1.4114   -0.6370 C   0  0  0  0  0  0  0  0  0  0  0  0
   -7.0523   -3.5930    0.3802 C   0  0  0  0  0  0  0  0  0  0  0  0
   -5.0862   -3.2466   -1.1291 C   0  0  0  0  0  0  0  0  0  0  0  0
   -2.1648    0.9529    0.2771 C   0  0  0  0  0  0  0  0  0  0  0  0
   -1.2139    1.9414    0.0184 C   0  0  0  0  0  0  0  0  0  0  0  0
   -1.0123    2.4847   -1.3069 C   0  0  0  0  0  0  0  0  0  0  0  0
   -1.6973    2.0725   -2.2577 O   0  0  0  0  0  0  0  0  0  0  0  0
   -0.0629    3.4565   -1.5125 O   0  0  0  0  0  0  0  0  0  0  0  0
    1.8334    3.0414    0.4598 C   0  0  0  0  0  0  0  0  0  0  0  0
    2.1602    1.5919    0.3727 C   0  0  0  0  0  0  0  0  0  0  0  0
    1.2729    0.7615    0.6178 O   0  0  0  0  0  0  0  0  0  0  0  0
    3.4534    1.2152    0.0184 N   0  0  0  0  0  0  0  0  0  0  0  0
    3.9025   -0.1087   -0.1026 C   0  0  0  0  0  0  0  0  0  0  0  0
    5.2420   -0.3404   -0.4677 C   0  0  0  0  0  0  0  0  0  0  0  0
    5.7898   -1.5696   -0.6158 C   0  0  0  0  0  0  0  0  0  0  0  0
    5.0203   -2.6950   -0.4049 C   0  0  0  0  0  0  0  0  0  0  0  0
    5.5637   -3.9503   -0.5519 C   0  0  0  0  0  0  0  0  0  0  0  0
    6.9261   -4.1444   -0.9231 N   0  0  0  0  0  0  0  0  0  0  0  0
    4.8088   -5.0217   -0.3450 N   0  0  0  0  0  0  0  0  0  0  0  0
    3.5244   -4.8588    0.0051 C   0  0  0  0  0  0  0  0  0  0  0  0
    2.9398   -3.6251    0.1633 C   0  0  0  0  0  0  0  0  0  0  0  0
    3.7061   -2.5112   -0.0467 C   0  0  0  0  0  0  0  0  0  0  0  0
    3.1474   -1.2343    0.1044 C   0  0  0  0  0  0  0  0  0  0  0  0
    2.7224    3.9961    0.2129 N   0  0  0  0  0  0  0  0  0  0  0  0
    5.4987    6.3176    0.3380 H   0  0  0  0  0  0  0  0  0  0  0  0
    4.8591    4.7621   -0.2219 H   0  0  0  0  0  0  0  0  0  0  0  0
    5.0401    6.1318   -1.3792 H   0  0  0  0  0  0  0  0  0  0  0  0
    0.9564    6.7510    0.6939 H   0  0  0  0  0  0  0  0  0  0  0  0
   -0.7977    5.0239    1.1808 H   0  0  0  0  0  0  0  0  0  0  0  0
   -0.0561    2.2285    3.1841 H   0  0  0  0  0  0  0  0  0  0  0  0
   -1.7170    0.5213    3.5624 H   0  0  0  0  0  0  0  0  0  0  0  0
   -4.1121   -0.8064   -0.1761 H   0  0  0  0  0  0  0  0  0  0  0  0
   -5.9205   -1.7056    1.8218 H   0  0  0  0  0  0  0  0  0  0  0  0
   -4.6847   -3.0344    1.6105 H   0  0  0  0  0  0  0  0  0  0  0  0
   -7.0927   -0.8685    0.2581 H   0  0  0  0  0  0  0  0  0  0  0  0
   -7.6239   -1.7662   -1.1784 H   0  0  0  0  0  0  0  0  0  0  0  0
   -6.0806   -0.8009   -1.2883 H   0  0  0  0  0  0  0  0  0  0  0  0
   -7.5762   -3.1420    1.2417 H   0  0  0  0  0  0  0  0  0  0  0  0
   -7.8295   -3.7357   -0.4167 H   0  0  0  0  0  0  0  0  0  0  0  0
   -6.6438   -4.6002    0.5987 H   0  0  0  0  0  0  0  0  0  0  0  0
   -5.6946   -3.7927   -1.8647 H   0  0  0  0  0  0  0  0  0  0  0  0
   -4.5782   -2.4050   -1.6603 H   0  0  0  0  0  0  0  0  0  0  0  0
   -4.3722   -3.9172   -0.6491 H   0  0  0  0  0  0  0  0  0  0  0  0
   -2.7325    0.6242   -0.5615 H   0  0  0  0  0  0  0  0  0  0  0  0
    0.1756    3.8515   -2.4031 H   0  0  0  0  0  0  0  0  0  0  0  0
    4.1491    1.9834   -0.1740 H   0  0  0  0  0  0  0  0  0  0  0  0
    5.8755    0.5245   -0.6412 H   0  0  0  0  0  0  0  0  0  0  0  0
    6.8246   -1.7475   -0.8978 H   0  0  0  0  0  0  0  0  0  0  0  0
    7.2252   -4.8232   -1.6613 H   0  0  0  0  0  0  0  0  0  0  0  0
    7.6501   -3.5762   -0.4274 H   0  0  0  0  0  0  0  0  0  0  0  0
    2.9397   -5.7400    0.1653 H   0  0  0  0  0  0  0  0  0  0  0  0
    1.9054   -3.4909    0.4452 H   0  0  0  0  0  0  0  0  0  0  0  0
    2.1086   -1.1742    0.3875 H   0  0  0  0  0  0  0  0  0  0  0  0
  1  2  1  0
  2  3  1  0
  3  4  2  0
  4  5  1  0
  5  6  2  0
  6  7  1  0
  7  8  2  0
  8  9  1  0
  9 10  2  0
 10 11  1  0
 11 12  2  0
 11 13  1  0
 13 14  1  0
 14 15  1  0
 15 16  1  0
 15 17  1  0
 15 18  1  0
 10 19  1  0
 19 20  2  0
 20 21  1  0
 21 22  2  0
 21 23  1  0
  6 24  1  0
 24 25  1  0
 25 26  2  0
 25 27  1  0
 27 28  1  0
 28 29  2  0
 29 30  1  0
 30 31  2  0
 31 32  1  0
 32 33  1  0
 32 34  2  0
 34 35  1  0
 35 36  2  0
 36 37  1  0
 37 38  2  0
 24 39  2  0
 39  3  1  0
 20  7  1  0
 38 28  1  0
 37 31  1  0
  1 40  1  0
  1 41  1  0
  1 42  1  0
  4 43  1  0
  5 44  1  0
  8 45  1  0
  9 46  1  0
 13 47  1  0
 14 48  1  0
 14 49  1  0
 16 50  1  0
 16 51  1  0
 16 52  1  0
 17 53  1  0
 17 54  1  0
 17 55  1  0
 18 56  1  0
 18 57  1  0
 18 58  1  0
 19 59  1  0
 23 60  1  0
 27 61  1  0
 29 62  1  0
 30 63  1  0
 33 64  1  0
 33 65  1  0
 35 66  1  0
 36 67  1  0
 38 68  1  0
M  END
$$$$
