@<TRIPOS>MOLECULE
*****
 68 71 0 0 0
SMALL
GASTEIGER

@<TRIPOS>ATOM
      1 C           4.7629    5.8610   -0.3533 C.3     1  UNL1        0.0804
      2 O           3.4643    6.2190    0.0039 O.3     1  UNL1       -0.4796
      3 C           2.4632    5.3053    0.2816 C.ar    1  UNL1        0.2151
      4 C           1.1820    5.6931    0.6339 C.ar    1  UNL1        0.0006
      5 C           0.2061    4.7634    0.9047 C.ar    1  UNL1       -0.0468
      6 C           0.5415    3.4314    0.8150 C.ar    1  UNL1        0.0137
      7 C          -0.4499    2.3985    1.0908 C.ar    1  UNL1       -0.0017
      8 C          -0.6404    1.8828    2.3489 C.ar    1  UNL1       -0.0525
      9 C          -1.5939    0.9070    2.5501 C.ar    1  UNL1       -0.0490
     10 C          -2.3831    0.4146    1.5195 C.ar    1  UNL1        0.0375
     11 C          -3.3735   -0.6166    1.7946 C.2     1  UNL1        0.2441
     12 O          -3.5035   -1.0531    2.9623 O.2     1  UNL1       -0.2702
     13 N          -4.2161   -1.1655    0.7948 N.am    1  UNL1       -0.3108
     14 C          -5.2015   -2.2058    1.1226 C.3     1  UNL1        0.0168
     15 C          -5.9735   -2.6315   -0.0817 C.3     1  UNL1       -0.0222
     16 C          -6.7040   -1.4114   -0.6370 C.3     1  UNL1       -0.0586
     17 C          -7.0523   -3.5930    0.3802 C.3     1  UNL1       -0.0586
     18 C          -5.0862   -3.2466   -1.1291 C.3     1  UNL1       -0.0586
     19 C          -2.1648    0.9529    0.2771 C.ar    1  UNL1       -0.0351
     20 C          -1.2139    1.9414    0.0184 C.ar    1  UNL1        0.0673
     21 C          -1.0123    2.4847   -1.3069 C.2     1  UNL1        0.3374
     22 O          -1.6973    2.0725   -2.2577 O.2     1  UNL1       -0.2451
     23 O          -0.0629    3.4565   -1.5125 O.3     1  UNL1       -0.4771
     24 C           1.8334    3.0414    0.4598 C.ar    1  UNL1        0.1372
     25 C           2.1602    1.5919    0.3727 C.2     1  UNL1        0.2673
     26 O           1.2729    0.7615    0.6178 O.2     1  UNL1       -0.2682
     27 N           3.4534    1.2152    0.0184 N.am    1  UNL1       -0.2802
     28 C           3.9025   -0.1087   -0.1026 C.ar    1  UNL1        0.0343
     29 C           5.2420   -0.3404   -0.4677 C.ar    1  UNL1       -0.0398
     30 C           5.7898   -1.5696   -0.6158 C.ar    1  UNL1       -0.0490
     31 C           5.0203   -2.6950   -0.4049 C.ar    1  UNL1        0.0218
     32 C           5.5637   -3.9503   -0.5519 C.ar    1  UNL1        0.1239
     33 N           6.9261   -4.1444   -0.9231 N.pl3   1  UNL1       -0.3427
     34 N           4.8088   -5.0217   -0.3450 N.ar    1  UNL1       -0.2401
     35 C           3.5244   -4.8588    0.0051 C.ar    1  UNL1        0.0303
     36 C           2.9398   -3.6251    0.1633 C.ar    1  UNL1       -0.0357
     37 C           3.7061   -2.5112   -0.0467 C.ar    1  UNL1       -0.0114
     38 C           3.1474   -1.2343    0.1044 C.ar    1  UNL1       -0.0326
     39 N           2.7224    3.9961    0.2129 N.ar    1  UNL1       -0.2076
     40 H           5.4987    6.3176    0.3380 H       1  UNL1        0.0660
     41 H           4.8591    4.7621   -0.2219 H       1  UNL1        0.0660
     42 H           5.0401    6.1318   -1.3792 H       1  UNL1        0.0660
     43 H           0.9564    6.7510    0.6939 H       1  UNL1        0.0671
     44 H          -0.7977    5.0239    1.1808 H       1  UNL1        0.0626
     45 H          -0.0561    2.2285    3.1841 H       1  UNL1        0.0624
     46 H          -1.7170    0.5213    3.5624 H       1  UNL1        0.0625
     47 H          -4.1121   -0.8064   -0.1761 H       1  UNL1        0.1490
     48 H          -5.9205   -1.7056    1.8218 H       1  UNL1        0.0467
     49 H          -4.6847   -3.0344    1.6105 H       1  UNL1        0.0467
     50 H          -7.0927   -0.8685    0.2581 H       1  UNL1        0.0235
     51 H          -7.6239   -1.7662   -1.1784 H       1  UNL1        0.0235
     52 H          -6.0806   -0.8009   -1.2883 H       1  UNL1        0.0235
     53 H          -7.5762   -3.1420    1.2417 H       1  UNL1        0.0235
     54 H          -7.8295   -3.7357   -0.4167 H       1  UNL1        0.0235
     55 H          -6.6438   -4.6002    0.5987 H       1  UNL1        0.0235
     56 H          -5.6946   -3.7927   -1.8647 H       1  UNL1        0.0235
     57 H          -4.5782   -2.4050   -1.6603 H       1  UNL1        0.0235
     58 H          -4.3722   -3.9172   -0.6491 H       1  UNL1        0.0235
     59 H          -2.7325    0.6242   -0.5615 H       1  UNL1        0.0633
     60 H           0.1756    3.8515   -2.4031 H       1  UNL1        0.2954
     61 H           4.1491    1.9834   -0.1740 H       1  UNL1        0.1552
     62 H           5.8755    0.5245   -0.6412 H       1  UNL1        0.0636
     63 H           6.8246   -1.7475   -0.8978 H       1  UNL1        0.0625
     64 H           7.2252   -4.8232   -1.6613 H       1  UNL1        0.1437
     65 H           7.6501   -3.5762   -0.4274 H       1  UNL1        0.1437
     66 H           2.9397   -5.7400    0.1653 H       1  UNL1        0.0830
     67 H           1.9054   -3.4909    0.4452 H       1  UNL1        0.0639
     68 H           2.1086   -1.1742    0.3875 H       1  UNL1        0.0642
@<TRIPOS>BOND
     1     1     2    1
     2     2     3    1
     3     3     4   ar
     4     4     5   ar
     5     5     6   ar
     6     6     7    1
     7     7     8   ar
     8     8     9   ar
     9     9    10   ar
    10    10    11    1
    11    11    12    2
    12    11    13   am
    13    13    14    1
    14    14    15    1
    15    15    16    1
    16    15    17    1
    17    15    18    1
    18    10    19   ar
    19    19    20   ar
    20    20    21    1
    21    21    22    2
    22    21    23    1
    23     6    24   ar
    24    24    25    1
    25    25    26    2
    26    25    27   am
    27    27    28    1
    28    28    29   ar
    29    29    30   ar
    30    30    31   ar
    31    31    32   ar
    32    32    33    1
    33    32    34   ar
    34    34    35   ar
    35    35    36   ar
    36    36    37   ar
    37    37    38   ar
    38    24    39   ar
    39    39     3   ar
    40    20     7   ar
    41    38    28   ar
    42    37    31   ar
    43     1    40    1
    44     1    41    1
    45     1    42    1
    46     4    43    1
    47     5    44    1
    48     8    45    1
    49     9    46    1
    50    13    47    1
    51    14    48    1
    52    14    49    1
    53    16    50    1
    54    16    51    1
    55    16    52    1
    56    17    53    1
    57    17    54    1
    58    17    55    1
    59    18    56    1
    60    18    57    1
    61    18    58    1
    62    19    59    1
    63    23    60    1
    64    27    61    1
    65    29    62    1
    66    30    63    1
    67    33    64    1
    68    33    65    1
    69    35    66    1
    70    36    67    1
    71    38    68    1
