
     RDKit          3D

 45 48  0  0  0  0  0  0  0  0999 V2000
    3.7807   -1.2618    3.3313 N   0  0  0  0  0  0  0  0  0  0  0  0
    2.7394   -0.9490    2.4253 C   0  0  0  0  0  0  0  0  0  0  0  0
    1.5665   -0.8396    2.8370 O   0  0  0  0  0  0  0  0  0  0  0  0
    3.0197   -0.7522    1.0118 C   0  0  0  0  0  0  0  0  0  0  0  0
    4.2367   -0.8289    0.3590 C   0  0  0  0  0  0  0  0  0  0  0  0
    4.0472   -0.5773   -0.9460 N   0  0  0  0  0  0  0  0  0  0  0  0
    2.7357   -0.3439   -1.1263 C   0  0  0  0  0  0  0  0  0  0  0  0
    1.9944   -0.0359   -2.2593 C   0  0  0  0  0  0  0  0  0  0  0  0
    0.6518    0.1469   -2.1133 C   0  0  0  0  0  0  0  0  0  0  0  0
    0.0369    0.0333   -0.8896 C   0  0  0  0  0  0  0  0  0  0  0  0
   -1.4196    0.2363   -0.7476 C   0  0  0  0  0  0  0  0  0  0  0  0
   -1.9669    1.4548   -0.4228 C   0  0  0  0  0  0  0  0  0  0  0  0
   -1.2806    2.7142   -0.1636 C   0  0  0  0  0  0  0  0  0  0  0  0
   -1.4222    3.3174    1.0835 C   0  0  0  0  0  0  0  0  0  0  0  0
   -0.7745    4.5089    1.3360 C   0  0  0  0  0  0  0  0  0  0  0  0
    0.0173    5.1422    0.4030 C   0  0  0  0  0  0  0  0  0  0  0  0
    0.6619    6.3100    0.6267 F   0  0  0  0  0  0  0  0  0  0  0  0
    0.1649    4.5455   -0.8487 C   0  0  0  0  0  0  0  0  0  0  0  0
    1.1488    5.2690   -2.1031 Cl  0  0  0  0  0  0  0  0  0  0  0  0
   -0.4891    3.3446   -1.1003 C   0  0  0  0  0  0  0  0  0  0  0  0
   -3.3162    1.2431   -0.3888 N   0  0  0  0  0  0  0  0  0  0  0  0
   -3.5405   -0.0598   -0.6853 C   0  0  0  0  0  0  0  0  0  0  0  0
   -2.3615   -0.6876   -0.9089 N   0  0  0  0  0  0  0  0  0  0  0  0
   -2.1268   -2.0763   -1.2546 C   0  0  0  0  0  0  0  0  0  0  0  0
   -1.9680   -2.8220    0.0482 C   0  0  0  0  0  0  0  0  0  0  0  0
   -1.7170   -4.2839   -0.1220 C   0  0  0  0  0  0  0  0  0  0  0  0
   -1.5956   -4.8266    1.1727 O   0  0  0  0  0  0  0  0  0  0  0  0
    0.7979   -0.2663    0.1760 N   0  0  0  0  0  0  0  0  0  0  0  0
    2.1008   -0.4469    0.0536 N   0  0  0  0  0  0  0  0  0  0  0  0
    3.7860   -0.9607    4.3254 H   0  0  0  0  0  0  0  0  0  0  0  0
    4.5846   -1.8250    2.9797 H   0  0  0  0  0  0  0  0  0  0  0  0
    5.1978   -1.0585    0.8339 H   0  0  0  0  0  0  0  0  0  0  0  0
    2.5132    0.0468   -3.2145 H   0  0  0  0  0  0  0  0  0  0  0  0
    0.0636    0.3877   -2.9909 H   0  0  0  0  0  0  0  0  0  0  0  0
   -2.0483    2.8157    1.8197 H   0  0  0  0  0  0  0  0  0  0  0  0
   -0.8733    4.9908    2.2978 H   0  0  0  0  0  0  0  0  0  0  0  0
   -0.3972    2.8489   -2.0675 H   0  0  0  0  0  0  0  0  0  0  0  0
   -4.4893   -0.5778   -0.7493 H   0  0  0  0  0  0  0  0  0  0  0  0
   -1.2403   -2.2218   -1.8842 H   0  0  0  0  0  0  0  0  0  0  0  0
   -3.0262   -2.5176   -1.7692 H   0  0  0  0  0  0  0  0  0  0  0  0
   -1.1080   -2.3492    0.5773 H   0  0  0  0  0  0  0  0  0  0  0  0
   -2.8676   -2.6624    0.6749 H   0  0  0  0  0  0  0  0  0  0  0  0
   -2.5838   -4.7436   -0.6085 H   0  0  0  0  0  0  0  0  0  0  0  0
   -0.7580   -4.4817   -0.6341 H   0  0  0  0  0  0  0  0  0  0  0  0
   -2.4753   -4.8996    1.6256 H   0  0  0  0  0  0  0  0  0  0  0  0
  1  2  1  0
  2  3  2  0
  2  4  1  0
  4  5  2  0
  5  6  1  0
  6  7  2  0
  7  8  1  0
  8  9  2  0
  9 10  1  0
 10 11  1  0
 11 12  2  0
 12 13  1  0
 13 14  2  0
 14 15  1  0
 15 16  2  0
 16 17  1  0
 16 18  1  0
 18 19  1  0
 18 20  2  0
 12 21  1  0
 21 22  2  0
 22 23  1  0
 23 24  1  0
 24 25  1  0
 25 26  1  0
 26 27  1  0
 10 28  2  0
 28 29  1  0
 29  4  1  0
 29  7  1  0
 23 11  1  0
 20 13  1  0
  1 30  1  0
  1 31  1  0
  5 32  1  0
  8 33  1  0
  9 34  1  0
 14 35  1  0
 15 36  1  0
 20 37  1  0
 22 38  1  0
 24 39  1  0
 24 40  1  0
 25 41  1  0
 25 42  1  0
 26 43  1  0
 26 44  1  0
 27 45  1  0
M  END
$$$$
