@<TRIPOS>MOLECULE
*****
 45 48 0 0 0
SMALL
GASTEIGER

@<TRIPOS>ATOM
      1 N           3.7807   -1.2618    3.3313 N.am    1  UNL1       -0.3240
      2 C           2.7394   -0.9490    2.4253 C.2     1  UNL1        0.2615
      3 O           1.5665   -0.8396    2.8370 O.2     1  UNL1       -0.2687
      4 C           3.0197   -0.7522    1.0118 C.ar    1  UNL1        0.1470
      5 C           4.2367   -0.8289    0.3590 C.ar    1  UNL1        0.0605
      6 N           4.0472   -0.5773   -0.9460 N.ar    1  UNL1       -0.2339
      7 C           2.7357   -0.3439   -1.1263 C.ar    1  UNL1        0.1549
      8 C           1.9944   -0.0359   -2.2593 C.ar    1  UNL1       -0.0153
      9 C           0.6518    0.1469   -2.1133 C.ar    1  UNL1       -0.0290
     10 C           0.0369    0.0333   -0.8896 C.ar    1  UNL1        0.1103
     11 C          -1.4196    0.2363   -0.7476 C.ar    1  UNL1        0.0966
     12 C          -1.9669    1.4548   -0.4228 C.ar    1  UNL1        0.0983
     13 C          -1.2806    2.7142   -0.1636 C.ar    1  UNL1        0.0040
     14 C          -1.4222    3.3174    1.0835 C.ar    1  UNL1       -0.0497
     15 C          -0.7745    4.5089    1.3360 C.ar    1  UNL1       -0.0244
     16 C           0.0173    5.1422    0.4030 C.ar    1  UNL1        0.1417
     17 F           0.6619    6.3100    0.6267 F       1  UNL1       -0.2040
     18 C           0.1649    4.5455   -0.8487 C.ar    1  UNL1        0.0767
     19 CL          1.1488    5.2690   -2.1031 Cl      1  UNL1       -0.0806
     20 C          -0.4891    3.3446   -1.1003 C.ar    1  UNL1       -0.0313
     21 N          -3.3162    1.2431   -0.3888 N.ar    1  UNL1       -0.2351
     22 C          -3.5405   -0.0598   -0.6853 C.ar    1  UNL1        0.0971
     23 N          -2.3615   -0.6876   -0.9089 N.ar    1  UNL1       -0.3283
     24 C          -2.1268   -2.0763   -1.2546 C.3     1  UNL1        0.0268
     25 C          -1.9680   -2.8220    0.0482 C.3     1  UNL1       -0.0116
     26 C          -1.7170   -4.2839   -0.1220 C.3     1  UNL1        0.0458
     27 O          -1.5956   -4.8266    1.1727 O.3     1  UNL1       -0.3949
     28 N           0.7979   -0.2663    0.1760 N.ar    1  UNL1       -0.1628
     29 N           2.1008   -0.4469    0.0536 N.ar    1  UNL1       -0.2076
     30 H           3.7860   -0.9607    4.3254 H       1  UNL1        0.1453
     31 H           4.5846   -1.8250    2.9797 H       1  UNL1        0.1453
     32 H           5.1978   -1.0585    0.8339 H       1  UNL1        0.0854
     33 H           2.5132    0.0468   -3.2145 H       1  UNL1        0.0655
     34 H           0.0636    0.3877   -2.9909 H       1  UNL1        0.0641
     35 H          -2.0483    2.8157    1.8197 H       1  UNL1        0.0625
     36 H          -0.8733    4.9908    2.2978 H       1  UNL1        0.0647
     37 H          -0.3972    2.8489   -2.0675 H       1  UNL1        0.0640
     38 H          -4.4893   -0.5778   -0.7493 H       1  UNL1        0.1029
     39 H          -1.2403   -2.2218   -1.8842 H       1  UNL1        0.0493
     40 H          -3.0262   -2.5176   -1.7692 H       1  UNL1        0.0493
     41 H          -1.1080   -2.3492    0.5773 H       1  UNL1        0.0304
     42 H          -2.8676   -2.6624    0.6749 H       1  UNL1        0.0304
     43 H          -2.5838   -4.7436   -0.6085 H       1  UNL1        0.0558
     44 H          -0.7580   -4.4817   -0.6341 H       1  UNL1        0.0558
     45 H          -2.4753   -4.8996    1.6256 H       1  UNL1        0.2094
@<TRIPOS>BOND
     1     1     2   am
     2     2     3    2
     3     2     4    1
     4     4     5   ar
     5     5     6   ar
     6     6     7   ar
     7     7     8   ar
     8     8     9   ar
     9     9    10   ar
    10    10    11    1
    11    11    12   ar
    12    12    13    1
    13    13    14   ar
    14    14    15   ar
    15    15    16   ar
    16    16    17    1
    17    16    18   ar
    18    18    19    1
    19    18    20   ar
    20    12    21   ar
    21    21    22   ar
    22    22    23   ar
    23    23    24    1
    24    24    25    1
    25    25    26    1
    26    26    27    1
    27    10    28   ar
    28    28    29   ar
    29    29     4   ar
    30    29     7   ar
    31    23    11   ar
    32    20    13   ar
    33     1    30    1
    34     1    31    1
    35     5    32    1
    36     8    33    1
    37     9    34    1
    38    14    35    1
    39    15    36    1
    40    20    37    1
    41    22    38    1
    42    24    39    1
    43    24    40    1
    44    25    41    1
    45    25    42    1
    46    26    43    1
    47    26    44    1
    48    27    45    1
