@<TRIPOS>MOLECULE
*****
 111 119 0 0 0
SMALL
GASTEIGER

@<TRIPOS>ATOM
      1 C          -3.2062    1.3234    0.5130 C.3     1  UNL1        0.0772
      2 N          -2.5800    2.4802   -0.0874 N.pl3   1  UNL1       -0.3252
      3 C          -3.1701    3.8040   -0.2254 C.3     1  UNL1        0.0011
      4 C          -1.2992    2.0775   -0.5075 C.ar    1  UNL1        0.0372
      5 C          -0.3862    2.7201   -1.3156 C.ar    1  UNL1        0.0017
      6 C           0.8231    2.1467   -1.6076 C.ar    1  UNL1        0.1265
      7 O           1.6898    2.8505   -2.4264 O.3     1  UNL1       -0.4947
      8 C           1.3757    4.1047   -2.9542 C.3     1  UNL1        0.0788
      9 C           1.2115    0.8950   -1.1180 C.ar    1  UNL1        0.0172
     10 C           0.2565    0.3130   -0.3219 C.ar    1  UNL1       -0.0481
     11 C          -0.9641    0.8407    0.0007 C.ar    1  UNL1       -0.0162
     12 C          -2.1221    0.3652    0.8406 C.3     1  UNL1        0.0369
     13 C          -1.6788    0.5378    2.2679 C.3     1  UNL1       -0.0272
     14 C          -1.2666   -0.8576    2.6524 C.3     1  UNL1        0.0005
     15 N          -1.5494   -1.7356    1.5699 N.3     1  UNL1       -0.2939
     16 C          -1.9709   -3.0322    1.9802 C.3     1  UNL1        0.0175
     17 C          -3.3804   -3.0454    2.4853 C.2     1  UNL1       -0.0733
     18 C          -4.1994   -2.3042    1.7469 C.2     1  UNL1       -0.0755
     19 C          -3.7850   -1.5208    0.5236 C.3     1  UNL1        0.0453
     20 C          -3.9249   -2.5415   -0.6161 C.3     1  UNL1       -0.0418
     21 C          -5.3708   -3.0256   -0.7009 C.3     1  UNL1       -0.0643
     22 C          -2.3667   -1.0745    0.5914 C.3     1  UNL1        0.0348
     23 C          -4.8080   -0.4757    0.2816 C.3     1  UNL1        0.1542
     24 O          -5.5266   -0.1317    1.4783 O.3     1  UNL1       -0.4570
     25 C          -6.8972   -0.3106    1.5298 C.2     1  UNL1        0.3043
     26 C          -7.5750    0.0728    2.8185 C.3     1  UNL1        0.0332
     27 O          -7.6173   -0.7696    0.5813 O.2     1  UNL1       -0.2512
     28 C          -4.3314    0.8076   -0.3006 C.3     1  UNL1        0.2195
     29 O          -5.4033    1.7226   -0.1298 O.3     1  UNL1       -0.3733
     30 C          -4.0448    0.8029   -1.7346 C.2     1  UNL1        0.3446
     31 O          -4.9726    1.6248   -1.9852 O.2     1  UNL1       -0.2474
     32 O          -3.2416    0.2933   -2.7396 O.3     1  UNL1       -0.4658
     33 C          -3.4978    0.7294   -4.0796 C.3     1  UNL1        0.0818
     34 C           2.5181    0.2661   -1.4269 C.3     1  UNL1        0.1364
     35 C           3.6741    1.1698   -1.1176 C.3     1  UNL1       -0.0200
     36 C           3.5354    1.9178    0.1713 C.3     1  UNL1       -0.0082
     37 C           3.4426    1.0153    1.3752 C.3     1  UNL1        0.0059
     38 N           4.6058    0.2354    1.5922 N.3     1  UNL1       -0.2937
     39 C           5.8442    0.9250    1.6616 C.3     1  UNL1        0.0204
     40 C           5.8092    2.2802    1.0493 C.2     1  UNL1       -0.0595
     41 C           7.0361    3.0769    1.3353 C.3     1  UNL1       -0.0334
     42 C           7.2363    3.2800    2.8184 C.3     1  UNL1       -0.0615
     43 C           4.7821    2.7221    0.3242 C.2     1  UNL1       -0.0792
     44 C           4.6254   -1.0979    1.1215 C.3     1  UNL1        0.0267
     45 C           3.5374   -1.5069    0.2291 C.ar    1  UNL1       -0.0037
     46 C           2.6665   -1.0693   -0.7767 C.ar    1  UNL1        0.0430
     47 N           1.8497   -2.0373   -1.2022 N.ar    1  UNL1       -0.3565
     48 C           2.1290   -3.1568   -0.5120 C.ar    1  UNL1        0.0470
     49 C           1.5517   -4.4035   -0.6022 C.ar    1  UNL1       -0.0378
     50 C           2.0028   -5.4121    0.2119 C.ar    1  UNL1       -0.0598
     51 C           3.0242   -5.1607    1.1043 C.ar    1  UNL1       -0.0611
     52 C           3.5598   -3.8910    1.1456 C.ar    1  UNL1       -0.0523
     53 C           3.1390   -2.8450    0.3467 C.ar    1  UNL1        0.0044
     54 C           2.5448    0.0041   -2.8926 C.2     1  UNL1        0.3235
     55 O           2.0866    0.0076   -4.0681 O.2     1  UNL1       -0.2494
     56 O           3.7411   -0.5985   -3.2981 O.3     1  UNL1       -0.4670
     57 C           3.9803   -0.9398   -4.6724 C.3     1  UNL1        0.0817
     58 H          -3.6447    1.6993    1.4819 H       1  UNL1        0.0544
     59 H          -3.0138    4.4344    0.6873 H       1  UNL1        0.0428
     60 H          -2.6816    4.3182   -1.0787 H       1  UNL1        0.0428
     61 H          -4.2554    3.7646   -0.4046 H       1  UNL1        0.0428
     62 H          -0.6327    3.6937   -1.7240 H       1  UNL1        0.0673
     63 H           2.2216    4.5099   -3.5250 H       1  UNL1        0.0660
     64 H           1.1580    4.7701   -2.0698 H       1  UNL1        0.0660
     65 H           0.4353    4.1249   -3.5601 H       1  UNL1        0.0660
     66 H           0.4428   -0.6614    0.1184 H       1  UNL1        0.0625
     67 H          -2.4877    0.9460    2.9232 H       1  UNL1        0.0287
     68 H          -0.8424    1.2825    2.3613 H       1  UNL1        0.0287
     69 H          -1.7366   -1.1664    3.6149 H       1  UNL1        0.0427
     70 H          -0.1661   -0.8007    2.8920 H       1  UNL1        0.0427
     71 H          -1.3557   -3.2712    2.9010 H       1  UNL1        0.0470
     72 H          -1.7320   -3.8197    1.2731 H       1  UNL1        0.0470
     73 H          -3.7599   -3.5784    3.3509 H       1  UNL1        0.0582
     74 H          -5.2463   -2.2780    2.0721 H       1  UNL1        0.0577
     75 H          -3.3274   -3.4564   -0.4380 H       1  UNL1        0.0273
     76 H          -3.5992   -2.1527   -1.5837 H       1  UNL1        0.0273
     77 H          -5.9177   -2.9405    0.2425 H       1  UNL1        0.0230
     78 H          -5.4146   -4.1185   -0.9845 H       1  UNL1        0.0230
     79 H          -5.8535   -2.5126   -1.5634 H       1  UNL1        0.0230
     80 H          -1.8651   -1.3281   -0.4045 H       1  UNL1        0.0482
     81 H          -5.6215   -0.8516   -0.4055 H       1  UNL1        0.0779
     82 H          -8.6491   -0.1657    2.7463 H       1  UNL1        0.0342
     83 H          -7.3609    1.1368    3.0516 H       1  UNL1        0.0342
     84 H          -7.1639   -0.6315    3.5894 H       1  UNL1        0.0342
     85 H          -5.4727    2.0218    0.8079 H       1  UNL1        0.2111
     86 H          -2.7741    1.5231   -4.3286 H       1  UNL1        0.0661
     87 H          -3.4699   -0.1128   -4.7823 H       1  UNL1        0.0661
     88 H          -4.5271    1.1631   -4.1719 H       1  UNL1        0.0661
     89 H           4.5969    0.5611   -1.1674 H       1  UNL1        0.0289
     90 H           3.7499    1.9157   -1.9308 H       1  UNL1        0.0289
     91 H           2.6882    2.5957    0.1296 H       1  UNL1        0.0356
     92 H           3.3582    1.7211    2.2457 H       1  UNL1        0.0432
     93 H           2.5535    0.3940    1.4317 H       1  UNL1        0.0432
     94 H           6.6617    0.3212    1.2243 H       1  UNL1        0.0473
     95 H           6.1000    1.0784    2.7361 H       1  UNL1        0.0473
     96 H           6.9833    4.0652    0.8340 H       1  UNL1        0.0308
     97 H           7.9038    2.5565    0.8841 H       1  UNL1        0.0308
     98 H           8.0539    4.0284    2.9155 H       1  UNL1        0.0233
     99 H           7.5854    2.3649    3.3260 H       1  UNL1        0.0233
    100 H           6.2935    3.6739    3.2405 H       1  UNL1        0.0233
    101 H           4.9621    3.6951   -0.1185 H       1  UNL1        0.0575
    102 H           5.6353   -1.3942    0.6994 H       1  UNL1        0.0476
    103 H           4.5677   -1.7549    2.0430 H       1  UNL1        0.0476
    104 H           1.1286   -1.9106   -1.9463 H       1  UNL1        0.1656
    105 H           0.7443   -4.5753   -1.3180 H       1  UNL1        0.0638
    106 H           1.5229   -6.3958    0.1176 H       1  UNL1        0.0618
    107 H           3.3889   -5.9589    1.7557 H       1  UNL1        0.0618
    108 H           4.3550   -3.7678    1.8670 H       1  UNL1        0.0624
    109 H           4.1575   -0.0566   -5.2887 H       1  UNL1        0.0661
    110 H           3.2343   -1.6448   -5.0462 H       1  UNL1        0.0661
    111 H           4.9472   -1.5236   -4.6519 H       1  UNL1        0.0661
@<TRIPOS>BOND
     1     1     2    1
     2     2     3    1
     3     2     4    1
     4     4     5   ar
     5     5     6   ar
     6     6     7    1
     7     7     8    1
     8     6     9   ar
     9     9    10   ar
    10    10    11   ar
    11    11    12    1
    12    12    13    1
    13    13    14    1
    14    14    15    1
    15    15    16    1
    16    16    17    1
    17    17    18    2
    18    18    19    1
    19    19    20    1
    20    20    21    1
    21    19    22    1
    22    19    23    1
    23    23    24    1
    24    24    25    1
    25    25    26    1
    26    25    27    2
    27    23    28    1
    28    28    29    1
    29    28    30    1
    30    30    31    2
    31    30    32    1
    32    32    33    1
    33     9    34    1
    34    34    35    1
    35    35    36    1
    36    36    37    1
    37    37    38    1
    38    38    39    1
    39    39    40    1
    40    40    41    1
    41    41    42    1
    42    40    43    2
    43    38    44    1
    44    44    45    1
    45    45    46   ar
    46    46    47   ar
    47    47    48   ar
    48    48    49   ar
    49    49    50   ar
    50    50    51   ar
    51    51    52   ar
    52    52    53   ar
    53    34    54    1
    54    54    55    2
    55    54    56    1
    56    56    57    1
    57    12     1    1
    58    22    12    1
    59    46    34    1
    60    53    48   ar
    61    28     1    1
    62    43    36    1
    63    53    45   ar
    64    11     4   ar
    65    22    15    1
    66     1    58    1
    67     3    59    1
    68     3    60    1
    69     3    61    1
    70     5    62    1
    71     8    63    1
    72     8    64    1
    73     8    65    1
    74    10    66    1
    75    13    67    1
    76    13    68    1
    77    14    69    1
    78    14    70    1
    79    16    71    1
    80    16    72    1
    81    17    73    1
    82    18    74    1
    83    20    75    1
    84    20    76    1
    85    21    77    1
    86    21    78    1
    87    21    79    1
    88    22    80    1
    89    23    81    1
    90    26    82    1
    91    26    83    1
    92    26    84    1
    93    29    85    1
    94    33    86    1
    95    33    87    1
    96    33    88    1
    97    35    89    1
    98    35    90    1
    99    36    91    1
   100    37    92    1
   101    37    93    1
   102    39    94    1
   103    39    95    1
   104    41    96    1
   105    41    97    1
   106    42    98    1
   107    42    99    1
   108    42   100    1
   109    43   101    1
   110    44   102    1
   111    44   103    1
   112    47   104    1
   113    49   105    1
   114    50   106    1
   115    51   107    1
   116    52   108    1
   117    57   109    1
   118    57   110    1
   119    57   111    1
