
     RDKit          3D

 52 52  0  0  0  0  0  0  0  0999 V2000
   -4.7197   -2.5408   -0.4139 C   0  0  1  0  0  0  0  0  0  0  0  0
   -5.8258   -1.6998   -0.7908 N   0  0  0  0  0  0  0  0  0  0  0  0
   -3.5936   -1.6703    0.1180 C   0  0  0  0  0  0  0  0  0  0  0  0
   -3.2183   -0.7340   -1.0241 C   0  0  0  0  0  0  0  0  0  0  0  0
   -2.1096    0.1800   -0.6177 C   0  0  0  0  0  0  0  0  0  0  0  0
   -2.2332    1.0576    0.4494 O   0  0  0  0  0  0  0  0  0  0  0  0
   -1.0001    0.2002   -1.2268 N   0  0  0  0  0  0  0  0  0  0  0  0
    0.1215    1.0584   -0.8916 C   0  0  1  0  0  0  0  0  0  0  0  0
    1.3200    0.7535   -1.7609 C   0  0  0  0  0  0  0  0  0  0  0  0
    2.6732    1.8470   -1.2897 S   0  0  0  0  0  0  0  0  0  0  0  0
    3.2545    1.4498    0.4014 C   0  0  0  0  0  0  0  0  0  0  0  0
    3.8690    0.0777    0.3592 C   0  0  0  0  0  0  0  0  0  0  0  0
    3.0372   -1.0134    0.6030 C   0  0  0  0  0  0  0  0  0  0  0  0
    3.5861   -2.2762    0.5673 C   0  0  0  0  0  0  0  0  0  0  0  0
    4.9154   -2.5318    0.3038 C   0  0  0  0  0  0  0  0  0  0  0  0
    5.7285   -1.4311    0.0633 C   0  0  0  0  0  0  0  0  0  0  0  0
    5.1904   -0.1554    0.0960 C   0  0  0  0  0  0  0  0  0  0  0  0
    5.4659   -3.8519    0.2718 N   0  0  0  0  0  0  0  0  0  0  0  0
    6.8012   -3.9374   -0.0035 O   0  0  0  0  0  0  0  0  0  0  0  0
    4.6656   -4.7940    0.4998 O   0  0  0  0  0  0  0  0  0  0  0  0
   -0.2389    2.4972   -1.1754 C   0  0  0  0  0  0  0  0  0  0  0  0
   -0.4939    2.5886   -2.5441 O   0  0  0  0  0  0  0  0  0  0  0  0
   -0.3734    3.6150   -0.5465 N   0  0  0  0  0  0  0  0  0  0  0  0
   -0.1492    3.6950    0.8639 C   0  0  0  0  0  0  0  0  0  0  0  0
    0.3262    5.0693    1.2050 C   0  0  0  0  0  0  0  0  0  0  0  0
    0.5367    6.1405    0.3348 O   0  0  0  0  0  0  0  0  0  0  0  0
    0.5955    5.3903    2.4077 O   0  0  0  0  0  0  0  0  0  0  0  0
   -5.2353   -3.4496    0.6629 C   0  0  0  0  0  0  0  0  0  0  0  0
   -6.4138   -3.7053    1.3741 O   0  0  0  0  0  0  0  0  0  0  0  0
   -4.5804   -4.3591    1.2779 O   0  0  0  0  0  0  0  0  0  0  0  0
   -4.3075   -3.1648   -1.2069 H   0  0  0  0  0  0  0  0  0  0  0  0
   -5.8552   -0.7821   -0.3437 H   0  0  0  0  0  0  0  0  0  0  0  0
   -6.7162   -2.1908   -0.9426 H   0  0  0  0  0  0  0  0  0  0  0  0
   -3.8798   -1.1089    1.0284 H   0  0  0  0  0  0  0  0  0  0  0  0
   -2.7337   -2.3079    0.3658 H   0  0  0  0  0  0  0  0  0  0  0  0
   -2.8994   -1.3596   -1.8770 H   0  0  0  0  0  0  0  0  0  0  0  0
   -4.0847   -0.1396   -1.3523 H   0  0  0  0  0  0  0  0  0  0  0  0
   -1.5154    1.1422    1.1601 H   0  0  0  0  0  0  0  0  0  0  0  0
    0.4216    0.9002    0.1587 H   0  0  0  0  0  0  0  0  0  0  0  0
    1.0827    0.9743   -2.8199 H   0  0  0  0  0  0  0  0  0  0  0  0
    1.5976   -0.3212   -1.6801 H   0  0  0  0  0  0  0  0  0  0  0  0
    2.4386    1.4092    1.1281 H   0  0  0  0  0  0  0  0  0  0  0  0
    4.0605    2.1544    0.6732 H   0  0  0  0  0  0  0  0  0  0  0  0
    1.9821   -0.9435    0.8208 H   0  0  0  0  0  0  0  0  0  0  0  0
    2.9613   -3.1485    0.7537 H   0  0  0  0  0  0  0  0  0  0  0  0
    6.7786   -1.5679   -0.1489 H   0  0  0  0  0  0  0  0  0  0  0  0
    5.7906    0.7352   -0.0864 H   0  0  0  0  0  0  0  0  0  0  0  0
   -0.7596    3.4737   -2.9803 H   0  0  0  0  0  0  0  0  0  0  0  0
    0.6233    2.9623    1.1696 H   0  0  0  0  0  0  0  0  0  0  0  0
   -1.1288    3.4995    1.3708 H   0  0  0  0  0  0  0  0  0  0  0  0
    1.2876    6.7892    0.4805 H   0  0  0  0  0  0  0  0  0  0  0  0
   -7.0458   -4.4753    1.1483 H   0  0  0  0  0  0  0  0  0  0  0  0
  1  2  1  0
  1  3  1  0
  3  4  1  0
  4  5  1  0
  5  6  1  0
  5  7  2  3
  7  8  1  0
  8  9  1  0
  9 10  1  0
 10 11  1  0
 11 12  1  0
 12 13  2  0
 13 14  1  0
 14 15  2  0
 15 16  1  0
 16 17  2  0
 15 18  1  0
 18 19  1  0
 18 20  2  0
  8 21  1  0
 21 22  1  0
 21 23  2  3
 23 24  1  0
 24 25  1  0
 25 26  1  0
 25 27  2  0
  1 28  1  0
 28 29  1  0
 28 30  2  0
 17 12  1  0
  1 31  1  6
  2 32  1  0
  2 33  1  0
  3 34  1  0
  3 35  1  0
  4 36  1  0
  4 37  1  0
  6 38  1  0
  8 39  1  1
  9 40  1  0
  9 41  1  0
 11 42  1  0
 11 43  1  0
 13 44  1  0
 14 45  1  0
 16 46  1  0
 17 47  1  0
 22 48  1  0
 24 49  1  0
 24 50  1  0
 26 51  1  0
 29 52  1  0
M  CHG  2  18   1  19  -1
M  END
$$$$
