@<TRIPOS>MOLECULE
*****
 51 54 0 0 0
SMALL
GASTEIGER

@<TRIPOS>ATOM
      1 C           9.5035    1.2914   -0.9019 C.3     1  UNL1        0.0805
      2 O           8.4762    0.6676   -1.6079 O.3     1  UNL1       -0.4786
      3 C           7.2061    0.4429   -1.0754 C.ar    1  UNL1        0.2332
      4 C           6.2099   -0.1767   -1.7979 C.ar    1  UNL1        0.0899
      5 N           4.9727   -0.3880   -1.2600 N.ar    1  UNL1       -0.2435
      6 C           4.6931    0.0048   -0.0058 C.ar    1  UNL1        0.1439
      7 C           3.3652   -0.2236    0.5678 C.2     1  UNL1        0.2681
      8 O           3.0541    0.1188    1.7200 O.2     1  UNL1       -0.2681
      9 N           2.3724   -0.8680   -0.2204 N.am    1  UNL1       -0.2802
     10 C           1.0570   -1.1380    0.2363 C.ar    1  UNL1        0.0342
     11 C           0.7920   -2.3336    0.8683 C.ar    1  UNL1       -0.0377
     12 C          -0.4992   -2.6209    1.3276 C.ar    1  UNL1       -0.0243
     13 C          -1.4966   -1.6656    1.1253 C.ar    1  UNL1        0.1292
     14 F          -2.7420   -1.9796    1.5860 F       1  UNL1       -0.2051
     15 C          -1.2483   -0.4642    0.4948 C.ar    1  UNL1        0.0226
     16 C          -2.3250    0.5381    0.2902 C.3     1  UNL1        0.1580
     17 C          -1.7111    1.8093   -0.2955 C.3     1  UNL1       -0.0295
     18 N          -2.8139    0.8983    1.5990 N.2     1  UNL1       -0.2196
     19 C          -4.0332    1.0157    1.9279 C.2     1  UNL1        0.2768
     20 N          -4.4591    1.3733    3.2329 N.pl3   1  UNL1       -0.3133
     21 O          -4.9917    0.7817    0.9605 O.2     1  UNL1       -0.4532
     22 C          -4.7497    0.0621   -0.2215 C.3     1  UNL1        0.1786
     23 C          -5.4974   -1.2763   -0.1425 C.3     1  UNL1       -0.0068
     24 C          -6.7315   -0.5010   -0.6177 C.3     1  UNL1       -0.0454
     25 C          -5.7481    0.4666   -1.2874 C.3     1  UNL1       -0.0068
     26 C          -3.3352   -0.0324   -0.6268 C.3     1  UNL1        0.3159
     27 F          -3.2055    0.6065   -1.8689 F       1  UNL1       -0.1983
     28 F          -3.0651   -1.3808   -0.9062 F       1  UNL1       -0.1983
     29 C           0.0436   -0.2451    0.0675 C.ar    1  UNL1       -0.0321
     30 C           5.6958    0.6235    0.7089 C.ar    1  UNL1        0.0619
     31 N           6.9352    0.8385    0.1784 N.ar    1  UNL1       -0.2178
     32 H           9.8977    0.5421   -0.1583 H       1  UNL1        0.0660
     33 H          10.3304    1.5218   -1.5905 H       1  UNL1        0.0660
     34 H           9.1718    2.1695   -0.3150 H       1  UNL1        0.0660
     35 H           6.4527   -0.4863   -2.8062 H       1  UNL1        0.0884
     36 H           2.6256   -1.1579   -1.1875 H       1  UNL1        0.1552
     37 H           1.5464   -3.0994    1.0417 H       1  UNL1        0.0637
     38 H          -0.6942   -3.5622    1.8215 H       1  UNL1        0.0647
     39 H          -0.9064    2.1404    0.3797 H       1  UNL1        0.0258
     40 H          -2.5374    2.5588   -0.3148 H       1  UNL1        0.0258
     41 H          -1.3446    1.5655   -1.3083 H       1  UNL1        0.0258
     42 H          -3.7321    1.6798    3.9129 H       1  UNL1        0.1466
     43 H          -5.4504    1.3421    3.5319 H       1  UNL1        0.1466
     44 H          -5.1563   -1.9594   -0.9351 H       1  UNL1        0.0306
     45 H          -5.5840   -1.6901    0.8661 H       1  UNL1        0.0306
     46 H          -7.3788   -1.0492   -1.3073 H       1  UNL1        0.0268
     47 H          -7.2182    0.0031    0.2405 H       1  UNL1        0.0268
     48 H          -6.0349    1.5173   -1.2375 H       1  UNL1        0.0306
     49 H          -5.4234    0.1058   -2.2913 H       1  UNL1        0.0306
     50 H           0.2636    0.6806   -0.4256 H       1  UNL1        0.0640
     51 H           5.4485    0.9326    1.7195 H       1  UNL1        0.0854
@<TRIPOS>BOND
     1     1     2    1
     2     2     3    1
     3     3     4   ar
     4     4     5   ar
     5     5     6   ar
     6     6     7    1
     7     7     8    2
     8     7     9   am
     9     9    10    1
    10    10    11   ar
    11    11    12   ar
    12    12    13   ar
    13    13    14    1
    14    13    15   ar
    15    15    16    1
    16    16    17    1
    17    16    18    1
    18    18    19    2
    19    19    20    1
    20    19    21    1
    21    21    22    1
    22    22    23    1
    23    23    24    1
    24    24    25    1
    25    22    26    1
    26    26    27    1
    27    26    28    1
    28    15    29   ar
    29     6    30   ar
    30    30    31   ar
    31    31     3   ar
    32    29    10   ar
    33    26    16    1
    34    25    22    1
    35     1    32    1
    36     1    33    1
    37     1    34    1
    38     4    35    1
    39     9    36    1
    40    11    37    1
    41    12    38    1
    42    17    39    1
    43    17    40    1
    44    17    41    1
    45    20    42    1
    46    20    43    1
    47    23    44    1
    48    23    45    1
    49    24    46    1
    50    24    47    1
    51    25    48    1
    52    25    49    1
    53    29    50    1
    54    30    51    1
