@<TRIPOS>MOLECULE
*****
 57 61 0 0 0
SMALL
GASTEIGER

@<TRIPOS>ATOM
      1 O          -2.6800   -2.9593    3.0814 O.2     1  UNL1       -0.2817
      2 C          -3.2742   -1.9850    2.5570 C.2     1  UNL1        0.2496
      3 C          -4.6932   -1.7545    2.3848 C.2     1  UNL1        0.2915
      4 O          -5.6206   -2.5456    2.7573 O.2     1  UNL1       -0.2661
      5 N          -4.8135   -0.4974    1.7326 N.am    1  UNL1       -0.2598
      6 C          -6.0489    0.1564    1.3496 C.3     1  UNL1        0.0454
      7 C          -6.4990   -0.2054   -0.0063 C.ar    1  UNL1       -0.0240
      8 C          -7.3339   -1.2998   -0.1435 C.ar    1  UNL1       -0.0387
      9 C          -7.7525   -1.6343   -1.4141 C.ar    1  UNL1        0.0309
     10 N          -7.3924   -0.9552   -2.5162 N.ar    1  UNL1       -0.2276
     11 C          -6.5842    0.1100   -2.4150 C.ar    1  UNL1        0.2135
     12 F          -6.1889    0.8328   -3.4978 F       1  UNL1       -0.1839
     13 C          -6.1457    0.4725   -1.1525 C.ar    1  UNL1       -0.0026
     14 C          -3.5007    0.0378    1.5065 C.ar    1  UNL1        0.0481
     15 C          -3.0656    1.1981    0.9254 C.ar    1  UNL1       -0.0377
     16 C          -1.7095    1.4787    0.8322 C.ar    1  UNL1       -0.0335
     17 C          -0.7478    0.6163    1.3125 C.ar    1  UNL1        0.1063
     18 S           0.9718    0.9743    1.1904 S.O2    1  UNL1        0.0612
     19 O           1.1923    2.4236    1.4111 O.2     1  UNL1       -0.1528
     20 O           1.6131    0.2485    2.3691 O.2     1  UNL1       -0.1528
     21 N           1.6587    0.3533   -0.2261 N.3     1  UNL1       -0.1703
     22 C           1.0550    0.9261   -1.3831 C.3     1  UNL1        0.0210
     23 C           2.1340    1.6377   -2.1697 C.3     1  UNL1       -0.0370
     24 C           3.1974    1.8255   -1.0786 C.3     1  UNL1       -0.0313
     25 C           3.0651    0.4803   -0.3708 C.3     1  UNL1        0.0659
     26 C           3.8502    0.4314    0.8872 C.3     1  UNL1        0.1067
     27 O           5.2009    0.5462    0.6748 O.3     1  UNL1       -0.4904
     28 C           6.1540   -0.1690    0.0584 C.ar    1  UNL1        0.1206
     29 C           7.4650    0.3309    0.0405 C.ar    1  UNL1       -0.0199
     30 C           8.4696   -0.3688   -0.5756 C.ar    1  UNL1       -0.0583
     31 C           8.2183   -1.5851   -1.1956 C.ar    1  UNL1       -0.0615
     32 C           6.9352   -2.0714   -1.1759 C.ar    1  UNL1       -0.0583
     33 C           5.9277   -1.3636   -0.5541 C.ar    1  UNL1       -0.0199
     34 C          -1.2070   -0.5505    1.8961 C.ar    1  UNL1       -0.0226
     35 C          -2.5567   -0.8390    1.9938 C.ar    1  UNL1        0.0502
     36 H          -5.9517    1.2755    1.4652 H       1  UNL1        0.0518
     37 H          -6.8071   -0.1410    2.1121 H       1  UNL1        0.0518
     38 H          -7.6599   -1.8897    0.7145 H       1  UNL1        0.0636
     39 H          -8.4071   -2.4985   -1.4874 H       1  UNL1        0.0830
     40 H          -5.4931    1.3324   -1.0690 H       1  UNL1        0.0665
     41 H          -3.8031    1.9074    0.5326 H       1  UNL1        0.0637
     42 H          -1.4252    2.4052    0.3674 H       1  UNL1        0.0638
     43 H           0.5560    0.1581   -2.0363 H       1  UNL1        0.0444
     44 H           0.2763    1.6741   -1.1433 H       1  UNL1        0.0444
     45 H           2.5375    0.9134   -2.9045 H       1  UNL1        0.0279
     46 H           1.8166    2.5874   -2.5984 H       1  UNL1        0.0279
     47 H           2.9342    2.6632   -0.4257 H       1  UNL1        0.0282
     48 H           4.1621    1.9278   -1.6015 H       1  UNL1        0.0282
     49 H           3.4054   -0.2661   -1.0942 H       1  UNL1        0.0513
     50 H           3.5654    1.2376    1.6122 H       1  UNL1        0.0713
     51 H           3.6570   -0.5807    1.3603 H       1  UNL1        0.0713
     52 H           7.6738    1.2666    0.5139 H       1  UNL1        0.0654
     53 H           9.4970   -0.0232   -0.6153 H       1  UNL1        0.0619
     54 H           8.9936   -2.1521   -1.6866 H       1  UNL1        0.0618
     55 H           6.6871   -3.0323   -1.6545 H       1  UNL1        0.0619
     56 H           4.9336   -1.8339   -0.5658 H       1  UNL1        0.0654
     57 H          -0.4427   -1.2274    2.2737 H       1  UNL1        0.0645
@<TRIPOS>BOND
     1     1     2    2
     2     2     3    1
     3     3     4    2
     4     3     5   am
     5     5     6    1
     6     6     7    1
     7     7     8   ar
     8     8     9   ar
     9     9    10   ar
    10    10    11   ar
    11    11    12    1
    12    11    13   ar
    13     5    14    1
    14    14    15   ar
    15    15    16   ar
    16    16    17   ar
    17    17    18    1
    18    18    19    2
    19    18    20    2
    20    18    21    1
    21    21    22    1
    22    22    23    1
    23    23    24    1
    24    24    25    1
    25    25    26    1
    26    26    27    1
    27    27    28    1
    28    28    29   ar
    29    29    30   ar
    30    30    31   ar
    31    31    32   ar
    32    32    33   ar
    33    17    34   ar
    34    34    35   ar
    35    35     2    1
    36    13     7   ar
    37    35    14   ar
    38    25    21    1
    39    33    28   ar
    40     6    36    1
    41     6    37    1
    42     8    38    1
    43     9    39    1
    44    13    40    1
    45    15    41    1
    46    16    42    1
    47    22    43    1
    48    22    44    1
    49    23    45    1
    50    23    46    1
    51    24    47    1
    52    24    48    1
    53    25    49    1
    54    26    50    1
    55    26    51    1
    56    29    52    1
    57    30    53    1
    58    31    54    1
    59    32    55    1
    60    33    56    1
    61    34    57    1
