@<TRIPOS>MOLECULE
*****
 56 58 0 0 0
SMALL
GASTEIGER

@<TRIPOS>ATOM
      1 C           5.9979   -1.0496    0.9036 C.3     1  UNL1        0.1017
      2 O           7.2218   -1.5406    1.4020 O.3     1  UNL1       -0.3872
      3 C           5.0737   -0.8564    2.0541 C.3     1  UNL1        0.1166
      4 O           3.8084   -0.3841    1.7737 O.3     1  UNL1       -0.4894
      5 C           2.8511   -0.9898    1.0107 C.ar    1  UNL1        0.1207
      6 C           2.6914   -2.1394    0.2868 C.ar    1  UNL1       -0.0182
      7 C           1.5213   -2.3781   -0.3570 C.ar    1  UNL1       -0.0371
      8 C           0.4286   -1.5451   -0.3578 C.ar    1  UNL1        0.0326
      9 N          -0.7197   -1.9336   -1.0380 N.pl3   1  UNL1       -0.2993
     10 C          -1.9336   -1.2889   -1.3425 C.ar    1  UNL1        0.1279
     11 N          -2.1878   -0.8602   -2.5842 N.ar    1  UNL1       -0.2205
     12 C          -3.3495   -0.2459   -2.8502 C.ar    1  UNL1        0.1201
     13 N          -4.2559   -0.0585   -1.8816 N.ar    1  UNL1       -0.2205
     14 C          -4.1273   -0.4360   -0.6011 C.ar    1  UNL1        0.1280
     15 N          -5.0102   -0.2864    0.4912 N.pl3   1  UNL1       -0.2971
     16 C          -6.3014    0.2969    0.4728 C.ar    1  UNL1        0.0686
     17 C          -7.0031    0.3751    1.6844 C.ar    1  UNL1        0.1445
     18 F          -6.5060   -0.0858    2.8575 F       1  UNL1       -0.2035
     19 C          -8.2454    0.9507    1.6496 C.ar    1  UNL1       -0.0241
     20 C          -8.9005    1.4672    0.5638 C.ar    1  UNL1       -0.0473
     21 C          -8.1784    1.3766   -0.6338 C.ar    1  UNL1        0.0567
     22 C          -6.9176    0.8031   -0.6460 C.ar    1  UNL1       -0.0261
     23 C          -8.7636    1.8996   -1.9176 C.3     1  UNL1        0.4175
     24 F          -7.8038    2.7443   -2.4844 F       1  UNL1       -0.1659
     25 F          -8.8984    0.8299   -2.7844 F       1  UNL1       -0.1659
     26 F          -9.9428    2.5627   -1.6858 F       1  UNL1       -0.1659
     27 C          -2.9150   -1.0540   -0.4195 C.ar    1  UNL1        0.0185
     28 C           0.5804   -0.3599    0.3812 C.ar    1  UNL1       -0.0371
     29 C           1.7791   -0.0858    1.0581 C.ar    1  UNL1       -0.0182
     30 C           6.2669    0.3110    0.2827 C.3     1  UNL1        0.0276
     31 N           6.7936    1.2498    1.2504 N.3     1  UNL1       -0.3058
     32 C           6.9692    2.5080    0.5188 C.3     1  UNL1       -0.0130
     33 C           8.1064    0.8125    1.6940 C.3     1  UNL1       -0.0130
     34 H           5.6590   -1.7791    0.1637 H       1  UNL1        0.0640
     35 H           7.0677   -2.2388    2.0840 H       1  UNL1        0.2100
     36 H           4.9994   -1.8551    2.5820 H       1  UNL1        0.0723
     37 H           5.6079   -0.2046    2.7986 H       1  UNL1        0.0723
     38 H           3.5589   -2.7532    0.3219 H       1  UNL1        0.0655
     39 H           1.5062   -3.3245   -0.9026 H       1  UNL1        0.0637
     40 H          -0.8202   -2.8697   -1.4511 H       1  UNL1        0.1536
     41 H          -3.5735    0.1054   -3.8493 H       1  UNL1        0.1048
     42 H          -4.6681   -0.6468    1.4115 H       1  UNL1        0.1536
     43 H          -8.8120    1.0228    2.5921 H       1  UNL1        0.0647
     44 H          -9.8680    1.9267    0.4812 H       1  UNL1        0.0624
     45 H          -6.4218    0.7678   -1.6047 H       1  UNL1        0.0642
     46 H          -2.6451   -1.4294    0.5858 H       1  UNL1        0.0686
     47 H          -0.3418    0.2292    0.3140 H       1  UNL1        0.0637
     48 H           1.6122    0.8865    1.5274 H       1  UNL1        0.0655
     49 H           7.0677    0.2131   -0.5039 H       1  UNL1        0.0453
     50 H           5.3947    0.7079   -0.2635 H       1  UNL1        0.0453
     51 H           7.9750    2.4805    0.0511 H       1  UNL1        0.0391
     52 H           6.2161    2.5882   -0.2812 H       1  UNL1        0.0391
     53 H           6.9395    3.3652    1.2174 H       1  UNL1        0.0391
     54 H           8.7635    1.7147    1.8856 H       1  UNL1        0.0391
     55 H           8.0841    0.2356    2.6258 H       1  UNL1        0.0391
     56 H           8.5685    0.2484    0.8646 H       1  UNL1        0.0391
@<TRIPOS>BOND
     1     1     2    1
     2     1     3    1
     3     3     4    1
     4     4     5    1
     5     5     6   ar
     6     6     7   ar
     7     7     8   ar
     8     8     9    1
     9     9    10    1
    10    10    11   ar
    11    11    12   ar
    12    12    13   ar
    13    13    14   ar
    14    14    15    1
    15    15    16    1
    16    16    17   ar
    17    17    18    1
    18    17    19   ar
    19    19    20   ar
    20    20    21   ar
    21    21    22   ar
    22    21    23    1
    23    23    24    1
    24    23    25    1
    25    23    26    1
    26    14    27   ar
    27     8    28   ar
    28    28    29   ar
    29     1    30    1
    30    30    31    1
    31    31    32    1
    32    31    33    1
    33    29     5   ar
    34    27    10   ar
    35    22    16   ar
    36     1    34    1
    37     2    35    1
    38     3    36    1
    39     3    37    1
    40     6    38    1
    41     7    39    1
    42     9    40    1
    43    12    41    1
    44    15    42    1
    45    19    43    1
    46    20    44    1
    47    22    45    1
    48    27    46    1
    49    28    47    1
    50    29    48    1
    51    30    49    1
    52    30    50    1
    53    32    51    1
    54    32    52    1
    55    32    53    1
    56    33    54    1
    57    33    55    1
    58    33    56    1
