@<TRIPOS>MOLECULE
*****
 52 54 0 0 0
SMALL
GASTEIGER

@<TRIPOS>ATOM
      1 C           0.1555    5.8639   -0.6311 C.3     1  UNL1       -0.0495
      2 C          -0.6941    4.6264   -0.6101 C.3     1  UNL1        0.0103
      3 N           0.1296    3.4217   -0.4524 N.am    1  UNL1       -0.2981
      4 C          -0.6396    2.2251   -0.4277 C.2     1  UNL1        0.3225
      5 O          -1.8830    2.3758   -0.5423 O.2     1  UNL1       -0.2508
      6 N           0.0318    0.9804   -0.2796 N.am    1  UNL1       -0.1659
      7 N           1.4362    0.8032   -0.1516 N.2     1  UNL1       -0.1793
      8 C           1.7788   -0.3954   -0.4849 C.2     1  UNL1        0.0720
      9 C           0.5460   -1.1621   -0.8879 C.3     1  UNL1        0.0194
     10 C          -0.5545   -0.3773   -0.2274 C.3     1  UNL1        0.0918
     11 C          -1.8626   -0.4912   -0.9093 C.3     1  UNL1       -0.0238
     12 C          -2.4514   -1.9038   -0.8427 C.3     1  UNL1       -0.0383
     13 C          -3.7754   -1.8526   -1.5785 C.3     1  UNL1       -0.0068
     14 N          -4.7030   -0.9116   -0.9836 N.3     1  UNL1       -0.3300
     15 C          -0.6688   -0.8247    1.1785 C.ar    1  UNL1       -0.0216
     16 C           0.0287   -1.7319    1.9413 C.ar    1  UNL1       -0.0565
     17 C          -0.2596   -1.9981    3.2567 C.ar    1  UNL1       -0.0614
     18 C          -1.2939   -1.3510    3.9021 C.ar    1  UNL1       -0.0617
     19 C          -2.0174   -0.4248    3.1496 C.ar    1  UNL1       -0.0614
     20 C          -1.7069   -0.1678    1.8081 C.ar    1  UNL1       -0.0565
     21 C           3.1196   -0.9625   -0.4886 C.ar    1  UNL1        0.0357
     22 C           4.0361   -0.5181    0.4592 C.ar    1  UNL1        0.1324
     23 F           3.6958    0.4280    1.3763 F       1  UNL1       -0.2048
     24 C           5.3154   -1.0672    0.4466 C.ar    1  UNL1       -0.0231
     25 C           5.6718   -2.0294   -0.4812 C.ar    1  UNL1       -0.0237
     26 C           4.7701   -2.4706   -1.4183 C.ar    1  UNL1        0.1242
     27 F           5.0608   -3.4060   -2.3470 F       1  UNL1       -0.2055
     28 C           3.4924   -1.9239   -1.4075 C.ar    1  UNL1       -0.0148
     29 H          -0.3626    6.6853   -1.1533 H       1  UNL1        0.0245
     30 H           1.0982    5.6551   -1.1914 H       1  UNL1        0.0245
     31 H           0.4682    6.1168    0.3897 H       1  UNL1        0.0245
     32 H          -1.2142    4.5145   -1.5840 H       1  UNL1        0.0460
     33 H          -1.4539    4.6301    0.1851 H       1  UNL1        0.0460
     34 H           1.1775    3.4406   -0.3666 H       1  UNL1        0.1503
     35 H           0.6836   -2.1906   -0.5486 H       1  UNL1        0.0354
     36 H           0.4527   -1.2056   -1.9869 H       1  UNL1        0.0354
     37 H          -2.6416    0.1759   -0.4975 H       1  UNL1        0.0290
     38 H          -1.8398   -0.2701   -1.9937 H       1  UNL1        0.0290
     39 H          -2.6510   -2.1582    0.1973 H       1  UNL1        0.0278
     40 H          -1.8213   -2.6228   -1.3991 H       1  UNL1        0.0278
     41 H          -3.6513   -1.5444   -2.6398 H       1  UNL1        0.0422
     42 H          -4.2635   -2.8452   -1.5787 H       1  UNL1        0.0422
     43 H          -5.2771   -0.4104   -1.7046 H       1  UNL1        0.1182
     44 H          -5.4133   -1.4167   -0.3840 H       1  UNL1        0.1182
     45 H           0.8312   -2.2150    1.4104 H       1  UNL1        0.0621
     46 H           0.3865   -2.7428    3.7193 H       1  UNL1        0.0618
     47 H          -1.4757   -1.5930    4.9202 H       1  UNL1        0.0618
     48 H          -2.8083    0.0268    3.7535 H       1  UNL1        0.0618
     49 H          -2.4171    0.5858    1.4700 H       1  UNL1        0.0621
     50 H           6.0159   -0.7065    1.1950 H       1  UNL1        0.0647
     51 H           6.6880   -2.4466   -0.4696 H       1  UNL1        0.0647
     52 H           2.7303   -2.2177   -2.1093 H       1  UNL1        0.0653
@<TRIPOS>BOND
     1     1     2    1
     2     2     3    1
     3     3     4   am
     4     4     5    2
     5     4     6   am
     6     6     7    1
     7     7     8    2
     8     8     9    1
     9     9    10    1
    10    10    11    1
    11    11    12    1
    12    12    13    1
    13    13    14    1
    14    10    15    1
    15    15    16   ar
    16    16    17   ar
    17    17    18   ar
    18    18    19   ar
    19    19    20   ar
    20     8    21    1
    21    21    22   ar
    22    22    23    1
    23    22    24   ar
    24    24    25   ar
    25    25    26   ar
    26    26    27    1
    27    26    28   ar
    28    10     6    1
    29    20    15   ar
    30    28    21   ar
    31     1    29    1
    32     1    30    1
    33     1    31    1
    34     2    32    1
    35     2    33    1
    36     3    34    1
    37     9    35    1
    38     9    36    1
    39    11    37    1
    40    11    38    1
    41    12    39    1
    42    12    40    1
    43    13    41    1
    44    13    42    1
    45    14    43    1
    46    14    44    1
    47    16    45    1
    48    17    46    1
    49    18    47    1
    50    19    48    1
    51    20    49    1
    52    24    50    1
    53    25    51    1
    54    28    52    1
