
     RDKit          3D

 52 54  0  0  0  0  0  0  0  0999 V2000
    0.1555    5.8639   -0.6311 C   0  0  0  0  0  0  0  0  0  0  0  0
   -0.6941    4.6264   -0.6101 C   0  0  0  0  0  0  0  0  0  0  0  0
    0.1296    3.4217   -0.4524 N   0  0  0  0  0  0  0  0  0  0  0  0
   -0.6396    2.2251   -0.4277 C   0  0  0  0  0  0  0  0  0  0  0  0
   -1.8830    2.3758   -0.5423 O   0  0  0  0  0  0  0  0  0  0  0  0
    0.0318    0.9804   -0.2796 N   0  0  0  0  0  0  0  0  0  0  0  0
    1.4362    0.8032   -0.1516 N   0  0  0  0  0  0  0  0  0  0  0  0
    1.7788   -0.3954   -0.4849 C   0  0  0  0  0  0  0  0  0  0  0  0
    0.5460   -1.1621   -0.8879 C   0  0  0  0  0  0  0  0  0  0  0  0
   -0.5545   -0.3773   -0.2274 C   0  0  2  0  0  0  0  0  0  0  0  0
   -1.8626   -0.4912   -0.9093 C   0  0  0  0  0  0  0  0  0  0  0  0
   -2.4514   -1.9038   -0.8427 C   0  0  0  0  0  0  0  0  0  0  0  0
   -3.7754   -1.8526   -1.5785 C   0  0  0  0  0  0  0  0  0  0  0  0
   -4.7030   -0.9116   -0.9836 N   0  0  0  0  0  0  0  0  0  0  0  0
   -0.6688   -0.8247    1.1785 C   0  0  0  0  0  0  0  0  0  0  0  0
    0.0287   -1.7319    1.9413 C   0  0  0  0  0  0  0  0  0  0  0  0
   -0.2596   -1.9981    3.2567 C   0  0  0  0  0  0  0  0  0  0  0  0
   -1.2939   -1.3510    3.9021 C   0  0  0  0  0  0  0  0  0  0  0  0
   -2.0174   -0.4248    3.1496 C   0  0  0  0  0  0  0  0  0  0  0  0
   -1.7069   -0.1678    1.8081 C   0  0  0  0  0  0  0  0  0  0  0  0
    3.1196   -0.9625   -0.4886 C   0  0  0  0  0  0  0  0  0  0  0  0
    4.0361   -0.5181    0.4592 C   0  0  0  0  0  0  0  0  0  0  0  0
    3.6958    0.4280    1.3763 F   0  0  0  0  0  0  0  0  0  0  0  0
    5.3154   -1.0672    0.4466 C   0  0  0  0  0  0  0  0  0  0  0  0
    5.6718   -2.0294   -0.4812 C   0  0  0  0  0  0  0  0  0  0  0  0
    4.7701   -2.4706   -1.4183 C   0  0  0  0  0  0  0  0  0  0  0  0
    5.0608   -3.4060   -2.3470 F   0  0  0  0  0  0  0  0  0  0  0  0
    3.4924   -1.9239   -1.4075 C   0  0  0  0  0  0  0  0  0  0  0  0
   -0.3626    6.6853   -1.1533 H   0  0  0  0  0  0  0  0  0  0  0  0
    1.0982    5.6551   -1.1914 H   0  0  0  0  0  0  0  0  0  0  0  0
    0.4682    6.1168    0.3897 H   0  0  0  0  0  0  0  0  0  0  0  0
   -1.2142    4.5145   -1.5840 H   0  0  0  0  0  0  0  0  0  0  0  0
   -1.4539    4.6301    0.1851 H   0  0  0  0  0  0  0  0  0  0  0  0
    1.1775    3.4406   -0.3666 H   0  0  0  0  0  0  0  0  0  0  0  0
    0.6836   -2.1906   -0.5486 H   0  0  0  0  0  0  0  0  0  0  0  0
    0.4527   -1.2056   -1.9869 H   0  0  0  0  0  0  0  0  0  0  0  0
   -2.6416    0.1759   -0.4975 H   0  0  0  0  0  0  0  0  0  0  0  0
   -1.8398   -0.2701   -1.9937 H   0  0  0  0  0  0  0  0  0  0  0  0
   -2.6510   -2.1582    0.1973 H   0  0  0  0  0  0  0  0  0  0  0  0
   -1.8213   -2.6228   -1.3991 H   0  0  0  0  0  0  0  0  0  0  0  0
   -3.6513   -1.5444   -2.6398 H   0  0  0  0  0  0  0  0  0  0  0  0
   -4.2635   -2.8452   -1.5787 H   0  0  0  0  0  0  0  0  0  0  0  0
   -5.2771   -0.4104   -1.7046 H   0  0  0  0  0  0  0  0  0  0  0  0
   -5.4133   -1.4167   -0.3840 H   0  0  0  0  0  0  0  0  0  0  0  0
    0.8312   -2.2150    1.4104 H   0  0  0  0  0  0  0  0  0  0  0  0
    0.3865   -2.7428    3.7193 H   0  0  0  0  0  0  0  0  0  0  0  0
   -1.4757   -1.5930    4.9202 H   0  0  0  0  0  0  0  0  0  0  0  0
   -2.8083    0.0268    3.7535 H   0  0  0  0  0  0  0  0  0  0  0  0
   -2.4171    0.5858    1.4700 H   0  0  0  0  0  0  0  0  0  0  0  0
    6.0159   -0.7065    1.1950 H   0  0  0  0  0  0  0  0  0  0  0  0
    6.6880   -2.4466   -0.4696 H   0  0  0  0  0  0  0  0  0  0  0  0
    2.7303   -2.2177   -2.1093 H   0  0  0  0  0  0  0  0  0  0  0  0
  1  2  1  0
  2  3  1  0
  3  4  1  0
  4  5  2  0
  4  6  1  0
  6  7  1  0
  7  8  2  0
  8  9  1  0
  9 10  1  0
 10 11  1  6
 11 12  1  0
 12 13  1  0
 13 14  1  0
 10 15  1  0
 15 16  2  0
 16 17  1  0
 17 18  2  0
 18 19  1  0
 19 20  2  0
  8 21  1  0
 21 22  2  0
 22 23  1  0
 22 24  1  0
 24 25  2  0
 25 26  1  0
 26 27  1  0
 26 28  2  0
 10  6  1  0
 20 15  1  0
 28 21  1  0
  1 29  1  0
  1 30  1  0
  1 31  1  0
  2 32  1  0
  2 33  1  0
  3 34  1  0
  9 35  1  0
  9 36  1  0
 11 37  1  0
 11 38  1  0
 12 39  1  0
 12 40  1  0
 13 41  1  0
 13 42  1  0
 14 43  1  0
 14 44  1  0
 16 45  1  0
 17 46  1  0
 18 47  1  0
 19 48  1  0
 20 49  1  0
 24 50  1  0
 25 51  1  0
 28 52  1  0
M  END
$$$$
