@<TRIPOS>MOLECULE
*****
 70 74 0 0 0
SMALL
GASTEIGER

@<TRIPOS>ATOM
      1 C           8.9957   -2.2868    2.0207 C.3     1  UNL1        0.0805
      2 O           8.5341   -1.2521    1.4274 O.3     1  UNL1       -0.4774
      3 C           8.1217   -0.1497    0.8693 C.ar    1  UNL1        0.2552
      4 N           8.5953    1.1231    1.1107 N.ar    1  UNL1       -0.1317
      5 N           7.9713    2.0118    0.3902 N.ar    1  UNL1       -0.2692
      6 C           8.2022    3.4427    0.3759 C.3     1  UNL1        0.0304
      7 C           7.0615    1.3571   -0.3536 C.ar    1  UNL1        0.0503
      8 C           7.1195    0.0116   -0.0886 C.ar    1  UNL1        0.1152
      9 N           6.3328   -1.0373   -0.6819 N.pl3   1  UNL1       -0.2782
     10 C           5.3585   -0.6428   -1.6483 C.ar    1  UNL1        0.2203
     11 N           5.7192   -0.2734   -2.8980 N.ar    1  UNL1       -0.2198
     12 C           4.7741    0.0869   -3.7823 C.ar    1  UNL1        0.0685
     13 C           3.4283    0.0733   -3.3958 C.ar    1  UNL1        0.1674
     14 F           2.5275    0.4402   -4.3124 F       1  UNL1       -0.2016
     15 C           3.0611   -0.3006   -2.1292 C.ar    1  UNL1        0.1132
     16 C           1.6723   -0.3334   -1.6807 C.ar    1  UNL1        0.0284
     17 C           0.5419    0.0063   -2.3866 C.ar    1  UNL1        0.0121
     18 N          -0.5479   -0.1581   -1.6069 N.ar    1  UNL1       -0.3586
     19 C          -0.1880   -0.6025   -0.3810 C.ar    1  UNL1        0.0686
     20 C          -0.9167   -0.9134    0.7523 C.ar    1  UNL1        0.0576
     21 N          -2.3347   -0.7874    0.7318 N.am    1  UNL1       -0.2825
     22 C          -3.1935   -1.8644    0.4293 C.2     1  UNL1        0.2342
     23 O          -2.7644   -2.9912    0.1730 O.2     1  UNL1       -0.2738
     24 C          -4.6777   -1.6030    0.4276 C.3     1  UNL1        0.0848
     25 C          -5.1960   -2.2488    1.6906 C.3     1  UNL1       -0.0409
     26 N          -5.0035   -0.2385    0.3736 N.3     1  UNL1       -0.2890
     27 C          -4.6764    0.4950   -0.7911 C.3     1  UNL1        0.0124
     28 C          -5.9593    0.8706   -1.5096 C.3     1  UNL1        0.0117
     29 N          -6.9206    1.4654   -0.6345 N.3     1  UNL1       -0.3002
     30 C          -6.5461    2.7910   -0.2535 C.3     1  UNL1       -0.0124
     31 C          -7.2432    0.5828    0.4439 C.3     1  UNL1        0.0201
     32 C          -8.3143    1.1413    1.3545 C.3     1  UNL1       -0.0483
     33 C          -5.9533    0.3213    1.2381 C.3     1  UNL1        0.0150
     34 C          -0.2515   -1.3439    1.8632 C.ar    1  UNL1       -0.0384
     35 C           1.1426   -1.4612    1.8346 C.ar    1  UNL1       -0.0593
     36 C           1.8533   -1.1463    0.6954 C.ar    1  UNL1       -0.0518
     37 C           1.1986   -0.7115   -0.4306 C.ar    1  UNL1        0.0107
     38 N           4.0656   -0.6495   -1.2948 N.ar    1  UNL1       -0.2113
     39 H           8.5982   -3.3141    1.7317 H       1  UNL1        0.0660
     40 H           8.9952   -2.2883    3.1727 H       1  UNL1        0.0660
     41 H          10.1182   -2.4313    1.8283 H       1  UNL1        0.0660
     42 H           7.7814    3.8615   -0.5811 H       1  UNL1        0.0473
     43 H           9.2750    3.6908    0.4763 H       1  UNL1        0.0473
     44 H           7.6482    3.9386    1.1975 H       1  UNL1        0.0473
     45 H           6.3598    1.7944   -1.0741 H       1  UNL1        0.0846
     46 H           6.4489   -2.0246   -0.4345 H       1  UNL1        0.1552
     47 H           5.0906    0.3726   -4.7537 H       1  UNL1        0.0861
     48 H           0.4902    0.3565   -3.4159 H       1  UNL1        0.0814
     49 H          -1.5282    0.0172   -1.8623 H       1  UNL1        0.1654
     50 H          -2.8036    0.1397    0.9526 H       1  UNL1        0.1549
     51 H          -5.1450   -2.1076   -0.4667 H       1  UNL1        0.0556
     52 H          -4.8629   -1.6957    2.5927 H       1  UNL1        0.0249
     53 H          -6.2963   -2.2868    1.7080 H       1  UNL1        0.0249
     54 H          -4.8566   -3.3208    1.7317 H       1  UNL1        0.0249
     55 H          -4.0217    1.3781   -0.6450 H       1  UNL1        0.0439
     56 H          -4.1204   -0.1851   -1.4935 H       1  UNL1        0.0439
     57 H          -5.6939    1.5937   -2.3208 H       1  UNL1        0.0439
     58 H          -6.3697   -0.0088   -2.0094 H       1  UNL1        0.0439
     59 H          -5.6279    3.1640   -0.7377 H       1  UNL1        0.0391
     60 H          -7.3678    3.4734   -0.6102 H       1  UNL1        0.0391
     61 H          -6.5095    2.9497    0.8417 H       1  UNL1        0.0391
     62 H          -7.5481   -0.3875    0.0016 H       1  UNL1        0.0472
     63 H          -7.8684    1.2447    2.3641 H       1  UNL1        0.0245
     64 H          -9.1062    0.3740    1.4395 H       1  UNL1        0.0245
     65 H          -8.6867    2.1241    1.0044 H       1  UNL1        0.0245
     66 H          -5.5832    1.3221    1.5776 H       1  UNL1        0.0442
     67 H          -6.2425   -0.3203    2.0710 H       1  UNL1        0.0442
     68 H          -0.7546   -1.6080    2.7948 H       1  UNL1        0.0637
     69 H           1.6555   -1.8056    2.7212 H       1  UNL1        0.0618
     70 H           2.9419   -1.2352    0.6597 H       1  UNL1        0.0624
@<TRIPOS>BOND
     1     1     2    1
     2     2     3    1
     3     3     4   ar
     4     4     5   ar
     5     5     6    1
     6     5     7   ar
     7     7     8   ar
     8     8     9    1
     9     9    10    1
    10    10    11   ar
    11    11    12   ar
    12    12    13   ar
    13    13    14    1
    14    13    15   ar
    15    15    16    1
    16    16    17   ar
    17    17    18   ar
    18    18    19   ar
    19    19    20   ar
    20    20    21    1
    21    21    22   am
    22    22    23    2
    23    22    24    1
    24    24    25    1
    25    24    26    1
    26    26    27    1
    27    27    28    1
    28    28    29    1
    29    29    30    1
    30    29    31    1
    31    31    32    1
    32    31    33    1
    33    20    34   ar
    34    34    35   ar
    35    35    36   ar
    36    36    37   ar
    37    15    38   ar
    38     8     3   ar
    39    38    10   ar
    40    37    16   ar
    41    37    19   ar
    42    33    26    1
    43     1    39    1
    44     1    40    1
    45     1    41    1
    46     6    42    1
    47     6    43    1
    48     6    44    1
    49     7    45    1
    50     9    46    1
    51    12    47    1
    52    17    48    1
    53    18    49    1
    54    21    50    1
    55    24    51    1
    56    25    52    1
    57    25    53    1
    58    25    54    1
    59    27    55    1
    60    27    56    1
    61    28    57    1
    62    28    58    1
    63    30    59    1
    64    30    60    1
    65    30    61    1
    66    31    62    1
    67    32    63    1
    68    32    64    1
    69    32    65    1
    70    33    66    1
    71    33    67    1
    72    34    68    1
    73    35    69    1
    74    36    70    1
