@<TRIPOS>MOLECULE
*****
 45 48 0 0 0
SMALL
GASTEIGER

@<TRIPOS>ATOM
      1 N          -5.5236    1.1749    1.4673 N.am    1  UNL1       -0.3240
      2 C          -4.1709    0.8425    1.2349 C.2     1  UNL1        0.2615
      3 O          -3.3122    1.1658    2.0773 O.2     1  UNL1       -0.2687
      4 C          -3.7582    0.1340    0.0371 C.ar    1  UNL1        0.1470
      5 C          -4.5810   -0.3003   -0.9826 C.ar    1  UNL1        0.0605
      6 N          -3.8235   -0.8933   -1.8842 N.ar    1  UNL1       -0.2339
      7 C          -2.5549   -0.8397   -1.4549 C.ar    1  UNL1        0.1549
      8 C          -1.4209   -1.3117   -2.0419 C.ar    1  UNL1       -0.0153
      9 C          -0.2152   -1.1170   -1.3734 C.ar    1  UNL1       -0.0290
     10 C          -0.1367   -0.4761   -0.1631 C.ar    1  UNL1        0.1103
     11 C           1.1110   -0.2636    0.5471 C.ar    1  UNL1        0.0966
     12 C           1.6705    0.9975    0.7156 C.ar    1  UNL1        0.0983
     13 C           1.1102    2.2376    0.1921 C.ar    1  UNL1        0.0040
     14 C           0.7400    3.2902    0.9917 C.ar    1  UNL1       -0.0497
     15 C           0.2044    4.4623    0.4539 C.ar    1  UNL1       -0.0244
     16 C           0.0341    4.5886   -0.9092 C.ar    1  UNL1        0.1417
     17 F          -0.4777    5.6952   -1.4962 F       1  UNL1       -0.2040
     18 C           0.4079    3.5286   -1.7042 C.ar    1  UNL1        0.0767
     19 CL          0.2015    3.6646   -3.4372 Cl      1  UNL1       -0.0806
     20 C           0.9392    2.3625   -1.1848 C.ar    1  UNL1       -0.0313
     21 N           2.7953    0.8369    1.4320 N.ar    1  UNL1       -0.2351
     22 C           2.9285   -0.4749    1.6976 C.ar    1  UNL1        0.0971
     23 N           1.8786   -1.1425    1.1428 N.ar    1  UNL1       -0.3283
     24 C           1.7430   -2.5670    1.2360 C.3     1  UNL1        0.0268
     25 C           2.4675   -3.3295    0.1704 C.3     1  UNL1       -0.0116
     26 C           3.9503   -3.0806    0.1802 C.3     1  UNL1        0.0458
     27 O           4.5131   -3.8454   -0.8617 O.3     1  UNL1       -0.3949
     28 N          -1.3219   -0.0319    0.3593 N.ar    1  UNL1       -0.1628
     29 N          -2.4718   -0.2122   -0.2695 N.ar    1  UNL1       -0.2076
     30 H          -6.0223    1.1082    2.3800 H       1  UNL1        0.1453
     31 H          -6.1152    1.5286    0.6588 H       1  UNL1        0.1453
     32 H          -5.6454   -0.1560   -0.9925 H       1  UNL1        0.0854
     33 H          -1.4327   -1.8292   -3.0036 H       1  UNL1        0.0655
     34 H           0.6634   -1.4898   -1.8591 H       1  UNL1        0.0641
     35 H           0.8724    3.1919    2.0560 H       1  UNL1        0.0625
     36 H          -0.0883    5.2946    1.0755 H       1  UNL1        0.0647
     37 H           1.2331    1.5305   -1.7946 H       1  UNL1        0.0640
     38 H           3.7467   -0.9112    2.2633 H       1  UNL1        0.1029
     39 H           0.6612   -2.8780    1.3038 H       1  UNL1        0.0493
     40 H           2.1640   -2.9320    2.2171 H       1  UNL1        0.0493
     41 H           2.2308   -4.4253    0.2248 H       1  UNL1        0.0304
     42 H           2.0957   -3.0118   -0.8166 H       1  UNL1        0.0304
     43 H           4.4523   -3.3402    1.1182 H       1  UNL1        0.0558
     44 H           4.0999   -2.0224   -0.1159 H       1  UNL1        0.0558
     45 H           4.1577   -4.7534   -0.8875 H       1  UNL1        0.2094
@<TRIPOS>BOND
     1     1     2   am
     2     2     3    2
     3     2     4    1
     4     4     5   ar
     5     5     6   ar
     6     6     7   ar
     7     7     8   ar
     8     8     9   ar
     9     9    10   ar
    10    10    11    1
    11    11    12   ar
    12    12    13    1
    13    13    14   ar
    14    14    15   ar
    15    15    16   ar
    16    16    17    1
    17    16    18   ar
    18    18    19    1
    19    18    20   ar
    20    12    21   ar
    21    21    22   ar
    22    22    23   ar
    23    23    24    1
    24    24    25    1
    25    25    26    1
    26    26    27    1
    27    10    28   ar
    28    28    29   ar
    29    29     4   ar
    30    29     7   ar
    31    23    11   ar
    32    20    13   ar
    33     1    30    1
    34     1    31    1
    35     5    32    1
    36     8    33    1
    37     9    34    1
    38    14    35    1
    39    15    36    1
    40    20    37    1
    41    22    38    1
    42    24    39    1
    43    24    40    1
    44    25    41    1
    45    25    42    1
    46    26    43    1
    47    26    44    1
    48    27    45    1
