@<TRIPOS>MOLECULE
*****
 44 47 0 0 0
SMALL
GASTEIGER

@<TRIPOS>ATOM
      1 N          -0.9298    2.9421    2.7335 N.pl3   1  UNL1       -0.3275
      2 C          -1.1258    2.4701    1.3907 C.ar    1  UNL1        0.2131
      3 N          -1.8157    3.1761    0.4694 N.ar    1  UNL1       -0.2231
      4 C          -1.9293    2.6177   -0.7535 C.ar    1  UNL1        0.0333
      5 C          -1.3609    1.3903   -1.0188 C.ar    1  UNL1       -0.0159
      6 C          -0.6484    0.6703   -0.0521 C.ar    1  UNL1        0.0945
      7 N          -0.5628    1.2734    1.1588 N.ar    1  UNL1       -0.2131
      8 C          -0.1792   -0.5895   -0.6003 C.ar    1  UNL1        0.0953
      9 C          -1.0038   -1.6671   -0.8653 C.ar    1  UNL1        0.0982
     10 N          -0.1772   -2.6049   -1.3602 N.ar    1  UNL1       -0.2351
     11 C           1.0756   -2.1214   -1.3916 C.ar    1  UNL1        0.0974
     12 N           1.0933   -0.8598   -0.9197 N.ar    1  UNL1       -0.3252
     13 C           2.3360   -0.1270   -0.8657 C.3     1  UNL1        0.0383
     14 C           3.4632   -1.0790   -0.5031 C.3     1  UNL1       -0.0194
     15 C           4.1542   -0.7152    0.7859 C.3     1  UNL1       -0.0022
     16 N           4.7499    0.5758    0.6482 N.3     1  UNL1       -0.3158
     17 C           3.8022    1.5212    0.1561 C.3     1  UNL1       -0.0022
     18 C           2.3801    0.9942    0.1083 C.3     1  UNL1       -0.0194
     19 C          -2.4636   -1.6608   -0.6162 C.ar    1  UNL1        0.0027
     20 C          -2.8005   -1.4850    0.7267 C.ar    1  UNL1       -0.0498
     21 C          -4.1112   -1.4530    1.1037 C.ar    1  UNL1       -0.0258
     22 C          -5.0805   -1.5961    0.1438 C.ar    1  UNL1        0.1234
     23 F          -6.3676   -1.5556    0.5725 F       1  UNL1       -0.2055
     24 C          -4.7395   -1.7721   -1.1968 C.ar    1  UNL1       -0.0258
     25 C          -3.4191   -1.8073   -1.6002 C.ar    1  UNL1       -0.0498
     26 H          -0.1409    3.2249    3.3593 H       1  UNL1        0.1452
     27 H          -1.8902    3.0043    3.1697 H       1  UNL1        0.1452
     28 H          -2.4850    3.2035   -1.4718 H       1  UNL1        0.0831
     29 H          -1.5420    1.0758   -2.0580 H       1  UNL1        0.0655
     30 H           1.8024   -2.8378   -1.7852 H       1  UNL1        0.1029
     31 H           2.5575    0.2882   -1.9003 H       1  UNL1        0.0529
     32 H           3.0183   -2.0808   -0.3304 H       1  UNL1        0.0297
     33 H           4.1639   -1.1997   -1.3383 H       1  UNL1        0.0297
     34 H           3.4789   -0.8225    1.6584 H       1  UNL1        0.0425
     35 H           4.9417   -1.5068    0.9285 H       1  UNL1        0.0425
     36 H           5.0065    0.8780    1.6369 H       1  UNL1        0.1219
     37 H           3.7644    2.4666    0.7391 H       1  UNL1        0.0425
     38 H           4.1085    1.7835   -0.8976 H       1  UNL1        0.0425
     39 H           2.1424    0.6196    1.1033 H       1  UNL1        0.0297
     40 H           1.7766    1.8696   -0.1890 H       1  UNL1        0.0297
     41 H          -2.0530   -1.3702    1.5010 H       1  UNL1        0.0625
     42 H          -4.3767   -1.3138    2.1529 H       1  UNL1        0.0646
     43 H          -5.5195   -1.8809   -1.9295 H       1  UNL1        0.0646
     44 H          -3.0931   -1.9385   -2.6031 H       1  UNL1        0.0625
@<TRIPOS>BOND
     1     1     2    1
     2     2     3   ar
     3     3     4   ar
     4     4     5   ar
     5     5     6   ar
     6     6     7   ar
     7     6     8    1
     8     8     9   ar
     9     9    10   ar
    10    10    11   ar
    11    11    12   ar
    12    12    13    1
    13    13    14    1
    14    14    15    1
    15    15    16    1
    16    16    17    1
    17    17    18    1
    18     9    19    1
    19    19    20   ar
    20    20    21   ar
    21    21    22   ar
    22    22    23    1
    23    22    24   ar
    24    24    25   ar
    25     7     2   ar
    26    12     8   ar
    27    18    13    1
    28    25    19   ar
    29     1    26    1
    30     1    27    1
    31     4    28    1
    32     5    29    1
    33    11    30    1
    34    13    31    1
    35    14    32    1
    36    14    33    1
    37    15    34    1
    38    15    35    1
    39    16    36    1
    40    17    37    1
    41    17    38    1
    42    18    39    1
    43    18    40    1
    44    20    41    1
    45    21    42    1
    46    24    43    1
    47    25    44    1
