@<TRIPOS>MOLECULE
*****
 44 45 0 0 0
SMALL
GASTEIGER

@<TRIPOS>ATOM
      1 C          -1.4584   -0.3333   -1.6930 C.3     1  UNL1       -0.0619
      2 C          -0.7644    0.2114   -0.4478 C.3     1  UNL1       -0.0370
      3 C          -1.3834   -0.4119    0.7814 C.3     1  UNL1       -0.0247
      4 C          -2.8358   -0.0406    0.7755 C.ar    1  UNL1       -0.0434
      5 C          -3.2298    1.1160    1.4009 C.ar    1  UNL1       -0.0549
      6 C          -4.5528    1.4569    1.3973 C.ar    1  UNL1       -0.0163
      7 C          -5.4870    0.6489    0.7722 C.ar    1  UNL1        0.1582
      8 O          -6.8350    1.0141    0.7792 O.3     1  UNL1       -0.5033
      9 C          -5.1283   -0.5109    0.1394 C.ar    1  UNL1        0.1585
     10 O          -6.0599   -1.3332   -0.4938 O.3     1  UNL1       -0.5033
     11 C          -3.7683   -0.8424    0.1543 C.ar    1  UNL1       -0.0133
     12 C           0.6964   -0.0359   -0.5940 C.3     1  UNL1       -0.0370
     13 C           0.9188   -1.5381   -0.7228 C.3     1  UNL1       -0.0619
     14 C           1.5163    0.5525    0.5183 C.3     1  UNL1       -0.0247
     15 C           2.9623    0.2951    0.3515 C.ar    1  UNL1       -0.0434
     16 C           3.5530   -0.8389    0.8852 C.ar    1  UNL1       -0.0549
     17 C           4.9056   -1.0814    0.7303 C.ar    1  UNL1       -0.0163
     18 C           5.7013   -0.1899    0.0341 C.ar    1  UNL1        0.1582
     19 O           7.0723   -0.4064   -0.1401 O.3     1  UNL1       -0.5033
     20 C           5.1160    0.9489   -0.5037 C.ar    1  UNL1        0.1585
     21 O           5.9493    1.8194   -1.1958 O.3     1  UNL1       -0.5033
     22 C           3.7634    1.1912   -0.3485 C.ar    1  UNL1       -0.0133
     23 H          -1.5184   -1.4324   -1.6740 H       1  UNL1        0.0233
     24 H          -2.4681    0.1453   -1.7508 H       1  UNL1        0.0233
     25 H          -0.9296   -0.0497   -2.6118 H       1  UNL1        0.0233
     26 H          -0.9609    1.2998   -0.3906 H       1  UNL1        0.0304
     27 H          -0.8792   -0.0320    1.6746 H       1  UNL1        0.0316
     28 H          -1.3545   -1.5125    0.7790 H       1  UNL1        0.0316
     29 H          -2.4614    1.7173    1.8775 H       1  UNL1        0.0621
     30 H          -4.8734    2.3727    1.8911 H       1  UNL1        0.0655
     31 H          -7.1352    1.9216    0.4759 H       1  UNL1        0.2923
     32 H          -6.4615   -2.1351    0.0156 H       1  UNL1        0.2923
     33 H          -3.4905   -1.7619   -0.3482 H       1  UNL1        0.0658
     34 H           0.9934    0.4017   -1.5843 H       1  UNL1        0.0304
     35 H           0.4702   -2.1087    0.0963 H       1  UNL1        0.0233
     36 H           2.0121   -1.7149   -0.8277 H       1  UNL1        0.0233
     37 H           0.4665   -1.9000   -1.6689 H       1  UNL1        0.0233
     38 H           1.1253    0.2455    1.4876 H       1  UNL1        0.0316
     39 H           1.3852    1.6622    0.4563 H       1  UNL1        0.0316
     40 H           2.9306   -1.5402    1.4321 H       1  UNL1        0.0621
     41 H           5.3272   -1.9803    1.1635 H       1  UNL1        0.0655
     42 H           7.5237   -0.0480   -0.9932 H       1  UNL1        0.2923
     43 H           6.3202    2.6733   -0.7517 H       1  UNL1        0.2923
     44 H           3.3268    2.0847   -0.7754 H       1  UNL1        0.0658
@<TRIPOS>BOND
     1     1     2    1
     2     2     3    1
     3     3     4    1
     4     4     5   ar
     5     5     6   ar
     6     6     7   ar
     7     7     8    1
     8     7     9   ar
     9     9    10    1
    10     9    11   ar
    11     2    12    1
    12    12    13    1
    13    12    14    1
    14    14    15    1
    15    15    16   ar
    16    16    17   ar
    17    17    18   ar
    18    18    19    1
    19    18    20   ar
    20    20    21    1
    21    20    22   ar
    22    11     4   ar
    23    22    15   ar
    24     1    23    1
    25     1    24    1
    26     1    25    1
    27     2    26    1
    28     3    27    1
    29     3    28    1
    30     5    29    1
    31     6    30    1
    32     8    31    1
    33    10    32    1
    34    11    33    1
    35    12    34    1
    36    13    35    1
    37    13    36    1
    38    13    37    1
    39    14    38    1
    40    14    39    1
    41    16    40    1
    42    17    41    1
    43    19    42    1
    44    21    43    1
    45    22    44    1
