@<TRIPOS>MOLECULE
*****
 48 50 0 0 0
SMALL
GASTEIGER

@<TRIPOS>ATOM
      1 C          -7.3258   -2.0680    0.5688 C.3     1  UNL1        0.1072
      2 O          -6.4287   -1.3057    1.3418 O.2     1  UNL1       -0.3971
      3 N          -6.0229   -0.0420    0.9881 N.2     1  UNL1       -0.0943
      4 C          -4.8092    0.3056    1.2024 C.2     1  UNL1        0.0576
      5 C          -4.3882    1.6701    0.8157 C.3     1  UNL1       -0.0109
      6 C          -3.1223    1.5701    0.0392 C.3     1  UNL1       -0.0436
      7 C          -2.6492    0.1889   -0.2687 C.3     1  UNL1       -0.0249
      8 C          -1.2593    0.2736   -0.8598 C.3     1  UNL1        0.0120
      9 N          -0.3266    0.8955    0.0697 N.pl3   1  UNL1       -0.3424
     10 C           1.0336    1.0603   -0.3310 C.ar    1  UNL1        0.0485
     11 C           1.4834    0.6465   -1.5714 C.ar    1  UNL1       -0.0022
     12 C           2.8023    0.8135   -1.9426 C.ar    1  UNL1        0.1517
     13 F           3.2180    0.3991   -3.1648 F       1  UNL1       -0.2034
     14 C           3.7296    1.3949   -1.1061 C.ar    1  UNL1        0.1450
     15 S           5.4102    1.6042   -1.5870 S.O2    1  UNL1        0.0766
     16 O           5.5145    2.4760   -2.8039 O.2     1  UNL1       -0.1498
     17 O           6.1649    2.3305   -0.4874 O.2     1  UNL1       -0.1498
     18 N           6.1578    0.1132   -1.9381 N.pl3   1  UNL1       -0.1937
     19 C           6.3241   -0.9572   -0.9709 C.ar    1  UNL1        0.1774
     20 N           6.7218   -2.0050   -0.7975 N.ar    1  UNL1       -0.2321
     21 C           6.7160   -2.7581    0.2876 C.ar    1  UNL1        0.0369
     22 C           6.1506   -2.2182    1.3855 C.ar    1  UNL1       -0.0030
     23 S           5.6355   -0.5709    0.7500 S.2     1  UNL1       -0.0594
     24 C           3.2822    1.8081    0.1315 C.ar    1  UNL1       -0.0121
     25 C           1.9640    1.6420    0.5046 C.ar    1  UNL1        0.0638
     26 CL          1.4066    2.1706    2.0793 Cl      1  UNL1       -0.0816
     27 C          -2.5668   -0.7069    0.9424 C.3     1  UNL1       -0.0436
     28 C          -3.7955   -0.5818    1.8175 C.3     1  UNL1       -0.0109
     29 H          -6.7494   -2.9353    0.1557 H       1  UNL1        0.0687
     30 H          -8.2156   -2.3957    1.1073 H       1  UNL1        0.0687
     31 H          -7.6287   -1.4372   -0.2920 H       1  UNL1        0.0687
     32 H          -4.1997    2.3144    1.7067 H       1  UNL1        0.0326
     33 H          -5.1721    2.1682    0.1835 H       1  UNL1        0.0326
     34 H          -3.2867    2.0789   -0.9562 H       1  UNL1        0.0272
     35 H          -2.3175    2.1814    0.5083 H       1  UNL1        0.0272
     36 H          -3.2891   -0.2953   -1.0367 H       1  UNL1        0.0316
     37 H          -1.2222    0.8310   -1.8084 H       1  UNL1        0.0464
     38 H          -0.9074   -0.7690   -1.0015 H       1  UNL1        0.0464
     39 H          -0.5940    1.2232    1.0030 H       1  UNL1        0.1461
     40 H           0.7494    0.1820   -2.2439 H       1  UNL1        0.0666
     41 H           6.5329   -0.1008   -2.8705 H       1  UNL1        0.1758
     42 H           7.1505   -3.7833    0.3079 H       1  UNL1        0.0835
     43 H           5.9780   -2.5465    2.4190 H       1  UNL1        0.0710
     44 H           4.0155    2.2718    0.8024 H       1  UNL1        0.0653
     45 H          -1.6277   -0.5407    1.5070 H       1  UNL1        0.0272
     46 H          -2.5370   -1.7528    0.5731 H       1  UNL1        0.0272
     47 H          -3.4594   -0.1847    2.7993 H       1  UNL1        0.0326
     48 H          -4.2406   -1.5897    2.0408 H       1  UNL1        0.0326
@<TRIPOS>BOND
     1     1     2    1
     2     2     3    1
     3     3     4    2
     4     4     5    1
     5     5     6    1
     6     6     7    1
     7     7     8    1
     8     8     9    1
     9     9    10    1
    10    10    11   ar
    11    11    12   ar
    12    12    13    1
    13    12    14   ar
    14    14    15    1
    15    15    16    2
    16    15    17    2
    17    15    18    1
    18    18    19    1
    19    19    20   ar
    20    20    21   ar
    21    21    22   ar
    22    22    23   ar
    23    14    24   ar
    24    24    25   ar
    25    25    26    1
    26     7    27    1
    27    27    28    1
    28    28     4    1
    29    25    10   ar
    30    23    19   ar
    31     1    29    1
    32     1    30    1
    33     1    31    1
    34     5    32    1
    35     5    33    1
    36     6    34    1
    37     6    35    1
    38     7    36    1
    39     8    37    1
    40     8    38    1
    41     9    39    1
    42    11    40    1
    43    18    41    1
    44    21    42    1
    45    22    43    1
    46    24    44    1
    47    27    45    1
    48    27    46    1
    49    28    47    1
    50    28    48    1
