@<TRIPOS>MOLECULE
*****
 65 70 0 0 0
SMALL
GASTEIGER

@<TRIPOS>ATOM
      1 C          -8.5440    1.7169    1.7461 C.3     1  UNL1        0.0032
      2 N          -7.1407    1.6257    1.4922 N.am    1  UNL1       -0.3024
      3 C          -6.3884    2.8028    1.1259 C.3     1  UNL1        0.0032
      4 C          -6.4475    0.3976    1.5890 C.2     1  UNL1        0.2627
      5 O          -7.0897   -0.6358    1.9060 O.2     1  UNL1       -0.2684
      6 C          -4.9958    0.3200    1.3274 C.ar    1  UNL1        0.1070
      7 C          -4.0554    0.9161    2.1354 C.ar    1  UNL1       -0.0209
      8 C          -2.8089    0.6564    1.6203 C.ar    1  UNL1        0.0378
      9 C          -1.5202    0.9721    1.9992 C.ar    1  UNL1        0.0419
     10 N          -0.4825    0.5378    1.2764 N.ar    1  UNL1       -0.2219
     11 C          -0.6177   -0.2054    0.1759 C.ar    1  UNL1        0.2224
     12 N           0.5278   -0.7121   -0.5132 N.pl3   1  UNL1       -0.2685
     13 C           1.8556   -0.6447   -0.0440 C.ar    1  UNL1        0.1250
     14 C           2.2808   -0.0292    1.1061 C.ar    1  UNL1       -0.0208
     15 C           3.6121   -0.1012    1.5146 C.ar    1  UNL1       -0.0449
     16 C           4.5620   -0.8002    0.7689 C.ar    1  UNL1        0.0551
     17 C           5.9280   -0.8661    1.2863 C.2     1  UNL1        0.2481
     18 O           6.0921   -1.0396    2.5619 O.2     1  UNL1       -0.2699
     19 N           7.1066   -0.7584    0.5284 N.am    1  UNL1       -0.2962
     20 C           8.5130   -0.8005    0.8900 C.3     1  UNL1        0.0244
     21 C           8.8235   -0.1906   -0.4014 C.3     1  UNL1        0.0271
     22 C          10.0342   -0.6024   -1.1589 C.3     1  UNL1        0.0056
     23 N          10.6137    0.6879   -0.7207 N.3     1  UNL1       -0.3146
     24 C           9.2635    1.2319   -0.4542 C.3     1  UNL1        0.0056
     25 C           7.4789   -0.5786   -0.8522 C.3     1  UNL1        0.0244
     26 C           4.0998   -1.3923   -0.3645 C.ar    1  UNL1        0.0418
     27 N           2.8172   -1.3170   -0.7480 N.ar    1  UNL1       -0.2394
     28 N          -1.8782   -0.5127   -0.1988 N.ar    1  UNL1       -0.1962
     29 C          -2.9799   -0.1079    0.4864 C.ar    1  UNL1        0.1466
     30 N          -4.3157   -0.2895    0.3432 N.ar    1  UNL1       -0.3180
     31 C          -4.9609   -1.0362   -0.7019 C.3     1  UNL1        0.0366
     32 C          -4.0865   -1.2793   -1.8978 C.3     1  UNL1       -0.0320
     33 C          -5.0703   -1.6019   -3.0357 C.3     1  UNL1       -0.0511
     34 C          -6.2809   -0.7956   -2.7129 C.3     1  UNL1       -0.0511
     35 C          -6.1642   -0.3639   -1.2708 C.3     1  UNL1       -0.0320
     36 H          -8.8045    1.2449    2.7375 H       1  UNL1        0.0428
     37 H          -8.9375    2.7396    1.7977 H       1  UNL1        0.0428
     38 H          -9.1323    1.0944    1.0090 H       1  UNL1        0.0428
     39 H          -5.4096    2.8816    1.5759 H       1  UNL1        0.0428
     40 H          -6.9771    3.7050    1.4503 H       1  UNL1        0.0428
     41 H          -6.2689    2.8677    0.0406 H       1  UNL1        0.0428
     42 H          -4.2152    1.5022    3.0405 H       1  UNL1        0.0647
     43 H          -1.4122    1.5698    2.8864 H       1  UNL1        0.0838
     44 H           0.3782   -1.1782   -1.4600 H       1  UNL1        0.1564
     45 H           1.5891    0.5219    1.7063 H       1  UNL1        0.0652
     46 H           3.9246    0.3823    2.4200 H       1  UNL1        0.0627
     47 H           8.8839   -1.8486    0.9666 H       1  UNL1        0.0471
     48 H           8.7801   -0.2474    1.8144 H       1  UNL1        0.0471
     49 H           9.8860   -0.6513   -2.2414 H       1  UNL1        0.0431
     50 H          10.5449   -1.4411   -0.6684 H       1  UNL1        0.0431
     51 H          11.0799    1.2038   -1.4925 H       1  UNL1        0.1220
     52 H           9.2310    1.7487    0.5255 H       1  UNL1        0.0431
     53 H           8.8824    1.8705   -1.2576 H       1  UNL1        0.0431
     54 H           7.5025   -1.5966   -1.3523 H       1  UNL1        0.0471
     55 H           6.9013    0.1493   -1.4446 H       1  UNL1        0.0471
     56 H           4.8214   -1.9530   -0.9868 H       1  UNL1        0.0838
     57 H          -5.2656   -2.0212   -0.2265 H       1  UNL1        0.0528
     58 H          -3.5786   -0.3497   -2.1881 H       1  UNL1        0.0285
     59 H          -3.4148   -2.1593   -1.7849 H       1  UNL1        0.0285
     60 H          -5.2702   -2.6943   -3.0985 H       1  UNL1        0.0266
     61 H          -4.6812   -1.2618   -4.0154 H       1  UNL1        0.0266
     62 H          -6.4079    0.1276   -3.3071 H       1  UNL1        0.0266
     63 H          -7.1755   -1.4579   -2.8863 H       1  UNL1        0.0266
     64 H          -6.1199    0.7406   -1.1564 H       1  UNL1        0.0285
     65 H          -7.1151   -0.6937   -0.7860 H       1  UNL1        0.0285
@<TRIPOS>BOND
     1     1     2    1
     2     2     3    1
     3     2     4   am
     4     4     5    2
     5     4     6    1
     6     6     7   ar
     7     7     8   ar
     8     8     9   ar
     9     9    10   ar
    10    10    11   ar
    11    11    12    1
    12    12    13    1
    13    13    14   ar
    14    14    15   ar
    15    15    16   ar
    16    16    17    1
    17    17    18    2
    18    17    19   am
    19    19    20    1
    20    20    21    1
    21    21    22    1
    22    22    23    1
    23    23    24    1
    24    21    25    1
    25    16    26   ar
    26    26    27   ar
    27    11    28   ar
    28    28    29   ar
    29    29    30   ar
    30    30    31    1
    31    31    32    1
    32    32    33    1
    33    33    34    1
    34    34    35    1
    35    30     6   ar
    36    35    31    1
    37    29     8   ar
    38    27    13   ar
    39    25    19    1
    40    24    21    1
    41     1    36    1
    42     1    37    1
    43     1    38    1
    44     3    39    1
    45     3    40    1
    46     3    41    1
    47     7    42    1
    48     9    43    1
    49    12    44    1
    50    14    45    1
    51    15    46    1
    52    20    47    1
    53    20    48    1
    54    22    49    1
    55    22    50    1
    56    23    51    1
    57    24    52    1
    58    24    53    1
    59    25    54    1
    60    25    55    1
    61    26    56    1
    62    31    57    1
    63    32    58    1
    64    32    59    1
    65    33    60    1
    66    33    61    1
    67    34    62    1
    68    34    63    1
    69    35    64    1
    70    35    65    1
