
     RDKit          3D

 65 70  0  0  0  0  0  0  0  0999 V2000
   -8.5440    1.7169    1.7461 C   0  0  0  0  0  0  0  0  0  0  0  0
   -7.1407    1.6257    1.4922 N   0  0  0  0  0  0  0  0  0  0  0  0
   -6.3884    2.8028    1.1259 C   0  0  0  0  0  0  0  0  0  0  0  0
   -6.4475    0.3976    1.5890 C   0  0  0  0  0  0  0  0  0  0  0  0
   -7.0897   -0.6358    1.9060 O   0  0  0  0  0  0  0  0  0  0  0  0
   -4.9958    0.3200    1.3274 C   0  0  0  0  0  0  0  0  0  0  0  0
   -4.0554    0.9161    2.1354 C   0  0  0  0  0  0  0  0  0  0  0  0
   -2.8089    0.6564    1.6203 C   0  0  0  0  0  0  0  0  0  0  0  0
   -1.5202    0.9721    1.9992 C   0  0  0  0  0  0  0  0  0  0  0  0
   -0.4825    0.5378    1.2764 N   0  0  0  0  0  0  0  0  0  0  0  0
   -0.6177   -0.2054    0.1759 C   0  0  0  0  0  0  0  0  0  0  0  0
    0.5278   -0.7121   -0.5132 N   0  0  0  0  0  0  0  0  0  0  0  0
    1.8556   -0.6447   -0.0440 C   0  0  0  0  0  0  0  0  0  0  0  0
    2.2808   -0.0292    1.1061 C   0  0  0  0  0  0  0  0  0  0  0  0
    3.6121   -0.1012    1.5146 C   0  0  0  0  0  0  0  0  0  0  0  0
    4.5620   -0.8002    0.7689 C   0  0  0  0  0  0  0  0  0  0  0  0
    5.9280   -0.8661    1.2863 C   0  0  0  0  0  0  0  0  0  0  0  0
    6.0921   -1.0396    2.5619 O   0  0  0  0  0  0  0  0  0  0  0  0
    7.1066   -0.7584    0.5284 N   0  0  0  0  0  0  0  0  0  0  0  0
    8.5130   -0.8005    0.8900 C   0  0  0  0  0  0  0  0  0  0  0  0
    8.8235   -0.1906   -0.4014 C   0  0  0  0  0  0  0  0  0  0  0  0
   10.0342   -0.6024   -1.1589 C   0  0  0  0  0  0  0  0  0  0  0  0
   10.6137    0.6879   -0.7207 N   0  0  0  0  0  0  0  0  0  0  0  0
    9.2635    1.2319   -0.4542 C   0  0  0  0  0  0  0  0  0  0  0  0
    7.4789   -0.5786   -0.8522 C   0  0  0  0  0  0  0  0  0  0  0  0
    4.0998   -1.3923   -0.3645 C   0  0  0  0  0  0  0  0  0  0  0  0
    2.8172   -1.3170   -0.7480 N   0  0  0  0  0  0  0  0  0  0  0  0
   -1.8782   -0.5127   -0.1988 N   0  0  0  0  0  0  0  0  0  0  0  0
   -2.9799   -0.1079    0.4864 C   0  0  0  0  0  0  0  0  0  0  0  0
   -4.3157   -0.2895    0.3432 N   0  0  0  0  0  0  0  0  0  0  0  0
   -4.9609   -1.0362   -0.7019 C   0  0  0  0  0  0  0  0  0  0  0  0
   -4.0865   -1.2793   -1.8978 C   0  0  0  0  0  0  0  0  0  0  0  0
   -5.0703   -1.6019   -3.0357 C   0  0  0  0  0  0  0  0  0  0  0  0
   -6.2809   -0.7956   -2.7129 C   0  0  0  0  0  0  0  0  0  0  0  0
   -6.1642   -0.3639   -1.2708 C   0  0  0  0  0  0  0  0  0  0  0  0
   -8.8045    1.2449    2.7375 H   0  0  0  0  0  0  0  0  0  0  0  0
   -8.9375    2.7396    1.7977 H   0  0  0  0  0  0  0  0  0  0  0  0
   -9.1323    1.0944    1.0090 H   0  0  0  0  0  0  0  0  0  0  0  0
   -5.4096    2.8816    1.5759 H   0  0  0  0  0  0  0  0  0  0  0  0
   -6.9771    3.7050    1.4503 H   0  0  0  0  0  0  0  0  0  0  0  0
   -6.2689    2.8677    0.0406 H   0  0  0  0  0  0  0  0  0  0  0  0
   -4.2152    1.5022    3.0405 H   0  0  0  0  0  0  0  0  0  0  0  0
   -1.4122    1.5698    2.8864 H   0  0  0  0  0  0  0  0  0  0  0  0
    0.3782   -1.1782   -1.4600 H   0  0  0  0  0  0  0  0  0  0  0  0
    1.5891    0.5219    1.7063 H   0  0  0  0  0  0  0  0  0  0  0  0
    3.9246    0.3823    2.4200 H   0  0  0  0  0  0  0  0  0  0  0  0
    8.8839   -1.8486    0.9666 H   0  0  0  0  0  0  0  0  0  0  0  0
    8.7801   -0.2474    1.8144 H   0  0  0  0  0  0  0  0  0  0  0  0
    9.8860   -0.6513   -2.2414 H   0  0  0  0  0  0  0  0  0  0  0  0
   10.5449   -1.4411   -0.6684 H   0  0  0  0  0  0  0  0  0  0  0  0
   11.0799    1.2038   -1.4925 H   0  0  0  0  0  0  0  0  0  0  0  0
    9.2310    1.7487    0.5255 H   0  0  0  0  0  0  0  0  0  0  0  0
    8.8824    1.8705   -1.2576 H   0  0  0  0  0  0  0  0  0  0  0  0
    7.5025   -1.5966   -1.3523 H   0  0  0  0  0  0  0  0  0  0  0  0
    6.9013    0.1493   -1.4446 H   0  0  0  0  0  0  0  0  0  0  0  0
    4.8214   -1.9530   -0.9868 H   0  0  0  0  0  0  0  0  0  0  0  0
   -5.2656   -2.0212   -0.2265 H   0  0  0  0  0  0  0  0  0  0  0  0
   -3.5786   -0.3497   -2.1881 H   0  0  0  0  0  0  0  0  0  0  0  0
   -3.4148   -2.1593   -1.7849 H   0  0  0  0  0  0  0  0  0  0  0  0
   -5.2702   -2.6943   -3.0985 H   0  0  0  0  0  0  0  0  0  0  0  0
   -4.6812   -1.2618   -4.0154 H   0  0  0  0  0  0  0  0  0  0  0  0
   -6.4079    0.1276   -3.3071 H   0  0  0  0  0  0  0  0  0  0  0  0
   -7.1755   -1.4579   -2.8863 H   0  0  0  0  0  0  0  0  0  0  0  0
   -6.1199    0.7406   -1.1564 H   0  0  0  0  0  0  0  0  0  0  0  0
   -7.1151   -0.6937   -0.7860 H   0  0  0  0  0  0  0  0  0  0  0  0
  1  2  1  0
  2  3  1  0
  2  4  1  0
  4  5  2  0
  4  6  1  0
  6  7  2  0
  7  8  1  0
  8  9  2  0
  9 10  1  0
 10 11  2  0
 11 12  1  0
 12 13  1  0
 13 14  2  0
 14 15  1  0
 15 16  2  0
 16 17  1  0
 17 18  2  0
 17 19  1  0
 19 20  1  0
 20 21  1  0
 21 22  1  0
 22 23  1  0
 23 24  1  0
 21 25  1  0
 16 26  1  0
 26 27  2  0
 11 28  1  0
 28 29  2  0
 29 30  1  0
 30 31  1  0
 31 32  1  0
 32 33  1  0
 33 34  1  0
 34 35  1  0
 30  6  1  0
 35 31  1  0
 29  8  1  0
 27 13  1  0
 25 19  1  0
 24 21  1  0
  1 36  1  0
  1 37  1  0
  1 38  1  0
  3 39  1  0
  3 40  1  0
  3 41  1  0
  7 42  1  0
  9 43  1  0
 12 44  1  0
 14 45  1  0
 15 46  1  0
 20 47  1  0
 20 48  1  0
 22 49  1  0
 22 50  1  0
 23 51  1  0
 24 52  1  0
 24 53  1  0
 25 54  1  0
 25 55  1  0
 26 56  1  0
 31 57  1  0
 32 58  1  0
 32 59  1  0
 33 60  1  0
 33 61  1  0
 34 62  1  0
 34 63  1  0
 35 64  1  0
 35 65  1  0
M  END
$$$$
