@<TRIPOS>MOLECULE
*****
 75 78 0 0 0
SMALL
GASTEIGER

@<TRIPOS>ATOM
      1 C           6.6709    3.0665   -3.1079 C.3     1  UNL1        0.0790
      2 O           6.7525    2.8510   -1.6852 O.3     1  UNL1       -0.4915
      3 C           6.2405    1.8618   -1.0203 C.ar    1  UNL1        0.1615
      4 C           5.5325    0.8423   -1.6831 C.ar    1  UNL1       -0.0160
      5 C           4.9751   -0.2120   -1.0830 C.ar    1  UNL1       -0.0548
      6 C           5.0826   -0.3559    0.3113 C.ar    1  UNL1       -0.0422
      7 C           4.4633   -1.5597    0.8519 C.3     1  UNL1       -0.0119
      8 C           3.0278   -1.2881    1.2789 C.3     1  UNL1        0.0158
      9 N           2.3115   -0.5696    0.2858 N.pl3   1  UNL1       -0.3131
     10 C           0.9511   -0.6587   -0.0011 C.ar    1  UNL1        0.2169
     11 N           0.3249    0.4417   -0.5347 N.ar    1  UNL1       -0.2221
     12 C          -0.9321    0.4151   -0.8653 C.ar    1  UNL1        0.0466
     13 C          -1.7337   -0.7224   -0.7135 C.ar    1  UNL1        0.0945
     14 C          -3.1133   -0.6472   -1.0935 C.2     1  UNL1        0.2489
     15 O          -3.8959   -1.6247   -0.8259 O.2     1  UNL1       -0.2700
     16 N          -3.6350    0.4706   -1.7610 N.am    1  UNL1       -0.3112
     17 C          -5.0224    0.6313   -2.1383 C.3     1  UNL1        0.0133
     18 C          -5.9237    0.5625   -0.9378 C.3     1  UNL1       -0.0215
     19 C          -5.5844    1.5208    0.1602 C.3     1  UNL1        0.0161
     20 N          -5.5354    2.8872   -0.2989 N.am    1  UNL1       -0.3014
     21 C          -4.2904    3.5340   -0.7487 C.3     1  UNL1        0.0151
     22 C          -4.4881    4.9706   -0.3166 C.3     1  UNL1       -0.0289
     23 C          -5.7839    5.0973    0.3498 C.3     1  UNL1        0.0256
     24 C          -6.5635    3.7393   -0.3860 C.2     1  UNL1        0.2156
     25 O          -7.6459    4.2055   -0.6228 O.2     1  UNL1       -0.2756
     26 C          -1.1317   -1.8174   -0.1877 C.ar    1  UNL1        0.1362
     27 N          -1.8214   -3.0271    0.0432 N.pl3   1  UNL1       -0.3255
     28 C          -1.1309   -4.1829    0.5274 C.3     1  UNL1        0.0220
     29 C          -0.3206   -4.0337    1.7831 C.3     1  UNL1       -0.0345
     30 C          -0.0445   -5.5242    2.1260 C.3     1  UNL1       -0.0513
     31 C          -1.1294   -6.3084    1.4381 C.3     1  UNL1       -0.0513
     32 C          -2.1504   -5.2372    1.0188 C.3     1  UNL1       -0.0345
     33 N           0.2180   -1.7549    0.1636 N.ar    1  UNL1       -0.1990
     34 C           5.7559    0.5826    1.0251 C.ar    1  UNL1       -0.0131
     35 C           6.3230    1.6636    0.3816 C.ar    1  UNL1        0.1617
     36 O           7.0463    2.6537    1.0230 O.3     1  UNL1       -0.4914
     37 C           7.3694    2.5745    2.3825 C.3     1  UNL1        0.0790
     38 H           5.7434    3.7322   -3.1689 H       1  UNL1        0.0660
     39 H           7.4634    3.7009   -3.5040 H       1  UNL1        0.0660
     40 H           6.4601    2.1814   -3.6967 H       1  UNL1        0.0660
     41 H           5.4305    0.9477   -2.7636 H       1  UNL1        0.0655
     42 H           4.4694   -0.9793   -1.6616 H       1  UNL1        0.0621
     43 H           4.5410   -2.4500    0.2220 H       1  UNL1        0.0328
     44 H           4.9897   -1.8541    1.8225 H       1  UNL1        0.0328
     45 H           2.5709   -2.3348    1.4058 H       1  UNL1        0.0465
     46 H           2.9647   -0.7971    2.2587 H       1  UNL1        0.0465
     47 H           2.8830    0.1345   -0.2811 H       1  UNL1        0.1489
     48 H          -1.4183    1.3198   -1.2612 H       1  UNL1        0.0839
     49 H          -3.0375    1.3033   -2.0694 H       1  UNL1        0.1490
     50 H          -5.2068    1.5709   -2.6659 H       1  UNL1        0.0462
     51 H          -5.3587   -0.1789   -2.8193 H       1  UNL1        0.0462
     52 H          -5.9072   -0.4800   -0.4919 H       1  UNL1        0.0295
     53 H          -6.9672    0.6882   -1.2759 H       1  UNL1        0.0295
     54 H          -6.2469    1.3627    1.0551 H       1  UNL1        0.0465
     55 H          -4.5385    1.2869    0.5202 H       1  UNL1        0.0465
     56 H          -3.4367    3.0610   -0.2623 H       1  UNL1        0.0465
     57 H          -4.1477    3.4325   -1.8333 H       1  UNL1        0.0465
     58 H          -4.3439    5.6154   -1.2026 H       1  UNL1        0.0285
     59 H          -3.6297    5.1922    0.3676 H       1  UNL1        0.0285
     60 H          -6.4002    5.9158    0.0080 H       1  UNL1        0.0359
     61 H          -5.8564    4.8425    1.3738 H       1  UNL1        0.0359
     62 H          -2.8361   -3.1366   -0.1096 H       1  UNL1        0.1478
     63 H          -0.4912   -4.6735   -0.2341 H       1  UNL1        0.0498
     64 H           0.6021   -3.4709    1.6983 H       1  UNL1        0.0283
     65 H          -0.9771   -3.6167    2.5857 H       1  UNL1        0.0283
     66 H          -0.1098   -5.5891    3.2258 H       1  UNL1        0.0266
     67 H           0.9649   -5.8255    1.8163 H       1  UNL1        0.0266
     68 H          -0.7432   -6.7415    0.4961 H       1  UNL1        0.0266
     69 H          -1.6188   -7.0758    2.0325 H       1  UNL1        0.0266
     70 H          -2.7371   -5.5466    0.1741 H       1  UNL1        0.0283
     71 H          -2.6619   -4.7897    1.8747 H       1  UNL1        0.0283
     72 H           5.8110    0.5295    2.1153 H       1  UNL1        0.0658
     73 H           6.9276    3.3734    2.9932 H       1  UNL1        0.0660
     74 H           7.1486    1.6036    2.8460 H       1  UNL1        0.0660
     75 H           8.5321    2.6979    2.4696 H       1  UNL1        0.0660
@<TRIPOS>BOND
     1     1     2    1
     2     2     3    1
     3     3     4   ar
     4     4     5   ar
     5     5     6   ar
     6     6     7    1
     7     7     8    1
     8     8     9    1
     9     9    10    1
    10    10    11   ar
    11    11    12   ar
    12    12    13   ar
    13    13    14    1
    14    14    15    2
    15    14    16   am
    16    16    17    1
    17    17    18    1
    18    18    19    1
    19    19    20    1
    20    20    21    1
    21    21    22    1
    22    22    23    1
    23    23    24    1
    24    24    25    2
    25    13    26   ar
    26    26    27    1
    27    27    28    1
    28    28    29    1
    29    29    30    1
    30    30    31    1
    31    31    32    1
    32    26    33   ar
    33     6    34   ar
    34    34    35   ar
    35    35    36    1
    36    36    37    1
    37    35     3   ar
    38    33    10   ar
    39    24    20   am
    40    32    28    1
    41     1    38    1
    42     1    39    1
    43     1    40    1
    44     4    41    1
    45     5    42    1
    46     7    43    1
    47     7    44    1
    48     8    45    1
    49     8    46    1
    50     9    47    1
    51    12    48    1
    52    16    49    1
    53    17    50    1
    54    17    51    1
    55    18    52    1
    56    18    53    1
    57    19    54    1
    58    19    55    1
    59    21    56    1
    60    21    57    1
    61    22    58    1
    62    22    59    1
    63    23    60    1
    64    23    61    1
    65    27    62    1
    66    28    63    1
    67    29    64    1
    68    29    65    1
    69    30    66    1
    70    30    67    1
    71    31    68    1
    72    31    69    1
    73    32    70    1
    74    32    71    1
    75    34    72    1
    76    37    73    1
    77    37    74    1
    78    37    75    1
