
     RDKit          3D

 75 78  0  0  0  0  0  0  0  0999 V2000
    6.6709    3.0665   -3.1079 C   0  0  0  0  0  0  0  0  0  0  0  0
    6.7525    2.8510   -1.6852 O   0  0  0  0  0  0  0  0  0  0  0  0
    6.2405    1.8618   -1.0203 C   0  0  0  0  0  0  0  0  0  0  0  0
    5.5325    0.8423   -1.6831 C   0  0  0  0  0  0  0  0  0  0  0  0
    4.9751   -0.2120   -1.0830 C   0  0  0  0  0  0  0  0  0  0  0  0
    5.0826   -0.3559    0.3113 C   0  0  0  0  0  0  0  0  0  0  0  0
    4.4633   -1.5597    0.8519 C   0  0  0  0  0  0  0  0  0  0  0  0
    3.0278   -1.2881    1.2789 C   0  0  0  0  0  0  0  0  0  0  0  0
    2.3115   -0.5696    0.2858 N   0  0  0  0  0  0  0  0  0  0  0  0
    0.9511   -0.6587   -0.0011 C   0  0  0  0  0  0  0  0  0  0  0  0
    0.3249    0.4417   -0.5347 N   0  0  0  0  0  0  0  0  0  0  0  0
   -0.9321    0.4151   -0.8653 C   0  0  0  0  0  0  0  0  0  0  0  0
   -1.7337   -0.7224   -0.7135 C   0  0  0  0  0  0  0  0  0  0  0  0
   -3.1133   -0.6472   -1.0935 C   0  0  0  0  0  0  0  0  0  0  0  0
   -3.8959   -1.6247   -0.8259 O   0  0  0  0  0  0  0  0  0  0  0  0
   -3.6350    0.4706   -1.7610 N   0  0  0  0  0  0  0  0  0  0  0  0
   -5.0224    0.6313   -2.1383 C   0  0  0  0  0  0  0  0  0  0  0  0
   -5.9237    0.5625   -0.9378 C   0  0  0  0  0  0  0  0  0  0  0  0
   -5.5844    1.5208    0.1602 C   0  0  0  0  0  0  0  0  0  0  0  0
   -5.5354    2.8872   -0.2989 N   0  0  0  0  0  0  0  0  0  0  0  0
   -4.2904    3.5340   -0.7487 C   0  0  0  0  0  0  0  0  0  0  0  0
   -4.4881    4.9706   -0.3166 C   0  0  0  0  0  0  0  0  0  0  0  0
   -5.7839    5.0973    0.3498 C   0  0  0  0  0  0  0  0  0  0  0  0
   -6.5635    3.7393   -0.3860 C   0  0  0  0  0  0  0  0  0  0  0  0
   -7.6459    4.2055   -0.6228 O   0  0  0  0  0  0  0  0  0  0  0  0
   -1.1317   -1.8174   -0.1877 C   0  0  0  0  0  0  0  0  0  0  0  0
   -1.8214   -3.0271    0.0432 N   0  0  0  0  0  0  0  0  0  0  0  0
   -1.1309   -4.1829    0.5274 C   0  0  0  0  0  0  0  0  0  0  0  0
   -0.3206   -4.0337    1.7831 C   0  0  0  0  0  0  0  0  0  0  0  0
   -0.0445   -5.5242    2.1260 C   0  0  0  0  0  0  0  0  0  0  0  0
   -1.1294   -6.3084    1.4381 C   0  0  0  0  0  0  0  0  0  0  0  0
   -2.1504   -5.2372    1.0188 C   0  0  0  0  0  0  0  0  0  0  0  0
    0.2180   -1.7549    0.1636 N   0  0  0  0  0  0  0  0  0  0  0  0
    5.7559    0.5826    1.0251 C   0  0  0  0  0  0  0  0  0  0  0  0
    6.3230    1.6636    0.3816 C   0  0  0  0  0  0  0  0  0  0  0  0
    7.0463    2.6537    1.0230 O   0  0  0  0  0  0  0  0  0  0  0  0
    7.3694    2.5745    2.3825 C   0  0  0  0  0  0  0  0  0  0  0  0
    5.7434    3.7322   -3.1689 H   0  0  0  0  0  0  0  0  0  0  0  0
    7.4634    3.7009   -3.5040 H   0  0  0  0  0  0  0  0  0  0  0  0
    6.4601    2.1814   -3.6967 H   0  0  0  0  0  0  0  0  0  0  0  0
    5.4305    0.9477   -2.7636 H   0  0  0  0  0  0  0  0  0  0  0  0
    4.4694   -0.9793   -1.6616 H   0  0  0  0  0  0  0  0  0  0  0  0
    4.5410   -2.4500    0.2220 H   0  0  0  0  0  0  0  0  0  0  0  0
    4.9897   -1.8541    1.8225 H   0  0  0  0  0  0  0  0  0  0  0  0
    2.5709   -2.3348    1.4058 H   0  0  0  0  0  0  0  0  0  0  0  0
    2.9647   -0.7971    2.2587 H   0  0  0  0  0  0  0  0  0  0  0  0
    2.8830    0.1345   -0.2811 H   0  0  0  0  0  0  0  0  0  0  0  0
   -1.4183    1.3198   -1.2612 H   0  0  0  0  0  0  0  0  0  0  0  0
   -3.0375    1.3033   -2.0694 H   0  0  0  0  0  0  0  0  0  0  0  0
   -5.2068    1.5709   -2.6659 H   0  0  0  0  0  0  0  0  0  0  0  0
   -5.3587   -0.1789   -2.8193 H   0  0  0  0  0  0  0  0  0  0  0  0
   -5.9072   -0.4800   -0.4919 H   0  0  0  0  0  0  0  0  0  0  0  0
   -6.9672    0.6882   -1.2759 H   0  0  0  0  0  0  0  0  0  0  0  0
   -6.2469    1.3627    1.0551 H   0  0  0  0  0  0  0  0  0  0  0  0
   -4.5385    1.2869    0.5202 H   0  0  0  0  0  0  0  0  0  0  0  0
   -3.4367    3.0610   -0.2623 H   0  0  0  0  0  0  0  0  0  0  0  0
   -4.1477    3.4325   -1.8333 H   0  0  0  0  0  0  0  0  0  0  0  0
   -4.3439    5.6154   -1.2026 H   0  0  0  0  0  0  0  0  0  0  0  0
   -3.6297    5.1922    0.3676 H   0  0  0  0  0  0  0  0  0  0  0  0
   -6.4002    5.9158    0.0080 H   0  0  0  0  0  0  0  0  0  0  0  0
   -5.8564    4.8425    1.3738 H   0  0  0  0  0  0  0  0  0  0  0  0
   -2.8361   -3.1366   -0.1096 H   0  0  0  0  0  0  0  0  0  0  0  0
   -0.4912   -4.6735   -0.2341 H   0  0  0  0  0  0  0  0  0  0  0  0
    0.6021   -3.4709    1.6983 H   0  0  0  0  0  0  0  0  0  0  0  0
   -0.9771   -3.6167    2.5857 H   0  0  0  0  0  0  0  0  0  0  0  0
   -0.1098   -5.5891    3.2258 H   0  0  0  0  0  0  0  0  0  0  0  0
    0.9649   -5.8255    1.8163 H   0  0  0  0  0  0  0  0  0  0  0  0
   -0.7432   -6.7415    0.4961 H   0  0  0  0  0  0  0  0  0  0  0  0
   -1.6188   -7.0758    2.0325 H   0  0  0  0  0  0  0  0  0  0  0  0
   -2.7371   -5.5466    0.1741 H   0  0  0  0  0  0  0  0  0  0  0  0
   -2.6619   -4.7897    1.8747 H   0  0  0  0  0  0  0  0  0  0  0  0
    5.8110    0.5295    2.1153 H   0  0  0  0  0  0  0  0  0  0  0  0
    6.9276    3.3734    2.9932 H   0  0  0  0  0  0  0  0  0  0  0  0
    7.1486    1.6036    2.8460 H   0  0  0  0  0  0  0  0  0  0  0  0
    8.5321    2.6979    2.4696 H   0  0  0  0  0  0  0  0  0  0  0  0
  1  2  1  0
  2  3  1  0
  3  4  2  0
  4  5  1  0
  5  6  2  0
  6  7  1  0
  7  8  1  0
  8  9  1  0
  9 10  1  0
 10 11  2  0
 11 12  1  0
 12 13  2  0
 13 14  1  0
 14 15  2  0
 14 16  1  0
 16 17  1  0
 17 18  1  0
 18 19  1  0
 19 20  1  0
 20 21  1  0
 21 22  1  0
 22 23  1  0
 23 24  1  0
 24 25  2  0
 13 26  1  0
 26 27  1  0
 27 28  1  0
 28 29  1  0
 29 30  1  0
 30 31  1  0
 31 32  1  0
 26 33  2  0
  6 34  1  0
 34 35  2  0
 35 36  1  0
 36 37  1  0
 35  3  1  0
 33 10  1  0
 24 20  1  0
 32 28  1  0
  1 38  1  0
  1 39  1  0
  1 40  1  0
  4 41  1  0
  5 42  1  0
  7 43  1  0
  7 44  1  0
  8 45  1  0
  8 46  1  0
  9 47  1  0
 12 48  1  0
 16 49  1  0
 17 50  1  0
 17 51  1  0
 18 52  1  0
 18 53  1  0
 19 54  1  0
 19 55  1  0
 21 56  1  0
 21 57  1  0
 22 58  1  0
 22 59  1  0
 23 60  1  0
 23 61  1  0
 27 62  1  0
 28 63  1  0
 29 64  1  0
 29 65  1  0
 30 66  1  0
 30 67  1  0
 31 68  1  0
 31 69  1  0
 32 70  1  0
 32 71  1  0
 34 72  1  0
 37 73  1  0
 37 74  1  0
 37 75  1  0
M  END
$$$$
