@<TRIPOS>MOLECULE
*****
 54 56 0 0 0
SMALL
GASTEIGER

@<TRIPOS>ATOM
      1 C          -3.2954   -0.9016    0.1974 C.3     1  UNL1        0.0865
      2 N          -3.8040   -0.4605   -1.1112 N.3     1  UNL1       -0.3197
      3 C          -3.7095    0.0786    1.2714 C.3     1  UNL1       -0.0039
      4 C          -5.1872    0.1830    1.3299 C.ar    1  UNL1       -0.0454
      5 C          -6.1413   -0.4878    2.0584 C.ar    1  UNL1       -0.0585
      6 C          -7.4749   -0.1814    1.8968 C.ar    1  UNL1       -0.0615
      7 C          -7.9222    0.8002    1.0082 C.ar    1  UNL1       -0.0617
      8 C          -6.9644    1.4575    0.2916 C.ar    1  UNL1       -0.0615
      9 C          -5.6296    1.1671    0.4391 C.ar    1  UNL1       -0.0585
     10 C          -1.8128   -0.9895    0.0819 C.2     1  UNL1        0.2333
     11 O          -1.3940   -1.6747    1.0481 O.2     1  UNL1       -0.2739
     12 N          -1.0789   -0.3650   -0.9880 N.am    1  UNL1       -0.2886
     13 C          -1.3565    0.4917   -2.1544 C.3     1  UNL1        0.0156
     14 C          -0.2383    1.5383   -1.9874 C.3     1  UNL1       -0.0350
     15 C           0.9399    0.6033   -1.8325 C.3     1  UNL1       -0.0243
     16 C           0.3479   -0.5713   -1.0933 C.3     1  UNL1        0.1022
     17 C           1.0398   -0.8222    0.1853 C.2     1  UNL1        0.2338
     18 O           1.0677   -1.0122    1.4361 O.2     1  UNL1       -0.2738
     19 N           2.4460   -0.8978   -0.1002 N.am    1  UNL1       -0.3097
     20 C           3.3978   -1.1488    0.9870 C.3     1  UNL1        0.0369
     21 C           4.7924   -0.9258    0.5260 C.ar    1  UNL1       -0.0301
     22 C           5.3773    0.3284    0.7335 C.ar    1  UNL1       -0.0542
     23 C           6.6502    0.6523    0.3392 C.ar    1  UNL1       -0.0501
     24 C           7.1764    2.0157    0.6181 C.3     1  UNL1       -0.0397
     25 C           7.4056   -0.2839   -0.2920 C.ar    1  UNL1       -0.0588
     26 C           6.8599   -1.5419   -0.5170 C.ar    1  UNL1       -0.0612
     27 C           5.5785   -1.8574   -0.1160 C.ar    1  UNL1       -0.0571
     28 H          -3.6895   -1.9121    0.3675 H       1  UNL1        0.0558
     29 H          -3.4177   -1.1133   -1.8651 H       1  UNL1        0.1189
     30 H          -4.8681   -0.5500   -1.1150 H       1  UNL1        0.1189
     31 H          -3.3902   -0.3681    2.2490 H       1  UNL1        0.0333
     32 H          -3.2131    1.0441    1.1857 H       1  UNL1        0.0333
     33 H          -5.6865   -1.2163    2.7116 H       1  UNL1        0.0620
     34 H          -8.1649   -0.7431    2.4988 H       1  UNL1        0.0618
     35 H          -8.9985    0.9790    0.9403 H       1  UNL1        0.0618
     36 H          -7.3567    2.2132   -0.3878 H       1  UNL1        0.0618
     37 H          -5.0126    1.7902   -0.2086 H       1  UNL1        0.0620
     38 H          -2.3322    0.9735   -2.1306 H       1  UNL1        0.0465
     39 H          -1.1546   -0.0089   -3.1069 H       1  UNL1        0.0465
     40 H          -0.3349    2.0700   -1.0152 H       1  UNL1        0.0281
     41 H          -0.1674    2.2090   -2.8533 H       1  UNL1        0.0281
     42 H           1.2646    0.2926   -2.8589 H       1  UNL1        0.0288
     43 H           1.7669    1.0324   -1.2308 H       1  UNL1        0.0288
     44 H           0.5214   -1.4930   -1.7222 H       1  UNL1        0.0597
     45 H           2.9298   -0.7914   -1.0535 H       1  UNL1        0.1491
     46 H           3.3500   -2.2246    1.3042 H       1  UNL1        0.0512
     47 H           3.2151   -0.4575    1.8330 H       1  UNL1        0.0512
     48 H           4.7844    1.0659    1.2314 H       1  UNL1        0.0623
     49 H           6.2942    2.6986    0.5461 H       1  UNL1        0.0278
     50 H           7.9004    2.3102   -0.1655 H       1  UNL1        0.0278
     51 H           7.6412    2.0500    1.6270 H       1  UNL1        0.0278
     52 H           8.4081    0.0286   -0.5833 H       1  UNL1        0.0620
     53 H           7.4889   -2.2498   -1.0182 H       1  UNL1        0.0618
     54 H           5.1517   -2.8236   -0.2858 H       1  UNL1        0.0621
@<TRIPOS>BOND
     1     1     2    1
     2     1     3    1
     3     3     4    1
     4     4     5   ar
     5     5     6   ar
     6     6     7   ar
     7     7     8   ar
     8     8     9   ar
     9     1    10    1
    10    10    11    2
    11    10    12   am
    12    12    13    1
    13    13    14    1
    14    14    15    1
    15    15    16    1
    16    16    17    1
    17    17    18    2
    18    17    19   am
    19    19    20    1
    20    20    21    1
    21    21    22   ar
    22    22    23   ar
    23    23    24    1
    24    23    25   ar
    25    25    26   ar
    26    26    27   ar
    27     9     4   ar
    28    16    12    1
    29    27    21   ar
    30     1    28    1
    31     2    29    1
    32     2    30    1
    33     3    31    1
    34     3    32    1
    35     5    33    1
    36     6    34    1
    37     7    35    1
    38     8    36    1
    39     9    37    1
    40    13    38    1
    41    13    39    1
    42    14    40    1
    43    14    41    1
    44    15    42    1
    45    15    43    1
    46    16    44    1
    47    19    45    1
    48    20    46    1
    49    20    47    1
    50    22    48    1
    51    24    49    1
    52    24    50    1
    53    24    51    1
    54    25    52    1
    55    26    53    1
    56    27    54    1
