@<TRIPOS>MOLECULE
*****
 42 44 0 0 0
SMALL
GASTEIGER

@<TRIPOS>ATOM
      1 C           7.4929    0.4054    0.3228 C.ar    1  UNL1       -0.0615
      2 C           6.9724    0.8825   -0.8588 C.ar    1  UNL1       -0.0583
      3 C           5.8475    0.2508   -1.3586 C.ar    1  UNL1       -0.0193
      4 C           5.2783   -0.8131   -0.6919 C.ar    1  UNL1        0.1284
      5 O           4.1578   -1.4495   -1.1803 O.3     1  UNL1       -0.4560
      6 C           2.9142   -0.9840   -0.7683 C.ar    1  UNL1        0.1287
      7 C           2.7622    0.0981    0.0749 C.ar    1  UNL1       -0.0159
      8 C           1.5217    0.5657    0.4897 C.ar    1  UNL1       -0.0165
      9 C           0.3661   -0.0525    0.0614 C.ar    1  UNL1        0.1208
     10 O          -0.8601    0.4288    0.4854 O.3     1  UNL1       -0.4907
     11 C          -2.0918   -0.1366    0.1059 C.3     1  UNL1        0.1022
     12 C          -3.1868    0.6664    0.7677 C.3     1  UNL1        0.0331
     13 N          -4.5037    0.1609    0.4452 N.3     1  UNL1       -0.2991
     14 C          -4.8891    0.3366   -0.9193 C.3     1  UNL1       -0.0010
     15 C          -6.3717    0.0054   -0.8806 C.3     1  UNL1       -0.0390
     16 C          -6.7855    0.5097    0.4845 C.3     1  UNL1       -0.0390
     17 C          -5.5307    0.8138    1.2437 C.3     1  UNL1       -0.0010
     18 C           0.5069   -1.1345   -0.7810 C.ar    1  UNL1       -0.0165
     19 C           1.7397   -1.5968   -1.1916 C.ar    1  UNL1       -0.0159
     20 C           5.8141   -1.2759    0.4899 C.ar    1  UNL1       -0.0193
     21 C           6.9429   -0.6554    1.0076 C.ar    1  UNL1       -0.0583
     22 H           8.3815    0.8507    0.7833 H       1  UNL1        0.0618
     23 H           7.4539    1.7133   -1.3357 H       1  UNL1        0.0619
     24 H           5.4473    0.6341   -2.2879 H       1  UNL1        0.0654
     25 H           3.6898    0.5857    0.4120 H       1  UNL1        0.0655
     26 H           1.4637    1.4352    1.1670 H       1  UNL1        0.0655
     27 H          -2.1833    0.0256   -1.0064 H       1  UNL1        0.0709
     28 H          -2.1551   -1.2127    0.2983 H       1  UNL1        0.0709
     29 H          -3.0601    0.6831    1.8634 H       1  UNL1        0.0460
     30 H          -3.1136    1.7095    0.4233 H       1  UNL1        0.0460
     31 H          -4.6822    1.3276   -1.3280 H       1  UNL1        0.0427
     32 H          -4.4231   -0.4390   -1.5708 H       1  UNL1        0.0427
     33 H          -6.5233   -1.0859   -0.9939 H       1  UNL1        0.0278
     34 H          -6.8608    0.5557   -1.7097 H       1  UNL1        0.0278
     35 H          -7.4196    1.4293    0.4164 H       1  UNL1        0.0278
     36 H          -7.4064   -0.2615    0.9822 H       1  UNL1        0.0278
     37 H          -5.5345    0.3263    2.2543 H       1  UNL1        0.0427
     38 H          -5.3249    1.9006    1.3428 H       1  UNL1        0.0427
     39 H          -0.4082   -1.6092   -1.1094 H       1  UNL1        0.0655
     40 H           1.8289   -2.4503   -1.8576 H       1  UNL1        0.0655
     41 H           5.3874   -2.1119    1.0362 H       1  UNL1        0.0654
     42 H           7.3454   -1.0318    1.9323 H       1  UNL1        0.0619
@<TRIPOS>BOND
     1     1     2   ar
     2     2     3   ar
     3     3     4   ar
     4     4     5    1
     5     5     6    1
     6     6     7   ar
     7     7     8   ar
     8     8     9   ar
     9     9    10    1
    10    10    11    1
    11    11    12    1
    12    12    13    1
    13    13    14    1
    14    14    15    1
    15    15    16    1
    16    16    17    1
    17     9    18   ar
    18    18    19   ar
    19     4    20   ar
    20    20    21   ar
    21    21     1   ar
    22    19     6   ar
    23    17    13    1
    24     1    22    1
    25     2    23    1
    26     3    24    1
    27     7    25    1
    28     8    26    1
    29    11    27    1
    30    11    28    1
    31    12    29    1
    32    12    30    1
    33    14    31    1
    34    14    32    1
    35    15    33    1
    36    15    34    1
    37    16    35    1
    38    16    36    1
    39    17    37    1
    40    17    38    1
    41    18    39    1
    42    19    40    1
    43    20    41    1
    44    21    42    1
