
     RDKit          3D

 42 44  0  0  0  0  0  0  0  0999 V2000
    7.4929    0.4054    0.3228 C   0  0  0  0  0  0  0  0  0  0  0  0
    6.9724    0.8825   -0.8588 C   0  0  0  0  0  0  0  0  0  0  0  0
    5.8475    0.2508   -1.3586 C   0  0  0  0  0  0  0  0  0  0  0  0
    5.2783   -0.8131   -0.6919 C   0  0  0  0  0  0  0  0  0  0  0  0
    4.1578   -1.4495   -1.1803 O   0  0  0  0  0  0  0  0  0  0  0  0
    2.9142   -0.9840   -0.7683 C   0  0  0  0  0  0  0  0  0  0  0  0
    2.7622    0.0981    0.0749 C   0  0  0  0  0  0  0  0  0  0  0  0
    1.5217    0.5657    0.4897 C   0  0  0  0  0  0  0  0  0  0  0  0
    0.3661   -0.0525    0.0614 C   0  0  0  0  0  0  0  0  0  0  0  0
   -0.8601    0.4288    0.4854 O   0  0  0  0  0  0  0  0  0  0  0  0
   -2.0918   -0.1366    0.1059 C   0  0  0  0  0  0  0  0  0  0  0  0
   -3.1868    0.6664    0.7677 C   0  0  0  0  0  0  0  0  0  0  0  0
   -4.5037    0.1609    0.4452 N   0  0  0  0  0  0  0  0  0  0  0  0
   -4.8891    0.3366   -0.9193 C   0  0  0  0  0  0  0  0  0  0  0  0
   -6.3717    0.0054   -0.8806 C   0  0  0  0  0  0  0  0  0  0  0  0
   -6.7855    0.5097    0.4845 C   0  0  0  0  0  0  0  0  0  0  0  0
   -5.5307    0.8138    1.2437 C   0  0  0  0  0  0  0  0  0  0  0  0
    0.5069   -1.1345   -0.7810 C   0  0  0  0  0  0  0  0  0  0  0  0
    1.7397   -1.5968   -1.1916 C   0  0  0  0  0  0  0  0  0  0  0  0
    5.8141   -1.2759    0.4899 C   0  0  0  0  0  0  0  0  0  0  0  0
    6.9429   -0.6554    1.0076 C   0  0  0  0  0  0  0  0  0  0  0  0
    8.3815    0.8507    0.7833 H   0  0  0  0  0  0  0  0  0  0  0  0
    7.4539    1.7133   -1.3357 H   0  0  0  0  0  0  0  0  0  0  0  0
    5.4473    0.6341   -2.2879 H   0  0  0  0  0  0  0  0  0  0  0  0
    3.6898    0.5857    0.4120 H   0  0  0  0  0  0  0  0  0  0  0  0
    1.4637    1.4352    1.1670 H   0  0  0  0  0  0  0  0  0  0  0  0
   -2.1833    0.0256   -1.0064 H   0  0  0  0  0  0  0  0  0  0  0  0
   -2.1551   -1.2127    0.2983 H   0  0  0  0  0  0  0  0  0  0  0  0
   -3.0601    0.6831    1.8634 H   0  0  0  0  0  0  0  0  0  0  0  0
   -3.1136    1.7095    0.4233 H   0  0  0  0  0  0  0  0  0  0  0  0
   -4.6822    1.3276   -1.3280 H   0  0  0  0  0  0  0  0  0  0  0  0
   -4.4231   -0.4390   -1.5708 H   0  0  0  0  0  0  0  0  0  0  0  0
   -6.5233   -1.0859   -0.9939 H   0  0  0  0  0  0  0  0  0  0  0  0
   -6.8608    0.5557   -1.7097 H   0  0  0  0  0  0  0  0  0  0  0  0
   -7.4196    1.4293    0.4164 H   0  0  0  0  0  0  0  0  0  0  0  0
   -7.4064   -0.2615    0.9822 H   0  0  0  0  0  0  0  0  0  0  0  0
   -5.5345    0.3263    2.2543 H   0  0  0  0  0  0  0  0  0  0  0  0
   -5.3249    1.9006    1.3428 H   0  0  0  0  0  0  0  0  0  0  0  0
   -0.4082   -1.6092   -1.1094 H   0  0  0  0  0  0  0  0  0  0  0  0
    1.8289   -2.4503   -1.8576 H   0  0  0  0  0  0  0  0  0  0  0  0
    5.3874   -2.1119    1.0362 H   0  0  0  0  0  0  0  0  0  0  0  0
    7.3454   -1.0318    1.9323 H   0  0  0  0  0  0  0  0  0  0  0  0
  1  2  2  0
  2  3  1  0
  3  4  2  0
  4  5  1  0
  5  6  1  0
  6  7  2  0
  7  8  1  0
  8  9  2  0
  9 10  1  0
 10 11  1  0
 11 12  1  0
 12 13  1  0
 13 14  1  0
 14 15  1  0
 15 16  1  0
 16 17  1  0
  9 18  1  0
 18 19  2  0
  4 20  1  0
 20 21  2  0
 21  1  1  0
 19  6  1  0
 17 13  1  0
  1 22  1  0
  2 23  1  0
  3 24  1  0
  7 25  1  0
  8 26  1  0
 11 27  1  0
 11 28  1  0
 12 29  1  0
 12 30  1  0
 14 31  1  0
 14 32  1  0
 15 33  1  0
 15 34  1  0
 16 35  1  0
 16 36  1  0
 17 37  1  0
 17 38  1  0
 18 39  1  0
 19 40  1  0
 20 41  1  0
 21 42  1  0
M  END
$$$$
