@<TRIPOS>MOLECULE
*****
 51 53 0 0 0
SMALL
GASTEIGER

@<TRIPOS>ATOM
      1 C          -4.3683    3.2813    1.6629 C.3     1  UNL1       -0.0380
      2 C          -3.8433    2.3084    0.6703 C.ar    1  UNL1       -0.0293
      3 C          -3.1183    2.7295   -0.4036 C.ar    1  UNL1       -0.0539
      4 C          -2.6317    1.8024   -1.3280 C.ar    1  UNL1       -0.0213
      5 C          -2.9290    0.4815   -1.0808 C.ar    1  UNL1        0.1232
      6 N          -2.4374   -0.4776   -2.0135 N.pl3   1  UNL1       -0.2975
      7 C          -1.1800   -1.0619   -1.7957 C.ar    1  UNL1        0.0683
      8 C          -0.4609   -0.6730   -0.6549 C.ar    1  UNL1        0.0034
      9 C           0.7723   -1.1764   -0.3422 C.ar    1  UNL1        0.1433
     10 N           1.4725   -0.7640    0.8359 N.pl3   1  UNL1       -0.3233
     11 C           2.7556   -1.2053    1.2526 C.3     1  UNL1        0.0371
     12 C           3.0463   -0.5994    2.6225 C.3     1  UNL1       -0.0331
     13 C           4.1388    0.4448    2.5653 C.3     1  UNL1       -0.0513
     14 C           3.7674    1.4011    1.4355 C.3     1  UNL1       -0.0515
     15 C           4.0284    0.6496    0.1490 C.3     1  UNL1       -0.0360
     16 C           3.8943   -0.8376    0.3282 C.3     1  UNL1        0.0234
     17 N           3.8275   -1.4525   -0.9451 N.3     1  UNL1       -0.3257
     18 N           1.2483   -2.0796   -1.2174 N.ar    1  UNL1       -0.1336
     19 N           0.6240   -2.4673   -2.2783 N.ar    1  UNL1       -0.1409
     20 C          -0.6070   -1.9893   -2.6250 C.ar    1  UNL1        0.1685
     21 C          -1.2419   -2.4670   -3.8239 C.2     1  UNL1        0.2635
     22 N          -0.5195   -3.4522   -4.6003 N.am    1  UNL1       -0.3240
     23 O          -2.3551   -2.0678   -4.1943 O.2     1  UNL1       -0.2686
     24 N          -3.6381    0.0664   -0.0311 N.ar    1  UNL1       -0.2368
     25 C          -4.0976    0.9845    0.8491 C.ar    1  UNL1        0.0432
     26 C          -4.8892    0.5523    2.0295 C.3     1  UNL1       -0.0220
     27 H          -4.2896    2.9004    2.7045 H       1  UNL1        0.0278
     28 H          -3.8124    4.2486    1.6214 H       1  UNL1        0.0278
     29 H          -5.4416    3.5206    1.5047 H       1  UNL1        0.0278
     30 H          -2.9123    3.7638   -0.5553 H       1  UNL1        0.0622
     31 H          -2.0580    2.0976   -2.1842 H       1  UNL1        0.0652
     32 H          -3.0477   -0.6845   -2.8014 H       1  UNL1        0.1536
     33 H          -0.8898    0.0611    0.0216 H       1  UNL1        0.0672
     34 H           0.9613   -0.0541    1.4452 H       1  UNL1        0.1478
     35 H           2.7606   -2.2936    1.3802 H       1  UNL1        0.0513
     36 H           3.3087   -1.3611    3.3720 H       1  UNL1        0.0284
     37 H           2.1374   -0.0623    3.0175 H       1  UNL1        0.0284
     38 H           5.1423    0.0271    2.4345 H       1  UNL1        0.0266
     39 H           4.0811    1.0462    3.4942 H       1  UNL1        0.0266
     40 H           2.6951    1.6285    1.4834 H       1  UNL1        0.0266
     41 H           4.3948    2.3093    1.4503 H       1  UNL1        0.0266
     42 H           3.3515    0.9992   -0.6479 H       1  UNL1        0.0281
     43 H           5.0666    0.8565   -0.1816 H       1  UNL1        0.0281
     44 H           4.8282   -1.2040    0.8408 H       1  UNL1        0.0476
     45 H           4.0180   -2.4581   -0.9758 H       1  UNL1        0.1185
     46 H           4.1813   -0.9012   -1.7327 H       1  UNL1        0.1185
     47 H          -0.4288   -4.4440   -4.2834 H       1  UNL1        0.1453
     48 H          -0.0833   -3.1641   -5.4902 H       1  UNL1        0.1453
     49 H          -5.2616   -0.4910    1.8502 H       1  UNL1        0.0293
     50 H          -4.2074    0.5359    2.9259 H       1  UNL1        0.0293
     51 H          -5.7524    1.1926    2.2396 H       1  UNL1        0.0293
@<TRIPOS>BOND
     1     1     2    1
     2     2     3   ar
     3     3     4   ar
     4     4     5   ar
     5     5     6    1
     6     6     7    1
     7     7     8   ar
     8     8     9   ar
     9     9    10    1
    10    10    11    1
    11    11    12    1
    12    12    13    1
    13    13    14    1
    14    14    15    1
    15    15    16    1
    16    16    17    1
    17     9    18   ar
    18    18    19   ar
    19    19    20   ar
    20    20    21    1
    21    21    22   am
    22    21    23    2
    23     5    24   ar
    24    24    25   ar
    25    25    26    1
    26    25     2   ar
    27    20     7   ar
    28    16    11    1
    29     1    27    1
    30     1    28    1
    31     1    29    1
    32     3    30    1
    33     4    31    1
    34     6    32    1
    35     8    33    1
    36    10    34    1
    37    11    35    1
    38    12    36    1
    39    12    37    1
    40    13    38    1
    41    13    39    1
    42    14    40    1
    43    14    41    1
    44    15    42    1
    45    15    43    1
    46    16    44    1
    47    17    45    1
    48    17    46    1
    49    22    47    1
    50    22    48    1
    51    26    49    1
    52    26    50    1
    53    26    51    1
