
     RDKit          3D

 51 53  0  0  0  0  0  0  0  0999 V2000
   -4.3683    3.2813    1.6629 C   0  0  0  0  0  0  0  0  0  0  0  0
   -3.8433    2.3084    0.6703 C   0  0  0  0  0  0  0  0  0  0  0  0
   -3.1183    2.7295   -0.4036 C   0  0  0  0  0  0  0  0  0  0  0  0
   -2.6317    1.8024   -1.3280 C   0  0  0  0  0  0  0  0  0  0  0  0
   -2.9290    0.4815   -1.0808 C   0  0  0  0  0  0  0  0  0  0  0  0
   -2.4374   -0.4776   -2.0135 N   0  0  0  0  0  0  0  0  0  0  0  0
   -1.1800   -1.0619   -1.7957 C   0  0  0  0  0  0  0  0  0  0  0  0
   -0.4609   -0.6730   -0.6549 C   0  0  0  0  0  0  0  0  0  0  0  0
    0.7723   -1.1764   -0.3422 C   0  0  0  0  0  0  0  0  0  0  0  0
    1.4725   -0.7640    0.8359 N   0  0  0  0  0  0  0  0  0  0  0  0
    2.7556   -1.2053    1.2526 C   0  0  2  0  0  0  0  0  0  0  0  0
    3.0463   -0.5994    2.6225 C   0  0  0  0  0  0  0  0  0  0  0  0
    4.1388    0.4448    2.5653 C   0  0  0  0  0  0  0  0  0  0  0  0
    3.7674    1.4011    1.4355 C   0  0  0  0  0  0  0  0  0  0  0  0
    4.0284    0.6496    0.1490 C   0  0  0  0  0  0  0  0  0  0  0  0
    3.8943   -0.8376    0.3282 C   0  0  2  0  0  0  0  0  0  0  0  0
    3.8275   -1.4525   -0.9451 N   0  0  0  0  0  0  0  0  0  0  0  0
    1.2483   -2.0796   -1.2174 N   0  0  0  0  0  0  0  0  0  0  0  0
    0.6240   -2.4673   -2.2783 N   0  0  0  0  0  0  0  0  0  0  0  0
   -0.6070   -1.9893   -2.6250 C   0  0  0  0  0  0  0  0  0  0  0  0
   -1.2419   -2.4670   -3.8239 C   0  0  0  0  0  0  0  0  0  0  0  0
   -0.5195   -3.4522   -4.6003 N   0  0  0  0  0  0  0  0  0  0  0  0
   -2.3551   -2.0678   -4.1943 O   0  0  0  0  0  0  0  0  0  0  0  0
   -3.6381    0.0664   -0.0311 N   0  0  0  0  0  0  0  0  0  0  0  0
   -4.0976    0.9845    0.8491 C   0  0  0  0  0  0  0  0  0  0  0  0
   -4.8892    0.5523    2.0295 C   0  0  0  0  0  0  0  0  0  0  0  0
   -4.2896    2.9004    2.7045 H   0  0  0  0  0  0  0  0  0  0  0  0
   -3.8124    4.2486    1.6214 H   0  0  0  0  0  0  0  0  0  0  0  0
   -5.4416    3.5206    1.5047 H   0  0  0  0  0  0  0  0  0  0  0  0
   -2.9123    3.7638   -0.5553 H   0  0  0  0  0  0  0  0  0  0  0  0
   -2.0580    2.0976   -2.1842 H   0  0  0  0  0  0  0  0  0  0  0  0
   -3.0477   -0.6845   -2.8014 H   0  0  0  0  0  0  0  0  0  0  0  0
   -0.8898    0.0611    0.0216 H   0  0  0  0  0  0  0  0  0  0  0  0
    0.9613   -0.0541    1.4452 H   0  0  0  0  0  0  0  0  0  0  0  0
    2.7606   -2.2936    1.3802 H   0  0  0  0  0  0  0  0  0  0  0  0
    3.3087   -1.3611    3.3720 H   0  0  0  0  0  0  0  0  0  0  0  0
    2.1374   -0.0623    3.0175 H   0  0  0  0  0  0  0  0  0  0  0  0
    5.1423    0.0271    2.4345 H   0  0  0  0  0  0  0  0  0  0  0  0
    4.0811    1.0462    3.4942 H   0  0  0  0  0  0  0  0  0  0  0  0
    2.6951    1.6285    1.4834 H   0  0  0  0  0  0  0  0  0  0  0  0
    4.3948    2.3093    1.4503 H   0  0  0  0  0  0  0  0  0  0  0  0
    3.3515    0.9992   -0.6479 H   0  0  0  0  0  0  0  0  0  0  0  0
    5.0666    0.8565   -0.1816 H   0  0  0  0  0  0  0  0  0  0  0  0
    4.8282   -1.2040    0.8408 H   0  0  0  0  0  0  0  0  0  0  0  0
    4.0180   -2.4581   -0.9758 H   0  0  0  0  0  0  0  0  0  0  0  0
    4.1813   -0.9012   -1.7327 H   0  0  0  0  0  0  0  0  0  0  0  0
   -0.4288   -4.4440   -4.2834 H   0  0  0  0  0  0  0  0  0  0  0  0
   -0.0833   -3.1641   -5.4902 H   0  0  0  0  0  0  0  0  0  0  0  0
   -5.2616   -0.4910    1.8502 H   0  0  0  0  0  0  0  0  0  0  0  0
   -4.2074    0.5359    2.9259 H   0  0  0  0  0  0  0  0  0  0  0  0
   -5.7524    1.1926    2.2396 H   0  0  0  0  0  0  0  0  0  0  0  0
  1  2  1  0
  2  3  2  0
  3  4  1  0
  4  5  2  0
  5  6  1  0
  6  7  1  0
  7  8  2  0
  8  9  1  0
  9 10  1  0
 10 11  1  0
 11 12  1  0
 12 13  1  0
 13 14  1  0
 14 15  1  0
 15 16  1  0
 16 17  1  0
  9 18  2  0
 18 19  1  0
 19 20  2  0
 20 21  1  0
 21 22  1  0
 21 23  2  0
  5 24  1  0
 24 25  2  0
 25 26  1  0
 25  2  1  0
 20  7  1  0
 16 11  1  0
  1 27  1  0
  1 28  1  0
  1 29  1  0
  3 30  1  0
  4 31  1  0
  6 32  1  0
  8 33  1  0
 10 34  1  0
 11 35  1  1
 12 36  1  0
 12 37  1  0
 13 38  1  0
 13 39  1  0
 14 40  1  0
 14 41  1  0
 15 42  1  0
 15 43  1  0
 16 44  1  1
 17 45  1  0
 17 46  1  0
 22 47  1  0
 22 48  1  0
 26 49  1  0
 26 50  1  0
 26 51  1  0
M  END
$$$$
