@<TRIPOS>MOLECULE
*****
 66 66 0 0 0
SMALL
GASTEIGER

@<TRIPOS>ATOM
      1 C          -6.3163    2.0459    2.8246 C.3     0  UNK0        0.0122
      2 C          -5.6714    1.0167    2.0026 C.2     0  UNK0        0.2105
      3 O          -6.2461   -0.0908    1.8312 O.2     0  UNK0       -0.2761
      4 N          -4.4008    1.2662    1.3993 N.am    1  PHE1       -0.3039
      5 CA         -3.7218    0.2975    0.5857 C.3     1  PHE1        0.1033
      6 CB         -3.6356    0.8415   -0.8192 C.3     1  PHE1       -0.0007
      7 CG         -5.0037    1.0685   -1.3151 C.ar    1  PHE1       -0.0451
      8 CD1        -5.6215    2.2739   -1.1210 C.ar    1  PHE1       -0.0585
      9 CE1        -6.9178    2.4981   -1.5886 C.ar    1  PHE1       -0.0615
     10 CZ         -7.5797    1.4849   -2.2553 C.ar    1  PHE1       -0.0617
     11 CE2        -6.9681    0.2760   -2.4534 C.ar    1  PHE1       -0.0615
     12 CD2        -5.6949    0.0814   -1.9844 C.ar    1  PHE1       -0.0585
     13 C          -2.3883   -0.0193    1.1564 C.2     1  PHE1        0.2343
     14 O          -2.0113    0.5603    2.2285 O.2     1  PHE1       -0.2738
     15 N          -1.4899   -0.9335    0.5867 N.am    2  VAL2       -0.3022
     16 CA         -0.1677   -1.2309    1.1747 C.3     2  VAL2        0.1017
     17 C           0.8920   -0.8905    0.2485 C.2     2  VAL2        0.2341
     18 O           0.5471   -0.4418   -0.8996 O.2     2  VAL2       -0.2738
     19 N           2.2709   -0.9926    0.4577 N.am    3  ARG3       -0.3044
     20 CA          3.2866   -0.6155   -0.5680 C.3     3  ARG3        0.0786
     21 C           4.0415   -1.8501   -0.8659 C.2     3  ARG3        0.1404
     22 O           3.8440   -2.8938   -0.2139 O.2     3  ARG3       -0.2991
     23 CB          4.0440    0.4860    0.0968 C.3     3  ARG3       -0.0249
     24 CG          5.1265    1.1937   -0.5771 C.3     3  ARG3       -0.0166
     25 CD          6.3399    0.4676   -1.0279 C.3     3  ARG3        0.1048
     26 NE          7.2301    1.5060   -1.6002 N.pl3   3  ARG3       -0.1138
     27 CZ          8.4784    1.4270   -1.3341 C.cat   3  ARG3        0.3765
     28 NH1         8.9503    0.3682   -0.5171 N.pl3   3  ARG3       -0.2893
     29 NH2         9.4097    2.3854   -1.8438 N.pl3   3  ARG3       -0.2893
     30 CB         -0.2501   -2.6572    1.6257 C.3     2  VAL2       -0.0197
     31 CG1         1.0041   -3.1840    2.2730 C.3     2  VAL2       -0.0605
     32 CG2        -0.7937   -3.5793    0.5766 C.3     2  VAL2       -0.0605
     33 H          -7.3578    1.7710    3.0342 H       0  UNK0        0.0322
     34 H          -6.3008    3.0328    2.2779 H       0  UNK0        0.0322
     35 H          -5.7133    2.2339    3.7518 H       0  UNK0        0.0322
     36 H          -3.9614    2.1858    1.5622 H       1  PHE1        0.1495
     37 HA         -4.3707   -0.6178    0.5460 H       1  PHE1        0.0598
     38 HB1        -3.1167    0.1221   -1.4987 H       1  PHE1        0.0336
     39 HB2        -3.0265    1.7686   -0.8444 H       1  PHE1        0.0336
     40 HD1        -5.1240    3.0792   -0.6030 H       1  PHE1        0.0620
     41 HE1        -7.3931    3.4525   -1.4286 H       1  PHE1        0.0618
     42 HZ         -8.5839    1.6896   -2.6057 H       1  PHE1        0.0618
     43 HE2        -7.4806   -0.5036   -2.9678 H       1  PHE1        0.0618
     44 HD2        -5.1750   -0.8574   -2.1191 H       1  PHE1        0.0620
     45 H          -1.7876   -1.4204   -0.2996 H       2  VAL2        0.1495
     46 HA         -0.0952   -0.5968    2.0757 H       2  VAL2        0.0597
     47 H           2.6227   -1.3342    1.3444 H       3  ARG3        0.1494
     48 HA          2.8145   -0.2576   -1.4789 H       3  ARG3        0.0574
     49 H           4.7785   -1.9479   -1.6266 H       3  ARG3        0.1046
     50 HB1         4.4348    0.0626    1.0872 H       3  ARG3        0.0288
     51 HB2         3.2455    1.2283    0.4356 H       3  ARG3        0.0288
     52 HG1         5.5136    1.9749    0.1694 H       3  ARG3        0.0298
     53 HG2         4.7224    1.8688   -1.3931 H       3  ARG3        0.0298
     54 HD1         6.1687   -0.2940   -1.8284 H       3  ARG3        0.0693
     55 HD2         6.8883   -0.0398   -0.2165 H       3  ARG3        0.0693
     56 HH11        9.3244   -0.5283   -0.9050 H       3  ARG3        0.2546
     57 HH12        8.9114    0.5166    0.5303 H       3  ARG3        0.2546
     58 HH21        9.9010    2.1603   -2.7172 H       3  ARG3        0.2546
     59 HH22        9.5977    3.2894   -1.3589 H       3  ARG3        0.2546
     60 HB         -1.0319   -2.6564    2.4468 H       2  VAL2        0.0318
     61 HG11        1.7578   -3.5453    1.5407 H       2  VAL2        0.0233
     62 HG12        1.4091   -2.4850    3.0331 H       2  VAL2        0.0233
     63 HG13        0.7816   -4.1139    2.8831 H       2  VAL2        0.0233
     64 HG21       -1.8731   -3.3398    0.4493 H       2  VAL2        0.0233
     65 HG22       -0.3256   -3.4515   -0.4142 H       2  VAL2        0.0233
     66 HG23       -0.7412   -4.6123    0.9524 H       2  VAL2        0.0233
@<TRIPOS>BOND
     1     1     2    1
     2     2     3    2
     3     2     4   am
     4     4     5    1
     5     5     6    1
     6     6     7    1
     7     7     8   ar
     8     8     9   ar
     9     9    10   ar
    10    10    11   ar
    11    11    12   ar
    12     5    13    1
    13    13    14    2
    14    13    15   am
    15    15    16    1
    16    16    17    1
    17    17    18    2
    18    17    19   am
    19    19    20    1
    20    20    21    1
    21    21    22    2
    22    20    23    1
    23    23    24    1
    24    24    25    1
    25    25    26    1
    26    26    27    2
    27    27    28    1
    28    27    29    1
    29    16    30    1
    30    30    31    1
    31    30    32    1
    32    12     7   ar
    33     1    33    1
    34     1    34    1
    35     1    35    1
    36     4    36    1
    37     5    37    1
    38     6    38    1
    39     6    39    1
    40     8    40    1
    41     9    41    1
    42    10    42    1
    43    11    43    1
    44    12    44    1
    45    15    45    1
    46    16    46    1
    47    19    47    1
    48    20    48    1
    49    21    49    1
    50    23    50    1
    51    23    51    1
    52    24    52    1
    53    24    53    1
    54    25    54    1
    55    25    55    1
    56    28    56    1
    57    28    57    1
    58    29    58    1
    59    29    59    1
    60    30    60    1
    61    31    61    1
    62    31    62    1
    63    31    63    1
    64    32    64    1
    65    32    65    1
    66    32    66    1
