@<TRIPOS>MOLECULE
*****
 75 78 0 0 0
SMALL
GASTEIGER

@<TRIPOS>ATOM
      1 C           8.5832    4.0896   -0.1133 C.3     1  UNL1        0.0790
      2 O           8.2610    2.9119    0.5914 O.3     1  UNL1       -0.4915
      3 C           7.4231    1.9572    0.0171 C.ar    1  UNL1        0.1615
      4 C           6.9149    2.1696   -1.2387 C.ar    1  UNL1       -0.0160
      5 C           6.0790    1.2368   -1.8303 C.ar    1  UNL1       -0.0548
      6 C           5.7879    0.1010   -1.1043 C.ar    1  UNL1       -0.0422
      7 C           4.9204   -0.9313   -1.6742 C.3     1  UNL1       -0.0119
      8 C           3.4599   -0.7400   -1.4600 C.3     1  UNL1        0.0158
      9 N           3.0410   -0.6769   -0.0806 N.pl3   1  UNL1       -0.3131
     10 C           1.6404   -0.5514    0.1458 C.ar    1  UNL1        0.2169
     11 N           1.0729    0.6589    0.0763 N.ar    1  UNL1       -0.2221
     12 C          -0.2488    0.8560    0.2760 C.ar    1  UNL1        0.0466
     13 C          -1.0984   -0.2156    0.5695 C.ar    1  UNL1        0.0945
     14 C          -2.5281    0.0171    0.7571 C.2     1  UNL1        0.2489
     15 O          -3.3578   -0.9013    0.9762 O.2     1  UNL1       -0.2700
     16 N          -3.1206    1.3282    0.7054 N.am    1  UNL1       -0.3112
     17 C          -4.5567    1.5294    0.8793 C.3     1  UNL1        0.0133
     18 C          -5.3602    0.8522   -0.1704 C.3     1  UNL1       -0.0215
     19 C          -6.8269    1.0302    0.0380 C.3     1  UNL1        0.0161
     20 N          -7.2844    2.3849    0.0430 N.am    1  UNL1       -0.3014
     21 C          -7.5081    3.2369    1.1837 C.3     1  UNL1        0.0151
     22 C          -7.9741    4.5593    0.6580 C.3     1  UNL1       -0.0289
     23 C          -8.4602    4.2663   -0.7273 C.3     1  UNL1        0.0256
     24 C          -7.6480    3.1066   -1.1246 C.2     1  UNL1        0.2156
     25 O          -7.3167    2.7857   -2.2869 O.2     1  UNL1       -0.2756
     26 C          -0.5044   -1.4435    0.6380 C.ar    1  UNL1        0.1362
     27 N          -1.2328   -2.6016    0.9479 N.pl3   1  UNL1       -0.3255
     28 C          -0.5556   -3.8985    0.9984 C.3     1  UNL1        0.0220
     29 C          -1.5536   -4.9557    1.3977 C.3     1  UNL1       -0.0345
     30 C          -0.9812   -6.2379    0.8077 C.3     1  UNL1       -0.0513
     31 C          -0.2864   -5.8080   -0.4715 C.3     1  UNL1       -0.0513
     32 C          -0.1625   -4.3177   -0.3953 C.3     1  UNL1       -0.0345
     33 N           0.8468   -1.5773    0.4239 N.ar    1  UNL1       -0.1990
     34 C           6.2964   -0.1212    0.1629 C.ar    1  UNL1       -0.0131
     35 C           7.1216    0.8001    0.7471 C.ar    1  UNL1        0.1617
     36 O           7.6735    0.6565    2.0124 O.3     1  UNL1       -0.4914
     37 C           7.3764   -0.5084    2.7623 C.3     1  UNL1        0.0790
     38 H           9.3753    4.6200    0.4571 H       1  UNL1        0.0660
     39 H           7.6957    4.7742   -0.0953 H       1  UNL1        0.0660
     40 H           8.9081    3.8482   -1.1304 H       1  UNL1        0.0660
     41 H           7.1505    3.0765   -1.8071 H       1  UNL1        0.0655
     42 H           5.7066    1.4440   -2.8100 H       1  UNL1        0.0621
     43 H           5.1349   -0.9621   -2.7799 H       1  UNL1        0.0328
     44 H           5.1818   -1.9591   -1.3191 H       1  UNL1        0.0328
     45 H           2.9494   -1.6011   -1.9807 H       1  UNL1        0.0465
     46 H           3.0505    0.1617   -1.9637 H       1  UNL1        0.0465
     47 H           3.7222   -0.7248    0.6818 H       1  UNL1        0.1489
     48 H          -0.6654    1.8438    0.2117 H       1  UNL1        0.0839
     49 H          -2.5009    2.1339    0.5440 H       1  UNL1        0.1490
     50 H          -4.7027    2.6429    0.7418 H       1  UNL1        0.0462
     51 H          -4.9303    1.2763    1.8669 H       1  UNL1        0.0462
     52 H          -5.0872    1.3130   -1.1578 H       1  UNL1        0.0295
     53 H          -5.1269   -0.2413   -0.2601 H       1  UNL1        0.0295
     54 H          -7.4173    0.4219   -0.7147 H       1  UNL1        0.0465
     55 H          -7.1337    0.5939    1.0369 H       1  UNL1        0.0465
     56 H          -8.3488    2.8204    1.8064 H       1  UNL1        0.0465
     57 H          -6.6128    3.3702    1.7999 H       1  UNL1        0.0465
     58 H          -7.1322    5.2825    0.6154 H       1  UNL1        0.0285
     59 H          -8.8222    4.9580    1.2732 H       1  UNL1        0.0285
     60 H          -9.5499    4.0437   -0.7132 H       1  UNL1        0.0359
     61 H          -8.3084    5.1453   -1.3970 H       1  UNL1        0.0359
     62 H          -2.2287   -2.5959    1.1490 H       1  UNL1        0.1478
     63 H           0.3024   -3.8719    1.7043 H       1  UNL1        0.0498
     64 H          -2.5085   -4.7447    0.9015 H       1  UNL1        0.0283
     65 H          -1.6480   -5.0374    2.5052 H       1  UNL1        0.0283
     66 H          -0.2955   -6.6951    1.5328 H       1  UNL1        0.0266
     67 H          -1.8388   -6.8916    0.5480 H       1  UNL1        0.0266
     68 H          -0.9301   -6.0364   -1.3476 H       1  UNL1        0.0266
     69 H           0.7203   -6.2446   -0.5338 H       1  UNL1        0.0266
     70 H          -0.8661   -3.7877   -1.0990 H       1  UNL1        0.0283
     71 H           0.8575   -3.9683   -0.6647 H       1  UNL1        0.0283
     72 H           6.0682   -1.0112    0.7192 H       1  UNL1        0.0658
     73 H           8.0805   -0.5836    3.6322 H       1  UNL1        0.0660
     74 H           7.4958   -1.4034    2.1111 H       1  UNL1        0.0660
     75 H           6.3220   -0.4584    3.0712 H       1  UNL1        0.0660
@<TRIPOS>BOND
     1     1     2    1
     2     2     3    1
     3     3     4   ar
     4     4     5   ar
     5     5     6   ar
     6     6     7    1
     7     7     8    1
     8     8     9    1
     9     9    10    1
    10    10    11   ar
    11    11    12   ar
    12    12    13   ar
    13    13    14    1
    14    14    15    2
    15    14    16   am
    16    16    17    1
    17    17    18    1
    18    18    19    1
    19    19    20    1
    20    20    21    1
    21    21    22    1
    22    22    23    1
    23    23    24    1
    24    24    25    2
    25    13    26   ar
    26    26    27    1
    27    27    28    1
    28    28    29    1
    29    29    30    1
    30    30    31    1
    31    31    32    1
    32    26    33   ar
    33     6    34   ar
    34    34    35   ar
    35    35    36    1
    36    36    37    1
    37    35     3   ar
    38    33    10   ar
    39    24    20   am
    40    32    28    1
    41     1    38    1
    42     1    39    1
    43     1    40    1
    44     4    41    1
    45     5    42    1
    46     7    43    1
    47     7    44    1
    48     8    45    1
    49     8    46    1
    50     9    47    1
    51    12    48    1
    52    16    49    1
    53    17    50    1
    54    17    51    1
    55    18    52    1
    56    18    53    1
    57    19    54    1
    58    19    55    1
    59    21    56    1
    60    21    57    1
    61    22    58    1
    62    22    59    1
    63    23    60    1
    64    23    61    1
    65    27    62    1
    66    28    63    1
    67    29    64    1
    68    29    65    1
    69    30    66    1
    70    30    67    1
    71    31    68    1
    72    31    69    1
    73    32    70    1
    74    32    71    1
    75    34    72    1
    76    37    73    1
    77    37    74    1
    78    37    75    1
