
     RDKit          3D

 75 78  0  0  0  0  0  0  0  0999 V2000
    8.5832    4.0896   -0.1133 C   0  0  0  0  0  0  0  0  0  0  0  0
    8.2610    2.9119    0.5914 O   0  0  0  0  0  0  0  0  0  0  0  0
    7.4231    1.9572    0.0171 C   0  0  0  0  0  0  0  0  0  0  0  0
    6.9149    2.1696   -1.2387 C   0  0  0  0  0  0  0  0  0  0  0  0
    6.0790    1.2368   -1.8303 C   0  0  0  0  0  0  0  0  0  0  0  0
    5.7879    0.1010   -1.1043 C   0  0  0  0  0  0  0  0  0  0  0  0
    4.9204   -0.9313   -1.6742 C   0  0  0  0  0  0  0  0  0  0  0  0
    3.4599   -0.7400   -1.4600 C   0  0  0  0  0  0  0  0  0  0  0  0
    3.0410   -0.6769   -0.0806 N   0  0  0  0  0  0  0  0  0  0  0  0
    1.6404   -0.5514    0.1458 C   0  0  0  0  0  0  0  0  0  0  0  0
    1.0729    0.6589    0.0763 N   0  0  0  0  0  0  0  0  0  0  0  0
   -0.2488    0.8560    0.2760 C   0  0  0  0  0  0  0  0  0  0  0  0
   -1.0984   -0.2156    0.5695 C   0  0  0  0  0  0  0  0  0  0  0  0
   -2.5281    0.0171    0.7571 C   0  0  0  0  0  0  0  0  0  0  0  0
   -3.3578   -0.9013    0.9762 O   0  0  0  0  0  0  0  0  0  0  0  0
   -3.1206    1.3282    0.7054 N   0  0  0  0  0  0  0  0  0  0  0  0
   -4.5567    1.5294    0.8793 C   0  0  0  0  0  0  0  0  0  0  0  0
   -5.3602    0.8522   -0.1704 C   0  0  0  0  0  0  0  0  0  0  0  0
   -6.8269    1.0302    0.0380 C   0  0  0  0  0  0  0  0  0  0  0  0
   -7.2844    2.3849    0.0430 N   0  0  0  0  0  0  0  0  0  0  0  0
   -7.5081    3.2369    1.1837 C   0  0  0  0  0  0  0  0  0  0  0  0
   -7.9741    4.5593    0.6580 C   0  0  0  0  0  0  0  0  0  0  0  0
   -8.4602    4.2663   -0.7273 C   0  0  0  0  0  0  0  0  0  0  0  0
   -7.6480    3.1066   -1.1246 C   0  0  0  0  0  0  0  0  0  0  0  0
   -7.3167    2.7857   -2.2869 O   0  0  0  0  0  0  0  0  0  0  0  0
   -0.5044   -1.4435    0.6380 C   0  0  0  0  0  0  0  0  0  0  0  0
   -1.2328   -2.6016    0.9479 N   0  0  0  0  0  0  0  0  0  0  0  0
   -0.5556   -3.8985    0.9984 C   0  0  0  0  0  0  0  0  0  0  0  0
   -1.5536   -4.9557    1.3977 C   0  0  0  0  0  0  0  0  0  0  0  0
   -0.9812   -6.2379    0.8077 C   0  0  0  0  0  0  0  0  0  0  0  0
   -0.2864   -5.8080   -0.4715 C   0  0  0  0  0  0  0  0  0  0  0  0
   -0.1625   -4.3177   -0.3953 C   0  0  0  0  0  0  0  0  0  0  0  0
    0.8468   -1.5773    0.4239 N   0  0  0  0  0  0  0  0  0  0  0  0
    6.2964   -0.1212    0.1629 C   0  0  0  0  0  0  0  0  0  0  0  0
    7.1216    0.8001    0.7471 C   0  0  0  0  0  0  0  0  0  0  0  0
    7.6735    0.6565    2.0124 O   0  0  0  0  0  0  0  0  0  0  0  0
    7.3764   -0.5084    2.7623 C   0  0  0  0  0  0  0  0  0  0  0  0
    9.3753    4.6200    0.4571 H   0  0  0  0  0  0  0  0  0  0  0  0
    7.6957    4.7742   -0.0953 H   0  0  0  0  0  0  0  0  0  0  0  0
    8.9081    3.8482   -1.1304 H   0  0  0  0  0  0  0  0  0  0  0  0
    7.1505    3.0765   -1.8071 H   0  0  0  0  0  0  0  0  0  0  0  0
    5.7066    1.4440   -2.8100 H   0  0  0  0  0  0  0  0  0  0  0  0
    5.1349   -0.9621   -2.7799 H   0  0  0  0  0  0  0  0  0  0  0  0
    5.1818   -1.9591   -1.3191 H   0  0  0  0  0  0  0  0  0  0  0  0
    2.9494   -1.6011   -1.9807 H   0  0  0  0  0  0  0  0  0  0  0  0
    3.0505    0.1617   -1.9637 H   0  0  0  0  0  0  0  0  0  0  0  0
    3.7222   -0.7248    0.6818 H   0  0  0  0  0  0  0  0  0  0  0  0
   -0.6654    1.8438    0.2117 H   0  0  0  0  0  0  0  0  0  0  0  0
   -2.5009    2.1339    0.5440 H   0  0  0  0  0  0  0  0  0  0  0  0
   -4.7027    2.6429    0.7418 H   0  0  0  0  0  0  0  0  0  0  0  0
   -4.9303    1.2763    1.8669 H   0  0  0  0  0  0  0  0  0  0  0  0
   -5.0872    1.3130   -1.1578 H   0  0  0  0  0  0  0  0  0  0  0  0
   -5.1269   -0.2413   -0.2601 H   0  0  0  0  0  0  0  0  0  0  0  0
   -7.4173    0.4219   -0.7147 H   0  0  0  0  0  0  0  0  0  0  0  0
   -7.1337    0.5939    1.0369 H   0  0  0  0  0  0  0  0  0  0  0  0
   -8.3488    2.8204    1.8064 H   0  0  0  0  0  0  0  0  0  0  0  0
   -6.6128    3.3702    1.7999 H   0  0  0  0  0  0  0  0  0  0  0  0
   -7.1322    5.2825    0.6154 H   0  0  0  0  0  0  0  0  0  0  0  0
   -8.8222    4.9580    1.2732 H   0  0  0  0  0  0  0  0  0  0  0  0
   -9.5499    4.0437   -0.7132 H   0  0  0  0  0  0  0  0  0  0  0  0
   -8.3084    5.1453   -1.3970 H   0  0  0  0  0  0  0  0  0  0  0  0
   -2.2287   -2.5959    1.1490 H   0  0  0  0  0  0  0  0  0  0  0  0
    0.3024   -3.8719    1.7043 H   0  0  0  0  0  0  0  0  0  0  0  0
   -2.5085   -4.7447    0.9015 H   0  0  0  0  0  0  0  0  0  0  0  0
   -1.6480   -5.0374    2.5052 H   0  0  0  0  0  0  0  0  0  0  0  0
   -0.2955   -6.6951    1.5328 H   0  0  0  0  0  0  0  0  0  0  0  0
   -1.8388   -6.8916    0.5480 H   0  0  0  0  0  0  0  0  0  0  0  0
   -0.9301   -6.0364   -1.3476 H   0  0  0  0  0  0  0  0  0  0  0  0
    0.7203   -6.2446   -0.5338 H   0  0  0  0  0  0  0  0  0  0  0  0
   -0.8661   -3.7877   -1.0990 H   0  0  0  0  0  0  0  0  0  0  0  0
    0.8575   -3.9683   -0.6647 H   0  0  0  0  0  0  0  0  0  0  0  0
    6.0682   -1.0112    0.7192 H   0  0  0  0  0  0  0  0  0  0  0  0
    8.0805   -0.5836    3.6322 H   0  0  0  0  0  0  0  0  0  0  0  0
    7.4958   -1.4034    2.1111 H   0  0  0  0  0  0  0  0  0  0  0  0
    6.3220   -0.4584    3.0712 H   0  0  0  0  0  0  0  0  0  0  0  0
  1  2  1  0
  2  3  1  0
  3  4  2  0
  4  5  1  0
  5  6  2  0
  6  7  1  0
  7  8  1  0
  8  9  1  0
  9 10  1  0
 10 11  2  0
 11 12  1  0
 12 13  2  0
 13 14  1  0
 14 15  2  0
 14 16  1  0
 16 17  1  0
 17 18  1  0
 18 19  1  0
 19 20  1  0
 20 21  1  0
 21 22  1  0
 22 23  1  0
 23 24  1  0
 24 25  2  0
 13 26  1  0
 26 27  1  0
 27 28  1  0
 28 29  1  0
 29 30  1  0
 30 31  1  0
 31 32  1  0
 26 33  2  0
  6 34  1  0
 34 35  2  0
 35 36  1  0
 36 37  1  0
 35  3  1  0
 33 10  1  0
 24 20  1  0
 32 28  1  0
  1 38  1  0
  1 39  1  0
  1 40  1  0
  4 41  1  0
  5 42  1  0
  7 43  1  0
  7 44  1  0
  8 45  1  0
  8 46  1  0
  9 47  1  0
 12 48  1  0
 16 49  1  0
 17 50  1  0
 17 51  1  0
 18 52  1  0
 18 53  1  0
 19 54  1  0
 19 55  1  0
 21 56  1  0
 21 57  1  0
 22 58  1  0
 22 59  1  0
 23 60  1  0
 23 61  1  0
 27 62  1  0
 28 63  1  0
 29 64  1  0
 29 65  1  0
 30 66  1  0
 30 67  1  0
 31 68  1  0
 31 69  1  0
 32 70  1  0
 32 71  1  0
 34 72  1  0
 37 73  1  0
 37 74  1  0
 37 75  1  0
M  END
$$$$
