
     RDKit          3D

 38 41  0  0  0  0  0  0  0  0999 V2000
   -1.6490    5.1567    1.3691 N   0  0  0  0  0  0  0  0  0  0  0  0
   -2.2643    4.0442    1.5309 C   0  0  0  0  0  0  0  0  0  0  0  0
   -2.9597    2.7362    1.7104 C   0  0  0  0  0  0  0  0  0  0  0  0
   -3.6377    2.4604    2.8623 C   0  0  0  0  0  0  0  0  0  0  0  0
   -3.4157    0.6248    3.0731 S   0  0  0  0  0  0  0  0  0  0  0  0
   -2.4403    0.4988    1.5828 C   0  0  0  0  0  0  0  0  0  0  0  0
   -1.6425   -0.7303    1.3032 N   0  0  0  0  0  0  0  0  0  0  0  0
   -0.3074   -0.6451    1.7514 C   0  0  0  0  0  0  0  0  0  0  0  0
   -0.0147    0.5094    2.2741 O   0  0  0  0  0  0  0  0  0  0  0  0
    0.7684   -1.6591    1.7095 C   0  0  0  0  0  0  0  0  0  0  0  0
    1.7795   -1.2515    0.7099 C   0  0  0  0  0  0  0  0  0  0  0  0
    2.7375   -0.3967    1.0588 C   0  0  0  0  0  0  0  0  0  0  0  0
    3.7047    0.1359    0.2059 C   0  0  0  0  0  0  0  0  0  0  0  0
    3.6647   -0.2504   -1.0946 C   0  0  0  0  0  0  0  0  0  0  0  0
    2.6993   -1.1402   -1.5472 C   0  0  0  0  0  0  0  0  0  0  0  0
    2.5557   -1.5298   -2.8069 N   0  0  0  0  0  0  0  0  0  0  0  0
    1.5458   -2.3729   -3.2804 C   0  0  0  0  0  0  0  0  0  0  0  0
    0.6407   -2.8271   -2.3354 C   0  0  0  0  0  0  0  0  0  0  0  0
    0.7144   -2.4870   -1.0215 C   0  0  0  0  0  0  0  0  0  0  0  0
    1.7143   -1.6685   -0.6375 C   0  0  0  0  0  0  0  0  0  0  0  0
   -2.3479    1.6774    1.0309 C   0  0  0  0  0  0  0  0  0  0  0  0
   -1.8350    1.7938   -0.3660 C   0  0  0  0  0  0  0  0  0  0  0  0
   -1.5928    2.9295   -1.0818 N   0  0  0  0  0  0  0  0  0  0  0  0
   -1.2364    2.5984   -2.3287 N   0  0  0  0  0  0  0  0  0  0  0  0
   -1.2510    1.1972   -2.4323 C   0  0  0  0  0  0  0  0  0  0  0  0
   -1.6080    0.7920   -1.2389 N   0  0  0  0  0  0  0  0  0  0  0  0
   -4.1969    3.0800    3.5407 H   0  0  0  0  0  0  0  0  0  0  0  0
   -2.0149   -1.5341    0.8713 H   0  0  0  0  0  0  0  0  0  0  0  0
    1.3438   -1.5362    2.7076 H   0  0  0  0  0  0  0  0  0  0  0  0
    0.4068   -2.6819    1.6501 H   0  0  0  0  0  0  0  0  0  0  0  0
    2.7821   -0.0587    2.0972 H   0  0  0  0  0  0  0  0  0  0  0  0
    4.4584    0.8514    0.4906 H   0  0  0  0  0  0  0  0  0  0  0  0
    4.3959    0.1321   -1.8245 H   0  0  0  0  0  0  0  0  0  0  0  0
    1.4421   -2.6289   -4.3000 H   0  0  0  0  0  0  0  0  0  0  0  0
   -0.2091   -3.4718   -2.6388 H   0  0  0  0  0  0  0  0  0  0  0  0
   -0.0146   -2.8291   -0.2572 H   0  0  0  0  0  0  0  0  0  0  0  0
   -1.0028    0.7294   -3.3448 H   0  0  0  0  0  0  0  0  0  0  0  0
   -1.7133   -0.2484   -0.9932 H   0  0  0  0  0  0  0  0  0  0  0  0
  1  2  3  0
  2  3  1  0
  3  4  2  0
  4  5  1  0
  5  6  1  0
  6  7  1  0
  7  8  1  0
  8  9  2  0
  8 10  1  0
 10 11  1  0
 11 12  2  0
 12 13  1  0
 13 14  2  0
 14 15  1  0
 15 16  2  0
 16 17  1  0
 17 18  2  0
 18 19  1  0
 19 20  2  0
  6 21  2  0
 21 22  1  0
 22 23  2  0
 23 24  1  0
 24 25  2  0
 25 26  1  0
 21  3  1  0
 26 22  1  0
 20 11  1  0
 20 15  1  0
  4 27  1  0
  7 28  1  0
 10 29  1  0
 10 30  1  0
 12 31  1  0
 13 32  1  0
 14 33  1  0
 17 34  1  0
 18 35  1  0
 19 36  1  0
 25 37  1  0
 26 38  1  0
M  END
$$$$
