@<TRIPOS>MOLECULE
*****
 38 41 0 0 0
SMALL
GASTEIGER

@<TRIPOS>ATOM
      1 N          -1.6490    5.1567    1.3691 N.1     1  UNL1       -0.1908
      2 C          -2.2643    4.0442    1.5309 C.1     1  UNL1        0.1005
      3 C          -2.9597    2.7362    1.7104 C.ar    1  UNL1        0.0713
      4 C          -3.6377    2.4604    2.8623 C.ar    1  UNL1       -0.0044
      5 S          -3.4157    0.6248    3.0731 S.2     1  UNL1       -0.0799
      6 C          -2.4403    0.4988    1.5828 C.ar    1  UNL1        0.0837
      7 N          -1.6425   -0.7303    1.3032 N.am    1  UNL1       -0.2791
      8 C          -0.3074   -0.6451    1.7514 C.2     1  UNL1        0.2219
      9 O          -0.0147    0.5094    2.2741 O.2     1  UNL1       -0.2751
     10 C           0.7684   -1.6591    1.7095 C.3     1  UNL1        0.0500
     11 C           1.7795   -1.2515    0.7099 C.ar    1  UNL1       -0.0295
     12 C           2.7375   -0.3967    1.0588 C.ar    1  UNL1       -0.0574
     13 C           3.7047    0.1359    0.2059 C.ar    1  UNL1       -0.0594
     14 C           3.6647   -0.2504   -1.0946 C.ar    1  UNL1       -0.0357
     15 C           2.6993   -1.1402   -1.5472 C.ar    1  UNL1        0.0712
     16 N           2.5557   -1.5298   -2.8069 N.ar    1  UNL1       -0.2550
     17 C           1.5458   -2.3729   -3.2804 C.ar    1  UNL1        0.0283
     18 C           0.6407   -2.8271   -2.3354 C.ar    1  UNL1       -0.0430
     19 C           0.7144   -2.4870   -1.0215 C.ar    1  UNL1       -0.0509
     20 C           1.7143   -1.6685   -0.6375 C.ar    1  UNL1        0.0040
     21 C          -2.3479    1.6774    1.0309 C.ar    1  UNL1        0.0648
     22 C          -1.8350    1.7938   -0.3660 C.ar    1  UNL1        0.1650
     23 N          -1.5928    2.9295   -1.0818 N.ar    1  UNL1       -0.1295
     24 N          -1.2364    2.5984   -2.3287 N.ar    1  UNL1       -0.1377
     25 C          -1.2510    1.1972   -2.4323 C.ar    1  UNL1        0.1175
     26 N          -1.6080    0.7920   -1.2389 N.ar    1  UNL1       -0.3276
     27 H          -4.1969    3.0800    3.5407 H       1  UNL1        0.0707
     28 H          -2.0149   -1.5341    0.8713 H       1  UNL1        0.1553
     29 H           1.3438   -1.5362    2.7076 H       1  UNL1        0.0407
     30 H           0.4068   -2.6819    1.6501 H       1  UNL1        0.0407
     31 H           2.7821   -0.0587    2.0972 H       1  UNL1        0.0621
     32 H           4.4584    0.8514    0.4906 H       1  UNL1        0.0618
     33 H           4.3959    0.1321   -1.8245 H       1  UNL1        0.0639
     34 H           1.4421   -2.6289   -4.3000 H       1  UNL1        0.0830
     35 H          -0.2091   -3.4718   -2.6388 H       1  UNL1        0.0633
     36 H          -0.0146   -2.8291   -0.2572 H       1  UNL1        0.0625
     37 H          -1.0028    0.7294   -3.3448 H       1  UNL1        0.1046
     38 H          -1.7133   -0.2484   -0.9932 H       1  UNL1        0.1683
@<TRIPOS>BOND
     1     1     2    3
     2     2     3    1
     3     3     4   ar
     4     4     5   ar
     5     5     6   ar
     6     6     7    1
     7     7     8   am
     8     8     9    2
     9     8    10    1
    10    10    11    1
    11    11    12   ar
    12    12    13   ar
    13    13    14   ar
    14    14    15   ar
    15    15    16   ar
    16    16    17   ar
    17    17    18   ar
    18    18    19   ar
    19    19    20   ar
    20     6    21   ar
    21    21    22    1
    22    22    23   ar
    23    23    24   ar
    24    24    25   ar
    25    25    26   ar
    26    21     3   ar
    27    26    22   ar
    28    20    11   ar
    29    20    15   ar
    30     4    27    1
    31     7    28    1
    32    10    29    1
    33    10    30    1
    34    12    31    1
    35    13    32    1
    36    14    33    1
    37    17    34    1
    38    18    35    1
    39    19    36    1
    40    25    37    1
    41    26    38    1
