@<TRIPOS>MOLECULE
*****
 56 58 0 0 0
SMALL
GASTEIGER

@<TRIPOS>ATOM
      1 C           2.9877    1.6469    1.4557 C.3     1  UNL1        0.1073
      2 O           3.4690    2.9287    1.1709 O.3     1  UNL1       -0.3868
      3 C           4.0262    0.6713    1.0865 C.3     1  UNL1        0.0875
      4 O           4.5034    0.6884   -0.1946 O.3     1  UNL1       -0.2841
      5 P           5.6849   -0.4596   -0.5230 P.3     1  UNL1        0.4724
      6 O           6.7681    0.2070   -1.6372 O.3     1  UNL1       -0.3026
      7 O           4.9769   -1.8547   -1.1580 O.3     1  UNL1       -0.3026
      8 O           6.4444   -0.7549    0.7471 O.2     1  UNL1       -0.2275
      9 C           1.5961    1.4893    0.9210 C.3     1  UNL1        0.1106
     10 O           0.8689    2.5114    1.5782 O.3     1  UNL1       -0.3865
     11 C           1.4365    1.4570   -0.5352 C.3     1  UNL1        0.1014
     12 O           2.1927    0.3727   -1.0993 O.3     1  UNL1       -0.3874
     13 C           0.0836    1.4931   -1.1437 C.3     1  UNL1        0.0541
     14 N          -0.8317    0.4512   -0.8484 N.ar    1  UNL1       -0.3124
     15 C          -1.8274    0.2401    0.0284 C.ar    1  UNL1        0.1185
     16 C          -2.5731   -0.9045    0.1964 C.ar    1  UNL1        0.2620
     17 C          -3.5348   -0.8034    1.1779 C.ar    1  UNL1        0.0175
     18 C          -3.8063    0.2892    1.9659 C.ar    1  UNL1       -0.0411
     19 C          -4.8686    0.3082    3.0057 C.3     1  UNL1       -0.0392
     20 C          -3.0273    1.4194    1.7526 C.ar    1  UNL1       -0.0452
     21 C          -3.2947    2.6252    2.5880 C.3     1  UNL1       -0.0394
     22 C          -2.0519    1.3706    0.7853 C.ar    1  UNL1       -0.0284
     23 N          -2.3855   -2.0399   -0.5536 N.ar    1  UNL1       -0.0331
     24 C          -1.4002   -1.8608   -1.4424 C.ar    1  UNL1        0.3410
     25 C          -1.1646   -2.9385   -2.2543 C.ar    1  UNL1        0.2971
     26 O          -1.7810   -4.1588   -2.2702 O.3     1  UNL1       -0.4877
     27 N          -0.2138   -2.8713   -3.1970 N.ar    1  UNL1       -0.1504
     28 C           0.5402   -1.7741   -3.3942 C.ar    1  UNL1        0.3729
     29 O           1.4372   -1.6814   -4.2674 O.2     1  UNL1       -0.2425
     30 N           0.3089   -0.7323   -2.6081 N.ar    1  UNL1       -0.1669
     31 C          -0.6061   -0.6572   -1.6276 C.ar    1  UNL1        0.2196
     32 S          -3.4238   -3.2993   -0.1815 S.3     1  UNL1        0.1361
     33 O          -3.0894   -3.6328    1.4965 O.co2   1  UNL1       -0.6704
     34 O          -4.8940   -2.9534   -0.1361 O.2     1  UNL1       -0.1232
     35 O          -3.1966   -4.6511   -0.7212 O.2     1  UNL1       -0.1232
     36 H           2.8670    1.6325    2.5963 H       1  UNL1        0.0643
     37 H           2.8798    3.5654    1.6241 H       1  UNL1        0.2100
     38 H           4.9227    0.8758    1.7506 H       1  UNL1        0.0592
     39 H           3.7688   -0.3858    1.3415 H       1  UNL1        0.0592
     40 H           7.6910    0.1346   -1.3267 H       1  UNL1        0.2220
     41 H           5.6662   -2.5542   -1.1655 H       1  UNL1        0.2220
     42 H           1.2004    0.5359    1.3801 H       1  UNL1        0.0646
     43 H           1.0502    2.3335    2.5538 H       1  UNL1        0.2100
     44 H           1.9933    2.3405   -0.9510 H       1  UNL1        0.0638
     45 H           2.0668   -0.4292   -0.5120 H       1  UNL1        0.2100
     46 H           0.2372    1.5718   -2.2593 H       1  UNL1        0.0519
     47 H          -0.3701    2.4693   -0.8642 H       1  UNL1        0.0519
     48 H          -4.1752   -1.6355    1.4161 H       1  UNL1        0.0687
     49 H          -5.7534    0.8762    2.6151 H       1  UNL1        0.0278
     50 H          -4.5217    0.7117    3.9661 H       1  UNL1        0.0278
     51 H          -5.2363   -0.7343    3.1369 H       1  UNL1        0.0278
     52 H          -4.3554    2.7179    2.8614 H       1  UNL1        0.0278
     53 H          -2.9977    3.5338    2.0030 H       1  UNL1        0.0278
     54 H          -2.7057    2.6415    3.5167 H       1  UNL1        0.0278
     55 H          -1.5313    2.3025    0.6881 H       1  UNL1        0.0643
     56 H          -2.0507   -4.6451   -3.1324 H       1  UNL1        0.2939
@<TRIPOS>UNITY_ATOM_ATTR
23 1
charge 1
33 1
charge -1
@<TRIPOS>BOND
     1     1     2    1
     2     1     3    1
     3     3     4    1
     4     4     5    1
     5     5     6    1
     6     5     7    1
     7     5     8    2
     8     1     9    1
     9     9    10    1
    10     9    11    1
    11    11    12    1
    12    11    13    1
    13    13    14    1
    14    14    15   ar
    15    15    16   ar
    16    16    17   ar
    17    17    18   ar
    18    18    19    1
    19    18    20   ar
    20    20    21    1
    21    20    22   ar
    22    16    23   ar
    23    23    24   ar
    24    24    25   ar
    25    25    26    1
    26    25    27   ar
    27    27    28   ar
    28    28    29    2
    29    28    30   ar
    30    30    31   ar
    31    23    32    1
    32    32    33    1
    33    32    34    2
    34    32    35    2
    35    31    14   ar
    36    22    15   ar
    37    31    24    1
    38     1    36    1
    39     2    37    1
    40     3    38    1
    41     3    39    1
    42     6    40    1
    43     7    41    1
    44     9    42    1
    45    10    43    1
    46    11    44    1
    47    12    45    1
    48    13    46    1
    49    13    47    1
    50    17    48    1
    51    19    49    1
    52    19    50    1
    53    19    51    1
    54    21    52    1
    55    21    53    1
    56    21    54    1
    57    22    55    1
    58    26    56    1
