
     RDKit          3D

 63 62  0  0  0  0  0  0  0  0999 V2000
    8.3268    0.0796    0.8644 C   0  0  0  0  0  0  0  0  0  0  0  0
    7.4786    0.8943   -0.0821 C   0  0  0  0  0  0  0  0  0  0  0  0
    6.3789    0.0662   -0.6872 C   0  0  0  0  0  0  0  0  0  0  0  0
    5.4470   -0.5079    0.3518 C   0  0  0  0  0  0  0  0  0  0  0  0
    4.7517    0.5244    1.1874 C   0  0  0  0  0  0  0  0  0  0  0  0
    3.9254    1.4303    0.3364 C   0  0  0  0  0  0  0  0  0  0  0  0
    2.8588    0.6707   -0.4347 C   0  0  0  0  0  0  0  0  0  0  0  0
    1.9493   -0.0231    0.5459 C   0  0  0  0  0  0  0  0  0  0  0  0
    0.9030   -0.7822   -0.2138 C   0  0  0  0  0  0  0  0  0  0  0  0
    0.0538    0.1026   -1.0823 C   0  0  0  0  0  0  0  0  0  0  0  0
   -0.9690   -0.7554   -1.7589 C   0  0  0  0  0  0  0  0  0  0  0  0
   -1.8949   -1.4043   -0.7822 C   0  0  0  0  0  0  0  0  0  0  0  0
   -2.8886   -0.2276    0.1895 P   0  0  0  0  0  4  0  0  0  0  0  0
   -3.2083    1.1872   -0.9043 C   0  0  0  0  0  0  0  0  0  0  0  0
   -2.0933    0.2776    1.7130 C   0  0  0  0  0  0  0  0  0  0  0  0
   -4.4220   -1.0856    0.5909 C   0  0  0  0  0  0  0  0  0  0  0  0
   -5.6813   -0.4296    0.1214 C   0  0  0  0  0  0  0  0  0  0  0  0
   -5.8923    1.1771    0.8654 P   0  0  0  0  0  0  0  0  0  0  0  0
   -6.0234    2.4432   -0.2614 O   0  0  0  0  0  0  0  0  0  0  0  0
   -4.6951    1.6019    1.9713 O   0  0  0  0  0  0  0  0  0  0  0  0
   -7.2007    1.1558    1.6696 O   0  0  0  0  0  0  0  0  0  0  0  0
   -7.0311   -1.5760    0.6225 P   0  0  0  0  0  0  0  0  0  0  0  0
   -6.4422   -3.1406    0.3380 O   0  0  0  0  0  0  0  0  0  0  0  0
   -8.4396   -1.2625   -0.2399 O   0  0  0  0  0  0  0  0  0  0  0  0
   -7.2135   -1.4311    2.1040 O   0  0  0  0  0  0  0  0  0  0  0  0
    9.2509    0.6803    1.0936 H   0  0  0  0  0  0  0  0  0  0  0  0
    8.5857   -0.8558    0.3668 H   0  0  0  0  0  0  0  0  0  0  0  0
    7.7840   -0.0606    1.8069 H   0  0  0  0  0  0  0  0  0  0  0  0
    8.0996    1.2628   -0.9511 H   0  0  0  0  0  0  0  0  0  0  0  0
    7.0184    1.7532    0.4369 H   0  0  0  0  0  0  0  0  0  0  0  0
    5.8213    0.6178   -1.4450 H   0  0  0  0  0  0  0  0  0  0  0  0
    6.8619   -0.8003   -1.1862 H   0  0  0  0  0  0  0  0  0  0  0  0
    4.7494   -1.1728   -0.1858 H   0  0  0  0  0  0  0  0  0  0  0  0
    5.9975   -1.1672    1.0541 H   0  0  0  0  0  0  0  0  0  0  0  0
    4.2141    0.0184    1.9877 H   0  0  0  0  0  0  0  0  0  0  0  0
    5.5400    1.1370    1.6903 H   0  0  0  0  0  0  0  0  0  0  0  0
    3.4361    2.1923    0.9401 H   0  0  0  0  0  0  0  0  0  0  0  0
    4.5489    1.9228   -0.4111 H   0  0  0  0  0  0  0  0  0  0  0  0
    3.2802   -0.0985   -1.1067 H   0  0  0  0  0  0  0  0  0  0  0  0
    2.2895    1.3798   -1.0888 H   0  0  0  0  0  0  0  0  0  0  0  0
    2.5666   -0.7669    1.1080 H   0  0  0  0  0  0  0  0  0  0  0  0
    1.4539    0.6964    1.2361 H   0  0  0  0  0  0  0  0  0  0  0  0
    0.3731   -1.4601    0.4501 H   0  0  0  0  0  0  0  0  0  0  0  0
    1.4424   -1.4647   -0.9519 H   0  0  0  0  0  0  0  0  0  0  0  0
   -0.3423    0.9761   -0.5709 H   0  0  0  0  0  0  0  0  0  0  0  0
    0.7182    0.4843   -1.9124 H   0  0  0  0  0  0  0  0  0  0  0  0
   -1.5503   -0.2503   -2.5476 H   0  0  0  0  0  0  0  0  0  0  0  0
   -0.3951   -1.6160   -2.2352 H   0  0  0  0  0  0  0  0  0  0  0  0
   -2.6333   -1.9885   -1.4108 H   0  0  0  0  0  0  0  0  0  0  0  0
   -1.4310   -2.1735   -0.1434 H   0  0  0  0  0  0  0  0  0  0  0  0
   -2.4230    1.3172   -1.6761 H   0  0  0  0  0  0  0  0  0  0  0  0
   -4.1242    0.9262   -1.4697 H   0  0  0  0  0  0  0  0  0  0  0  0
   -3.3208    2.1030   -0.3148 H   0  0  0  0  0  0  0  0  0  0  0  0
   -1.1005   -0.2308    1.7802 H   0  0  0  0  0  0  0  0  0  0  0  0
   -1.9834    1.3765    1.8396 H   0  0  0  0  0  0  0  0  0  0  0  0
   -2.6861   -0.1078    2.5840 H   0  0  0  0  0  0  0  0  0  0  0  0
   -4.5422   -1.1785    1.7170 H   0  0  0  0  0  0  0  0  0  0  0  0
   -4.4026   -2.1714    0.2673 H   0  0  0  0  0  0  0  0  0  0  0  0
   -5.7539   -0.4048   -0.9942 H   0  0  0  0  0  0  0  0  0  0  0  0
   -6.5281    2.1341   -1.0655 H   0  0  0  0  0  0  0  0  0  0  0  0
   -4.5502    2.5614    2.0332 H   0  0  0  0  0  0  0  0  0  0  0  0
   -6.0022   -3.2290   -0.5397 H   0  0  0  0  0  0  0  0  0  0  0  0
   -8.2403   -1.3278   -1.1934 H   0  0  0  0  0  0  0  0  0  0  0  0
  1  2  1  0
  2  3  1  0
  3  4  1  0
  4  5  1  0
  5  6  1  0
  6  7  1  0
  7  8  1  0
  8  9  1  0
  9 10  1  0
 10 11  1  0
 11 12  1  0
 12 13  1  0
 13 14  1  0
 13 15  1  0
 13 16  1  0
 16 17  1  0
 17 18  1  0
 18 19  1  0
 18 20  1  0
 18 21  2  0
 17 22  1  0
 22 23  1  0
 22 24  1  0
 22 25  2  0
  1 26  1  0
  1 27  1  0
  1 28  1  0
  2 29  1  0
  2 30  1  0
  3 31  1  0
  3 32  1  0
  4 33  1  0
  4 34  1  0
  5 35  1  0
  5 36  1  0
  6 37  1  0
  6 38  1  0
  7 39  1  0
  7 40  1  0
  8 41  1  0
  8 42  1  0
  9 43  1  0
  9 44  1  0
 10 45  1  0
 10 46  1  0
 11 47  1  0
 11 48  1  0
 12 49  1  0
 12 50  1  0
 14 51  1  0
 14 52  1  0
 14 53  1  0
 15 54  1  0
 15 55  1  0
 15 56  1  0
 16 57  1  0
 16 58  1  0
 17 59  1  0
 19 60  1  0
 20 61  1  0
 23 62  1  0
 24 63  1  0
M  CHG  1  13   1
M  END
$$$$
