@<TRIPOS>MOLECULE
*****
 63 62 0 0 0
SMALL
GASTEIGER

@<TRIPOS>ATOM
      1 C           8.3268    0.0796    0.8644 C.3     1  UNL1       -0.0653
      2 C           7.4786    0.8943   -0.0821 C.3     1  UNL1       -0.0559
      3 C           6.3789    0.0662   -0.6872 C.3     1  UNL1       -0.0533
      4 C           5.4470   -0.5079    0.3518 C.3     1  UNL1       -0.0531
      5 C           4.7517    0.5244    1.1874 C.3     1  UNL1       -0.0531
      6 C           3.9254    1.4303    0.3364 C.3     1  UNL1       -0.0531
      7 C           2.8588    0.6707   -0.4347 C.3     1  UNL1       -0.0531
      8 C           1.9493   -0.0231    0.5459 C.3     1  UNL1       -0.0531
      9 C           0.9030   -0.7822   -0.2138 C.3     1  UNL1       -0.0529
     10 C           0.0538    0.1026   -1.0823 C.3     1  UNL1       -0.0498
     11 C          -0.9690   -0.7554   -1.7589 C.3     1  UNL1       -0.0189
     12 C          -1.8949   -1.4043   -0.7822 C.3     1  UNL1        0.0606
     13 P          -2.8886   -0.2276    0.1895 P.3     1  UNL1        0.0113
     14 C          -3.2083    1.1872   -0.9043 C.3     1  UNL1        0.0502
     15 C          -2.0933    0.2776    1.7130 C.3     1  UNL1        0.0502
     16 C          -4.4220   -1.0856    0.5909 C.3     1  UNL1        0.0855
     17 C          -5.6813   -0.4296    0.1214 C.3     1  UNL1        0.1945
     18 P          -5.8923    1.1771    0.8654 P.3     1  UNL1        0.3460
     19 O          -6.0234    2.4432   -0.2614 O.3     1  UNL1       -0.3234
     20 O          -4.6951    1.6019    1.9713 O.3     1  UNL1       -0.3234
     21 O          -7.2007    1.1558    1.6696 O.2     1  UNL1       -0.2578
     22 P          -7.0311   -1.5760    0.6225 P.3     1  UNL1        0.3460
     23 O          -6.4422   -3.1406    0.3380 O.3     1  UNL1       -0.3234
     24 O          -8.4396   -1.2625   -0.2399 O.3     1  UNL1       -0.3234
     25 O          -7.2135   -1.4311    2.1040 O.2     1  UNL1       -0.2578
     26 H           9.2509    0.6803    1.0936 H       1  UNL1        0.0230
     27 H           8.5857   -0.8558    0.3668 H       1  UNL1        0.0230
     28 H           7.7840   -0.0606    1.8069 H       1  UNL1        0.0230
     29 H           8.0996    1.2628   -0.9511 H       1  UNL1        0.0263
     30 H           7.0184    1.7532    0.4369 H       1  UNL1        0.0263
     31 H           5.8213    0.6178   -1.4450 H       1  UNL1        0.0265
     32 H           6.8619   -0.8003   -1.1862 H       1  UNL1        0.0265
     33 H           4.7494   -1.1728   -0.1858 H       1  UNL1        0.0265
     34 H           5.9975   -1.1672    1.0541 H       1  UNL1        0.0265
     35 H           4.2141    0.0184    1.9877 H       1  UNL1        0.0265
     36 H           5.5400    1.1370    1.6903 H       1  UNL1        0.0265
     37 H           3.4361    2.1923    0.9401 H       1  UNL1        0.0265
     38 H           4.5489    1.9228   -0.4111 H       1  UNL1        0.0265
     39 H           3.2802   -0.0985   -1.1067 H       1  UNL1        0.0265
     40 H           2.2895    1.3798   -1.0888 H       1  UNL1        0.0265
     41 H           2.5666   -0.7669    1.1080 H       1  UNL1        0.0265
     42 H           1.4539    0.6964    1.2361 H       1  UNL1        0.0265
     43 H           0.3731   -1.4601    0.4501 H       1  UNL1        0.0265
     44 H           1.4424   -1.4647   -0.9519 H       1  UNL1        0.0265
     45 H          -0.3423    0.9761   -0.5709 H       1  UNL1        0.0266
     46 H           0.7182    0.4843   -1.9124 H       1  UNL1        0.0266
     47 H          -1.5503   -0.2503   -2.5476 H       1  UNL1        0.0300
     48 H          -0.3951   -1.6160   -2.2352 H       1  UNL1        0.0300
     49 H          -2.6333   -1.9885   -1.4108 H       1  UNL1        0.0701
     50 H          -1.4310   -2.1735   -0.1434 H       1  UNL1        0.0701
     51 H          -2.4230    1.3172   -1.6761 H       1  UNL1        0.0665
     52 H          -4.1242    0.9262   -1.4697 H       1  UNL1        0.0665
     53 H          -3.3208    2.1030   -0.3148 H       1  UNL1        0.0665
     54 H          -1.1005   -0.2308    1.7802 H       1  UNL1        0.0665
     55 H          -1.9834    1.3765    1.8396 H       1  UNL1        0.0665
     56 H          -2.6861   -0.1078    2.5840 H       1  UNL1        0.0665
     57 H          -4.5422   -1.1785    1.7170 H       1  UNL1        0.0716
     58 H          -4.4026   -2.1714    0.2673 H       1  UNL1        0.0716
     59 H          -5.7539   -0.4048   -0.9942 H       1  UNL1        0.0586
     60 H          -6.5281    2.1341   -1.0655 H       1  UNL1        0.2198
     61 H          -4.5502    2.5614    2.0332 H       1  UNL1        0.2198
     62 H          -6.0022   -3.2290   -0.5397 H       1  UNL1        0.2198
     63 H          -8.2403   -1.3278   -1.1934 H       1  UNL1        0.2198
@<TRIPOS>UNITY_ATOM_ATTR
13 1
charge 1
@<TRIPOS>BOND
     1     1     2    1
     2     2     3    1
     3     3     4    1
     4     4     5    1
     5     5     6    1
     6     6     7    1
     7     7     8    1
     8     8     9    1
     9     9    10    1
    10    10    11    1
    11    11    12    1
    12    12    13    1
    13    13    14    1
    14    13    15    1
    15    13    16    1
    16    16    17    1
    17    17    18    1
    18    18    19    1
    19    18    20    1
    20    18    21    2
    21    17    22    1
    22    22    23    1
    23    22    24    1
    24    22    25    2
    25     1    26    1
    26     1    27    1
    27     1    28    1
    28     2    29    1
    29     2    30    1
    30     3    31    1
    31     3    32    1
    32     4    33    1
    33     4    34    1
    34     5    35    1
    35     5    36    1
    36     6    37    1
    37     6    38    1
    38     7    39    1
    39     7    40    1
    40     8    41    1
    41     8    42    1
    42     9    43    1
    43     9    44    1
    44    10    45    1
    45    10    46    1
    46    11    47    1
    47    11    48    1
    48    12    49    1
    49    12    50    1
    50    14    51    1
    51    14    52    1
    52    14    53    1
    53    15    54    1
    54    15    55    1
    55    15    56    1
    56    16    57    1
    57    16    58    1
    58    17    59    1
    59    19    60    1
    60    20    61    1
    61    23    62    1
    62    24    63    1
