
     RDKit          3D

 28 29  0  0  0  0  0  0  0  0999 V2000
   -1.0118   -0.4699    0.9754 C   0  0  1  0  0  0  0  0  0  0  0  0
   -2.0092   -0.7016   -0.1507 C   0  0  0  0  0  0  0  0  0  0  0  0
   -1.0733   -0.4281   -1.3186 C   0  0  0  0  0  0  0  0  0  0  0  0
   -0.1810    0.6560   -0.7714 C   0  0  2  0  0  0  0  0  0  0  0  0
    1.2398    0.1467   -0.6304 C   0  0  2  0  0  0  0  0  0  0  0  0
    1.2172   -1.2117    0.0044 C   0  0  1  0  0  0  0  0  0  0  0  0
    2.4398   -1.3461    0.6950 O   0  0  0  0  0  0  0  0  0  0  0  0
    0.0981   -1.4531    0.9565 C   0  0  0  0  0  0  0  0  0  0  0  0
    1.9165    1.0502    0.3512 C   0  0  0  0  0  0  0  0  0  0  0  0
    3.2356    0.9357    0.7678 O   0  0  0  0  0  0  0  0  0  0  0  0
    1.3591    2.0408    0.9270 O   0  0  0  0  0  0  0  0  0  0  0  0
   -0.5910    0.8880    0.6221 N   0  0  0  0  0  0  0  0  0  0  0  0
   -1.6768    1.7978    0.7289 C   0  0  0  0  0  0  0  0  0  0  0  0
   -1.5126   -0.4235    1.9417 H   0  0  0  0  0  0  0  0  0  0  0  0
   -2.4105   -1.7142   -0.1608 H   0  0  0  0  0  0  0  0  0  0  0  0
   -2.7691    0.1007   -0.0746 H   0  0  0  0  0  0  0  0  0  0  0  0
   -0.5602   -1.3864   -1.5120 H   0  0  0  0  0  0  0  0  0  0  0  0
   -1.6039   -0.1549   -2.2492 H   0  0  0  0  0  0  0  0  0  0  0  0
   -0.2397    1.6040   -1.3166 H   0  0  0  0  0  0  0  0  0  0  0  0
    1.7784    0.1190   -1.5952 H   0  0  0  0  0  0  0  0  0  0  0  0
    1.2690   -1.9605   -0.8148 H   0  0  0  0  0  0  0  0  0  0  0  0
    2.9768   -2.1053    0.3948 H   0  0  0  0  0  0  0  0  0  0  0  0
   -0.3406   -2.4630    0.7613 H   0  0  0  0  0  0  0  0  0  0  0  0
    0.4838   -1.5110    2.0172 H   0  0  0  0  0  0  0  0  0  0  0  0
    3.8050    1.7120    1.0817 H   0  0  0  0  0  0  0  0  0  0  0  0
   -2.0688    2.0740   -0.2633 H   0  0  0  0  0  0  0  0  0  0  0  0
   -2.4853    1.4533    1.4261 H   0  0  0  0  0  0  0  0  0  0  0  0
   -1.2850    2.7513    1.1843 H   0  0  0  0  0  0  0  0  0  0  0  0
  1  2  1  0
  2  3  1  0
  3  4  1  0
  4  5  1  0
  5  6  1  0
  6  7  1  0
  6  8  1  0
  5  9  1  0
  9 10  1  0
  9 11  2  0
  4 12  1  0
 12 13  1  0
  8  1  1  0
 12  1  1  0
  1 14  1  1
  2 15  1  0
  2 16  1  0
  3 17  1  0
  3 18  1  0
  4 19  1  6
  5 20  1  6
  6 21  1  6
  7 22  1  0
  8 23  1  0
  8 24  1  0
 10 25  1  0
 13 26  1  0
 13 27  1  0
 13 28  1  0
M  END
$$$$
