
     RDKit          3D

 39 41  0  0  0  0  0  0  0  0999 V2000
   -5.9601    2.1471    0.5977 C   0  0  0  0  0  0  0  0  0  0  0  0
   -5.4493    0.8108    0.1872 C   0  0  0  0  0  0  0  0  0  0  0  0
   -6.3139   -0.2235   -0.1460 C   0  0  0  0  0  0  0  0  0  0  0  0
   -5.8582   -1.4729   -0.5300 C   0  0  0  0  0  0  0  0  0  0  0  0
   -4.5023   -1.6561   -0.5704 C   0  0  0  0  0  0  0  0  0  0  0  0
   -3.6309   -0.6425   -0.2436 C   0  0  0  0  0  0  0  0  0  0  0  0
   -2.2391   -0.9124   -0.3106 N   0  0  0  0  0  0  0  0  0  0  0  0
   -1.3270    0.1509    0.0322 C   0  0  0  0  0  0  0  0  0  0  0  0
   -1.8089    1.2589    0.3718 O   0  0  0  0  0  0  0  0  0  0  0  0
    0.1007   -0.0927   -0.0262 C   0  0  0  0  0  0  0  0  0  0  0  0
    0.9512    0.9580    0.3118 C   0  0  0  0  0  0  0  0  0  0  0  0
    2.3036    0.6965    0.2469 C   0  0  0  0  0  0  0  0  0  0  0  0
    3.2223    1.6971    0.5701 O   0  0  0  0  0  0  0  0  0  0  0  0
    4.5734    1.4656    0.5146 C   0  0  0  0  0  0  0  0  0  0  0  0
    5.2622    1.7036   -0.6470 C   0  0  0  0  0  0  0  0  0  0  0  0
    6.6105    1.4742   -0.7076 N   0  0  0  0  0  0  0  0  0  0  0  0
    7.2420    1.0092    0.4023 C   0  0  0  0  0  0  0  0  0  0  0  0
    6.6010    0.7641    1.5587 N   0  0  0  0  0  0  0  0  0  0  0  0
    5.2525    0.9967    1.6093 C   0  0  0  0  0  0  0  0  0  0  0  0
    2.7597   -0.5596   -0.1392 C   0  0  0  0  0  0  0  0  0  0  0  0
    1.8781   -1.5770   -0.4672 C   0  0  0  0  0  0  0  0  0  0  0  0
    2.3629   -2.9231   -0.8809 C   0  0  0  0  0  0  0  0  0  0  0  0
    0.5728   -1.2886   -0.3933 N   0  0  0  0  0  0  0  0  0  0  0  0
   -4.1262    0.5486    0.1218 N   0  0  0  0  0  0  0  0  0  0  0  0
   -7.0158    1.9887    0.9391 H   0  0  0  0  0  0  0  0  0  0  0  0
   -5.3340    2.6239    1.3610 H   0  0  0  0  0  0  0  0  0  0  0  0
   -5.9692    2.8196   -0.2878 H   0  0  0  0  0  0  0  0  0  0  0  0
   -7.3922   -0.0816   -0.1150 H   0  0  0  0  0  0  0  0  0  0  0  0
   -6.5332   -2.2694   -0.7868 H   0  0  0  0  0  0  0  0  0  0  0  0
   -4.1501   -2.6508   -0.8763 H   0  0  0  0  0  0  0  0  0  0  0  0
   -1.8723   -1.8438   -0.5965 H   0  0  0  0  0  0  0  0  0  0  0  0
    0.5824    1.9302    0.6105 H   0  0  0  0  0  0  0  0  0  0  0  0
    4.8053    2.0738   -1.5577 H   0  0  0  0  0  0  0  0  0  0  0  0
    8.3147    0.8491    0.2828 H   0  0  0  0  0  0  0  0  0  0  0  0
    4.7679    0.7893    2.5541 H   0  0  0  0  0  0  0  0  0  0  0  0
    3.8116   -0.7610   -0.1891 H   0  0  0  0  0  0  0  0  0  0  0  0
    3.1446   -2.8347   -1.6869 H   0  0  0  0  0  0  0  0  0  0  0  0
    2.8678   -3.4579   -0.0439 H   0  0  0  0  0  0  0  0  0  0  0  0
    1.4955   -3.5082   -1.2393 H   0  0  0  0  0  0  0  0  0  0  0  0
  1  2  1  0
  2  3  2  0
  3  4  1  0
  4  5  2  0
  5  6  1  0
  6  7  1  0
  7  8  1  0
  8  9  2  0
  8 10  1  0
 10 11  2  0
 11 12  1  0
 12 13  1  0
 13 14  1  0
 14 15  2  0
 15 16  1  0
 16 17  2  0
 17 18  1  0
 18 19  2  0
 12 20  2  0
 20 21  1  0
 21 22  1  0
 21 23  2  0
  6 24  2  0
 24  2  1  0
 23 10  1  0
 19 14  1  0
  1 25  1  0
  1 26  1  0
  1 27  1  0
  3 28  1  0
  4 29  1  0
  5 30  1  0
  7 31  1  0
 11 32  1  0
 15 33  1  0
 17 34  1  0
 19 35  1  0
 20 36  1  0
 22 37  1  0
 22 38  1  0
 22 39  1  0
M  END
$$$$
