@<TRIPOS>MOLECULE
*****
 39 41 0 0 0
SMALL
GASTEIGER

@<TRIPOS>ATOM
      1 C          -5.9601    2.1471    0.5977 C.3     1  UNL1       -0.0223
      2 C          -5.4493    0.8108    0.1872 C.ar    1  UNL1        0.0403
      3 C          -6.3139   -0.2235   -0.1460 C.ar    1  UNL1       -0.0405
      4 C          -5.8582   -1.4729   -0.5300 C.ar    1  UNL1       -0.0568
      5 C          -4.5023   -1.6561   -0.5704 C.ar    1  UNL1       -0.0215
      6 C          -3.6309   -0.6425   -0.2436 C.ar    1  UNL1        0.1254
      7 N          -2.2391   -0.9124   -0.3106 N.am    1  UNL1       -0.2651
      8 C          -1.3270    0.1509    0.0322 C.2     1  UNL1        0.2678
      9 O          -1.8089    1.2589    0.3718 O.2     1  UNL1       -0.2681
     10 C           0.1007   -0.0927   -0.0262 C.ar    1  UNL1        0.1295
     11 C           0.9512    0.9580    0.3118 C.ar    1  UNL1        0.0112
     12 C           2.3036    0.6965    0.2469 C.ar    1  UNL1        0.1324
     13 O           3.2223    1.6971    0.5701 O.3     1  UNL1       -0.4529
     14 C           4.5734    1.4656    0.5146 C.ar    1  UNL1        0.1644
     15 C           5.2622    1.7036   -0.6470 C.ar    1  UNL1        0.0730
     16 N           6.6105    1.4742   -0.7076 N.ar    1  UNL1       -0.2401
     17 C           7.2420    1.0092    0.4023 C.ar    1  UNL1        0.1161
     18 N           6.6010    0.7641    1.5587 N.ar    1  UNL1       -0.2401
     19 C           5.2525    0.9967    1.6093 C.ar    1  UNL1        0.0730
     20 C           2.7597   -0.5596   -0.1392 C.ar    1  UNL1        0.0018
     21 C           1.8781   -1.5770   -0.4672 C.ar    1  UNL1        0.0426
     22 C           2.3629   -2.9231   -0.8809 C.3     1  UNL1       -0.0222
     23 N           0.5728   -1.2886   -0.3933 N.ar    1  UNL1       -0.2470
     24 N          -4.1262    0.5486    0.1218 N.ar    1  UNL1       -0.2370
     25 H          -7.0158    1.9887    0.9391 H       1  UNL1        0.0292
     26 H          -5.3340    2.6239    1.3610 H       1  UNL1        0.0292
     27 H          -5.9692    2.8196   -0.2878 H       1  UNL1        0.0292
     28 H          -7.3922   -0.0816   -0.1150 H       1  UNL1        0.0635
     29 H          -6.5332   -2.2694   -0.7868 H       1  UNL1        0.0619
     30 H          -4.1501   -2.6508   -0.8763 H       1  UNL1        0.0652
     31 H          -1.8723   -1.8438   -0.5965 H       1  UNL1        0.1566
     32 H           0.5824    1.9302    0.6105 H       1  UNL1        0.0677
     33 H           4.8053    2.0738   -1.5577 H       1  UNL1        0.0868
     34 H           8.3147    0.8491    0.2828 H       1  UNL1        0.1047
     35 H           4.7679    0.7893    2.5541 H       1  UNL1        0.0868
     36 H           3.8116   -0.7610   -0.1891 H       1  UNL1        0.0672
     37 H           3.1446   -2.8347   -1.6869 H       1  UNL1        0.0293
     38 H           2.8678   -3.4579   -0.0439 H       1  UNL1        0.0293
     39 H           1.4955   -3.5082   -1.2393 H       1  UNL1        0.0293
@<TRIPOS>BOND
     1     1     2    1
     2     2     3   ar
     3     3     4   ar
     4     4     5   ar
     5     5     6   ar
     6     6     7    1
     7     7     8   am
     8     8     9    2
     9     8    10    1
    10    10    11   ar
    11    11    12   ar
    12    12    13    1
    13    13    14    1
    14    14    15   ar
    15    15    16   ar
    16    16    17   ar
    17    17    18   ar
    18    18    19   ar
    19    12    20   ar
    20    20    21   ar
    21    21    22    1
    22    21    23   ar
    23     6    24   ar
    24    24     2   ar
    25    23    10   ar
    26    19    14   ar
    27     1    25    1
    28     1    26    1
    29     1    27    1
    30     3    28    1
    31     4    29    1
    32     5    30    1
    33     7    31    1
    34    11    32    1
    35    15    33    1
    36    17    34    1
    37    19    35    1
    38    20    36    1
    39    22    37    1
    40    22    38    1
    41    22    39    1
