
     RDKit          3D

 43 45  0  0  0  0  0  0  0  0999 V2000
    3.3640    0.1651    2.4369 C   0  0  0  0  0  0  0  0  0  0  0  0
    2.5863    0.1860    1.1340 C   0  0  0  0  0  0  0  0  0  0  0  0
    1.3026   -0.0708    0.9594 N   0  0  0  0  0  0  0  0  0  0  0  0
    0.6520   -0.0789    0.0439 C   0  0  0  0  0  0  0  0  0  0  0  0
   -0.6790   -0.2946   -0.4791 O   0  0  0  0  0  0  0  0  0  0  0  0
   -1.6946   -0.6510    0.4206 C   0  0  0  0  0  0  0  0  0  0  0  0
   -3.0117   -0.8317   -0.3190 C   0  0  0  0  0  0  0  0  0  0  0  0
   -4.0360   -1.2086    0.7070 C   0  0  0  0  0  0  0  0  0  0  0  0
   -5.3171   -1.4195    0.2809 O   0  0  0  0  0  0  0  0  0  0  0  0
   -6.1573   -0.4979   -0.2740 C   0  0  0  0  0  0  0  0  0  0  0  0
   -5.9085    0.8253   -0.4953 C   0  0  0  0  0  0  0  0  0  0  0  0
   -6.8442    1.6588   -1.0639 C   0  0  0  0  0  0  0  0  0  0  0  0
   -6.5744    2.9884   -1.2795 F   0  0  0  0  0  0  0  0  0  0  0  0
   -8.0726    1.1498   -1.4229 C   0  0  0  0  0  0  0  0  0  0  0  0
   -8.3521   -0.1858   -1.2096 C   0  0  0  0  0  0  0  0  0  0  0  0
   -7.4220   -0.9878   -0.6512 C   0  0  0  0  0  0  0  0  0  0  0  0
   -7.8742   -2.8323   -0.3827 Br  0  0  0  0  0  0  0  0  0  0  0  0
    1.8989    0.3955   -1.3107 S   0  0  0  0  0  0  0  0  0  0  0  0
    3.2433    0.5016   -0.0249 C   0  0  0  0  0  0  0  0  0  0  0  0
    4.6250    0.8537   -0.3495 C   0  0  0  0  0  0  0  0  0  0  0  0
    5.0428    1.9101   -1.0758 N   0  0  0  0  0  0  0  0  0  0  0  0
    6.3513    1.8471   -1.1212 N   0  0  0  0  0  0  0  0  0  0  0  0
    6.8053    0.7995   -0.4587 N   0  0  0  0  0  0  0  0  0  0  0  0
    8.2048    0.4557   -0.3245 C   0  0  0  0  0  0  0  0  0  0  0  0
    8.6595   -0.4292   -1.4148 C   0  0  0  0  0  0  0  0  0  0  0  0
    9.8408   -0.8188   -1.4472 O   0  0  0  0  0  0  0  0  0  0  0  0
    7.7661   -0.8156   -2.3890 O   0  0  0  0  0  0  0  0  0  0  0  0
    5.7422    0.1837    0.0191 N   0  0  0  0  0  0  0  0  0  0  0  0
    2.7053    0.2957    3.2911 H   0  0  0  0  0  0  0  0  0  0  0  0
    3.9111   -0.7920    2.5478 H   0  0  0  0  0  0  0  0  0  0  0  0
    4.1065    0.9805    2.4522 H   0  0  0  0  0  0  0  0  0  0  0  0
   -1.4377   -1.5391    1.0325 H   0  0  0  0  0  0  0  0  0  0  0  0
   -1.8049    0.1936    1.1507 H   0  0  0  0  0  0  0  0  0  0  0  0
   -3.2015    0.0431   -0.9133 H   0  0  0  0  0  0  0  0  0  0  0  0
   -2.8350   -1.6802   -1.0473 H   0  0  0  0  0  0  0  0  0  0  0  0
   -3.6834   -2.1362    1.2259 H   0  0  0  0  0  0  0  0  0  0  0  0
   -4.0710   -0.4294    1.5331 H   0  0  0  0  0  0  0  0  0  0  0  0
   -4.9677    1.2422   -0.2034 H   0  0  0  0  0  0  0  0  0  0  0  0
   -8.8113    1.8058   -1.8713 H   0  0  0  0  0  0  0  0  0  0  0  0
   -9.3388   -0.5209   -1.5153 H   0  0  0  0  0  0  0  0  0  0  0  0
    8.3578   -0.1143    0.6330 H   0  0  0  0  0  0  0  0  0  0  0  0
    8.8437    1.3634   -0.2156 H   0  0  0  0  0  0  0  0  0  0  0  0
    8.0856   -1.5100   -3.0680 H   0  0  0  0  0  0  0  0  0  0  0  0
  1  2  1  0
  2  3  1  0
  3  4  2  0
  4  5  1  0
  5  6  1  0
  6  7  1  0
  7  8  1  0
  8  9  1  0
  9 10  1  0
 10 11  2  0
 11 12  1  0
 12 13  1  0
 12 14  2  0
 14 15  1  0
 15 16  2  0
 16 17  1  0
  4 18  1  0
 18 19  1  0
 19 20  1  0
 20 21  1  0
 21 22  2  0
 22 23  1  0
 23 24  1  0
 24 25  1  0
 25 26  2  0
 25 27  1  0
 23 28  1  0
 19  2  2  0
 28 20  2  0
 16 10  1  0
  1 29  1  0
  1 30  1  0
  1 31  1  0
  6 32  1  0
  6 33  1  0
  7 34  1  0
  7 35  1  0
  8 36  1  0
  8 37  1  0
 11 38  1  0
 14 39  1  0
 15 40  1  0
 24 41  1  0
 24 42  1  0
 27 43  1  0
M  END
$$$$
