@<TRIPOS>MOLECULE
*****
 43 45 0 0 0
SMALL
GASTEIGER

@<TRIPOS>ATOM
      1 C           3.3640    0.1651    2.4369 C.3     1  UNL1       -0.0210
      2 C           2.5863    0.1860    1.1340 C.ar    1  UNL1        0.0601
      3 N           1.3026   -0.0708    0.9594 N.ar    1  UNL1       -0.2106
      4 C           0.6520   -0.0789    0.0439 C.ar    1  UNL1        0.2571
      5 O          -0.6790   -0.2946   -0.4791 O.3     1  UNL1       -0.4713
      6 C          -1.6946   -0.6510    0.4206 C.3     1  UNL1        0.0948
      7 C          -3.0117   -0.8317   -0.3190 C.3     1  UNL1        0.0157
      8 C          -4.0360   -1.2086    0.7070 C.3     1  UNL1        0.0927
      9 O          -5.3171   -1.4195    0.2809 O.3     1  UNL1       -0.4907
     10 C          -6.1573   -0.4979   -0.2740 C.ar    1  UNL1        0.1371
     11 C          -5.9085    0.8253   -0.4953 C.ar    1  UNL1        0.0164
     12 C          -6.8442    1.6588   -1.0639 C.ar    1  UNL1        0.1269
     13 F          -6.5744    2.9884   -1.2795 F       1  UNL1       -0.2054
     14 C          -8.0726    1.1498   -1.4229 C.ar    1  UNL1       -0.0252
     15 C          -8.3521   -0.1858   -1.2096 C.ar    1  UNL1       -0.0415
     16 C          -7.4220   -0.9878   -0.6512 C.ar    1  UNL1        0.0596
     17 BR         -7.8742   -2.8323   -0.3827 Br      1  UNL1       -0.0465
     18 S           1.8989    0.3955   -1.3107 S.2     1  UNL1       -0.0259
     19 C           3.2433    0.5016   -0.0249 C.ar    1  UNL1        0.0857
     20 C           4.6250    0.8537   -0.3495 C.ar    1  UNL1        0.2130
     21 N           5.0428    1.9101   -1.0758 N.ar    1  UNL1       -0.1072
     22 N           6.3513    1.8471   -1.1212 N.ar    1  UNL1       -0.0452
     23 N           6.8053    0.7995   -0.4587 N.ar    1  UNL1       -0.1519
     24 C           8.2048    0.4557   -0.3245 C.3     1  UNL1        0.1593
     25 C           8.6595   -0.4292   -1.4148 C.2     1  UNL1        0.3282
     26 O           9.8408   -0.8188   -1.4472 O.2     1  UNL1       -0.2489
     27 O           7.7661   -0.8156   -2.3890 O.3     1  UNL1       -0.4793
     28 N           5.7422    0.1837    0.0191 N.ar    1  UNL1       -0.1293
     29 H           2.7053    0.2957    3.2911 H       1  UNL1        0.0293
     30 H           3.9111   -0.7920    2.5478 H       1  UNL1        0.0293
     31 H           4.1065    0.9805    2.4522 H       1  UNL1        0.0293
     32 H          -1.4377   -1.5391    1.0325 H       1  UNL1        0.0698
     33 H          -1.8049    0.1936    1.1507 H       1  UNL1        0.0698
     34 H          -3.2015    0.0431   -0.9133 H       1  UNL1        0.0331
     35 H          -2.8350   -1.6802   -1.0473 H       1  UNL1        0.0331
     36 H          -3.6834   -2.1362    1.2259 H       1  UNL1        0.0697
     37 H          -4.0710   -0.4294    1.5331 H       1  UNL1        0.0697
     38 H          -4.9677    1.2422   -0.2034 H       1  UNL1        0.0683
     39 H          -8.8113    1.8058   -1.8713 H       1  UNL1        0.0646
     40 H          -9.3388   -0.5209   -1.5153 H       1  UNL1        0.0631
     41 H           8.3578   -0.1143    0.6330 H       1  UNL1        0.0644
     42 H           8.8437    1.3634   -0.2156 H       1  UNL1        0.0644
     43 H           8.0856   -1.5100   -3.0680 H       1  UNL1        0.2951
@<TRIPOS>BOND
     1     1     2    1
     2     2     3   ar
     3     3     4   ar
     4     4     5    1
     5     5     6    1
     6     6     7    1
     7     7     8    1
     8     8     9    1
     9     9    10    1
    10    10    11   ar
    11    11    12   ar
    12    12    13    1
    13    12    14   ar
    14    14    15   ar
    15    15    16   ar
    16    16    17    1
    17     4    18   ar
    18    18    19   ar
    19    19    20    1
    20    20    21   ar
    21    21    22   ar
    22    22    23   ar
    23    23    24    1
    24    24    25    1
    25    25    26    2
    26    25    27    1
    27    23    28   ar
    28    19     2   ar
    29    28    20   ar
    30    16    10   ar
    31     1    29    1
    32     1    30    1
    33     1    31    1
    34     6    32    1
    35     6    33    1
    36     7    34    1
    37     7    35    1
    38     8    36    1
    39     8    37    1
    40    11    38    1
    41    14    39    1
    42    15    40    1
    43    24    41    1
    44    24    42    1
    45    27    43    1
