@<TRIPOS>MOLECULE
*****
 53 57 0 0 0
SMALL
GASTEIGER

@<TRIPOS>ATOM
      1 C           8.3632   -1.6394    0.4522 C.3     1  UNL1        0.0790
      2 O           7.6182   -0.4657    0.7977 O.3     1  UNL1       -0.4914
      3 C           6.2274   -0.4368    0.6147 C.ar    1  UNL1        0.1635
      4 C           5.5672   -1.5372    0.1098 C.ar    1  UNL1        0.0098
      5 C           4.2032   -1.5331   -0.0815 C.ar    1  UNL1        0.0782
      6 N           3.5412   -2.5814   -0.5881 N.ar    1  UNL1       -0.2546
      7 C           2.2176   -2.5958   -0.8002 C.ar    1  UNL1        0.0318
      8 C           1.5155   -1.4621   -0.4757 C.ar    1  UNL1       -0.0006
      9 C           2.1668   -0.3547    0.0509 C.ar    1  UNL1        0.1391
     10 O           1.4236    0.7965    0.3664 O.3     1  UNL1       -0.4553
     11 C           0.0353    0.7940    0.0874 C.ar    1  UNL1        0.1291
     12 C          -0.9328    0.6535    1.0357 C.ar    1  UNL1       -0.0187
     13 C          -2.2841    0.6597    0.6680 C.ar    1  UNL1       -0.0498
     14 C          -2.6567    0.8061   -0.6513 C.ar    1  UNL1       -0.0056
     15 C          -3.9595    0.8084   -1.0259 C.ar    1  UNL1        0.0444
     16 C          -5.0498    0.6893   -0.0574 C.2     1  UNL1        0.2449
     17 O          -5.0591    1.5111    0.8941 O.2     1  UNL1       -0.2702
     18 N          -6.0865   -0.2710   -0.1221 N.am    1  UNL1       -0.3085
     19 C          -7.1674   -0.3798    0.8172 C.3     1  UNL1        0.0235
     20 C          -7.8054   -1.7573    0.8949 C.3     1  UNL1       -0.0328
     21 C          -8.5606   -0.5985    0.3484 C.3     1  UNL1       -0.0328
     22 C          -4.3234    0.9488   -2.3767 C.ar    1  UNL1       -0.0490
     23 C          -3.3732    1.0917   -3.3637 C.ar    1  UNL1       -0.0605
     24 C          -2.0592    1.0889   -2.9621 C.ar    1  UNL1       -0.0539
     25 C          -1.6887    0.9492   -1.6298 C.ar    1  UNL1       -0.0137
     26 C          -0.3788    0.9404   -1.2399 C.ar    1  UNL1       -0.0116
     27 C           3.5026   -0.3665    0.2567 C.ar    1  UNL1        0.0463
     28 C           4.1699    0.7256    0.7611 C.ar    1  UNL1       -0.0036
     29 C           5.5534    0.7133    0.9515 C.ar    1  UNL1        0.1623
     30 O           6.2279    1.7922    1.4526 O.3     1  UNL1       -0.4914
     31 C           5.6354    3.0092    1.8336 C.3     1  UNL1        0.0790
     32 H           8.0271   -2.4803    1.0846 H       1  UNL1        0.0660
     33 H           9.4187   -1.4155    0.5944 H       1  UNL1        0.0660
     34 H           8.0984   -1.8630   -0.5998 H       1  UNL1        0.0660
     35 H           6.0957   -2.4466   -0.1569 H       1  UNL1        0.0677
     36 H           1.7192   -3.4861   -1.2226 H       1  UNL1        0.0831
     37 H           0.4725   -1.4389   -0.6316 H       1  UNL1        0.0670
     38 H          -0.6814    0.5359    2.0753 H       1  UNL1        0.0654
     39 H          -3.0588    0.5487    1.4106 H       1  UNL1        0.0625
     40 H          -6.0645   -0.9537   -0.9217 H       1  UNL1        0.1493
     41 H          -7.0873    0.2620    1.6991 H       1  UNL1        0.0498
     42 H          -7.5312   -2.5347    0.1779 H       1  UNL1        0.0284
     43 H          -7.9787   -2.1147    1.9378 H       1  UNL1        0.0284
     44 H          -9.3923   -0.2072    0.9434 H       1  UNL1        0.0284
     45 H          -8.7685   -0.5904   -0.7517 H       1  UNL1        0.0284
     46 H          -5.3944    0.9418   -2.6385 H       1  UNL1        0.0625
     47 H          -3.6394    1.2008   -4.4198 H       1  UNL1        0.0618
     48 H          -1.2457    1.1980   -3.6740 H       1  UNL1        0.0624
     49 H           0.4050    1.0483   -1.9661 H       1  UNL1        0.0660
     50 H           3.6137    1.6164    1.0191 H       1  UNL1        0.0663
     51 H           6.3272    3.6262    2.4576 H       1  UNL1        0.0660
     52 H           5.4088    3.6635    0.9522 H       1  UNL1        0.0660
     53 H           4.6729    2.8914    2.3686 H       1  UNL1        0.0660
@<TRIPOS>BOND
     1     1     2    1
     2     2     3    1
     3     3     4   ar
     4     4     5   ar
     5     5     6   ar
     6     6     7   ar
     7     7     8   ar
     8     8     9   ar
     9     9    10    1
    10    10    11    1
    11    11    12   ar
    12    12    13   ar
    13    13    14   ar
    14    14    15   ar
    15    15    16    1
    16    16    17    2
    17    16    18   am
    18    18    19    1
    19    19    20    1
    20    20    21    1
    21    15    22   ar
    22    22    23   ar
    23    23    24   ar
    24    24    25   ar
    25    25    26   ar
    26     9    27   ar
    27    27    28   ar
    28    28    29   ar
    29    29    30    1
    30    30    31    1
    31    29     3   ar
    32    27     5   ar
    33    26    11   ar
    34    25    14   ar
    35    21    19    1
    36     1    32    1
    37     1    33    1
    38     1    34    1
    39     4    35    1
    40     7    36    1
    41     8    37    1
    42    12    38    1
    43    13    39    1
    44    18    40    1
    45    19    41    1
    46    20    42    1
    47    20    43    1
    48    21    44    1
    49    21    45    1
    50    22    46    1
    51    23    47    1
    52    24    48    1
    53    26    49    1
    54    28    50    1
    55    31    51    1
    56    31    52    1
    57    31    53    1
