
     RDKit          3D

 52 55  0  0  0  0  0  0  0  0999 V2000
    2.8326    2.3690    0.4199 N   0  0  0  0  0  0  0  0  0  0  0  0
    4.0639    2.4909    0.0740 C   0  0  0  0  0  0  0  0  0  0  0  0
    4.8513    3.5857    0.5377 O   0  0  0  0  0  0  0  0  0  0  0  0
    6.1928    3.1869    0.3424 C   0  0  0  0  0  0  0  0  0  0  0  0
    6.0570    2.4836   -1.0168 C   0  0  0  0  0  0  0  0  0  0  0  0
    4.8486    1.6696   -0.7522 N   0  0  0  0  0  0  0  0  0  0  0  0
    4.6861    0.3579   -1.2832 C   0  0  0  0  0  0  0  0  0  0  0  0
    3.4056   -0.2999   -1.0046 C   0  0  0  0  0  0  0  0  0  0  0  0
    2.3300   -0.2513   -1.8855 C   0  0  0  0  0  0  0  0  0  0  0  0
    1.1291   -0.8990   -1.5831 C   0  0  0  0  0  0  0  0  0  0  0  0
    0.9892   -1.5938   -0.4132 C   0  0  0  0  0  0  0  0  0  0  0  0
   -0.2557   -2.2630   -0.1007 C   0  0  0  0  0  0  0  0  0  0  0  0
   -0.3586   -2.9127    0.9969 O   0  0  0  0  0  0  0  0  0  0  0  0
   -1.3916   -2.2486   -0.9427 N   0  0  0  0  0  0  0  0  0  0  0  0
   -2.5712   -2.9265   -0.5682 C   0  0  0  0  0  0  0  0  0  0  0  0
   -2.7857   -4.2663   -0.9247 C   0  0  0  0  0  0  0  0  0  0  0  0
   -3.9216   -4.9324   -0.5706 C   0  0  0  0  0  0  0  0  0  0  0  0
   -4.8786   -4.2611    0.1574 C   0  0  0  0  0  0  0  0  0  0  0  0
   -6.3388   -5.1032    0.6190 Cl  0  0  0  0  0  0  0  0  0  0  0  0
   -4.6629   -2.9277    0.5110 C   0  0  0  0  0  0  0  0  0  0  0  0
   -3.5194   -2.2420    0.1599 C   0  0  0  0  0  0  0  0  0  0  0  0
   -3.2619   -0.8562    0.5109 C   0  0  0  0  0  0  0  0  0  0  0  0
   -2.1906   -0.3114    0.1565 O   0  0  0  0  0  0  0  0  0  0  0  0
   -4.1609   -0.0375    1.2522 N   0  0  0  0  0  0  0  0  0  0  0  0
   -3.8901    1.3088    1.5844 C   0  0  0  0  0  0  0  0  0  0  0  0
   -4.2660    2.3402    0.7621 C   0  0  0  0  0  0  0  0  0  0  0  0
   -3.9798    3.6447    1.1215 C   0  0  0  0  0  0  0  0  0  0  0  0
   -3.3094    3.8821    2.3224 C   0  0  0  0  0  0  0  0  0  0  0  0
   -2.9040    5.4884    2.8606 Cl  0  0  0  0  0  0  0  0  0  0  0  0
   -2.9398    2.8293    3.1357 C   0  0  0  0  0  0  0  0  0  0  0  0
   -3.2504    1.5979    2.7225 N   0  0  0  0  0  0  0  0  0  0  0  0
    2.0301   -1.6556    0.4661 C   0  0  0  0  0  0  0  0  0  0  0  0
    3.2213   -1.0108    0.1619 C   0  0  0  0  0  0  0  0  0  0  0  0
    2.1794    1.6548    0.1660 H   0  0  0  0  0  0  0  0  0  0  0  0
    6.5208    2.4228    1.0780 H   0  0  0  0  0  0  0  0  0  0  0  0
    6.8831    4.0425    0.2887 H   0  0  0  0  0  0  0  0  0  0  0  0
    6.9326    1.8455   -1.2245 H   0  0  0  0  0  0  0  0  0  0  0  0
    5.8743    3.2352   -1.8004 H   0  0  0  0  0  0  0  0  0  0  0  0
    4.8210    0.3560   -2.4158 H   0  0  0  0  0  0  0  0  0  0  0  0
    5.5395   -0.3221   -0.9601 H   0  0  0  0  0  0  0  0  0  0  0  0
    2.4703    0.3035   -2.7985 H   0  0  0  0  0  0  0  0  0  0  0  0
    0.3673   -0.8008   -2.3267 H   0  0  0  0  0  0  0  0  0  0  0  0
   -1.3568   -1.7402   -1.8347 H   0  0  0  0  0  0  0  0  0  0  0  0
   -2.0186   -4.7898   -1.5034 H   0  0  0  0  0  0  0  0  0  0  0  0
   -4.0827   -5.9748   -0.8505 H   0  0  0  0  0  0  0  0  0  0  0  0
   -5.4329   -2.4190    1.0865 H   0  0  0  0  0  0  0  0  0  0  0  0
   -5.0672   -0.4972    1.5510 H   0  0  0  0  0  0  0  0  0  0  0  0
   -4.7871    2.1947   -0.1755 H   0  0  0  0  0  0  0  0  0  0  0  0
   -4.2406    4.5003    0.5345 H   0  0  0  0  0  0  0  0  0  0  0  0
   -2.4147    3.0056    4.0782 H   0  0  0  0  0  0  0  0  0  0  0  0
    1.9680   -2.1925    1.4060 H   0  0  0  0  0  0  0  0  0  0  0  0
    4.0439   -1.0601    0.8594 H   0  0  0  0  0  0  0  0  0  0  0  0
  1  2  2  3
  2  3  1  0
  3  4  1  0
  4  5  1  0
  5  6  1  0
  6  7  1  0
  7  8  1  0
  8  9  2  0
  9 10  1  0
 10 11  2  0
 11 12  1  0
 12 13  2  0
 12 14  1  0
 14 15  1  0
 15 16  2  0
 16 17  1  0
 17 18  2  0
 18 19  1  0
 18 20  1  0
 20 21  2  0
 21 22  1  0
 22 23  2  0
 22 24  1  0
 24 25  1  0
 25 26  2  0
 26 27  1  0
 27 28  2  0
 28 29  1  0
 28 30  1  0
 30 31  2  0
 11 32  1  0
 32 33  2  0
  6  2  1  0
 33  8  1  0
 21 15  1  0
 31 25  1  0
  1 34  1  0
  4 35  1  0
  4 36  1  0
  5 37  1  0
  5 38  1  0
  7 39  1  0
  7 40  1  0
  9 41  1  0
 10 42  1  0
 14 43  1  0
 16 44  1  0
 17 45  1  0
 20 46  1  0
 24 47  1  0
 26 48  1  0
 27 49  1  0
 30 50  1  0
 32 51  1  0
 33 52  1  0
M  END
$$$$
