@<TRIPOS>MOLECULE
*****
 52 55 0 0 0
SMALL
GASTEIGER

@<TRIPOS>ATOM
      1 N           2.8326    2.3690    0.4199 N.2     1  UNL1       -0.2530
      2 C           4.0639    2.4909    0.0740 C.2     1  UNL1        0.2780
      3 O           4.8513    3.5857    0.5377 O.2     1  UNL1       -0.4642
      4 C           6.1928    3.1869    0.3424 C.3     1  UNL1        0.1082
      5 C           6.0570    2.4836   -1.0168 C.3     1  UNL1        0.0509
      6 N           4.8486    1.6696   -0.7522 N.pl3   1  UNL1       -0.2783
      7 C           4.6861    0.3579   -1.2832 C.3     1  UNL1        0.0414
      8 C           3.4056   -0.2999   -1.0046 C.ar    1  UNL1       -0.0300
      9 C           2.3300   -0.2513   -1.8855 C.ar    1  UNL1       -0.0564
     10 C           1.1291   -0.8990   -1.5831 C.ar    1  UNL1       -0.0493
     11 C           0.9892   -1.5938   -0.4132 C.ar    1  UNL1        0.0370
     12 C          -0.2557   -2.2630   -0.1007 C.2     1  UNL1        0.2483
     13 O          -0.3586   -2.9127    0.9969 O.2     1  UNL1       -0.2699
     14 N          -1.3916   -2.2486   -0.9427 N.am    1  UNL1       -0.2808
     15 C          -2.5712   -2.9265   -0.5682 C.ar    1  UNL1        0.0459
     16 C          -2.7857   -4.2663   -0.9247 C.ar    1  UNL1       -0.0384
     17 C          -3.9216   -4.9324   -0.5706 C.ar    1  UNL1       -0.0416
     18 C          -4.8786   -4.2611    0.1574 C.ar    1  UNL1        0.0418
     19 CL         -6.3388   -5.1032    0.6190 Cl      1  UNL1       -0.0835
     20 C          -4.6629   -2.9277    0.5110 C.ar    1  UNL1       -0.0295
     21 C          -3.5194   -2.2420    0.1599 C.ar    1  UNL1        0.0596
     22 C          -3.2619   -0.8562    0.5109 C.2     1  UNL1        0.2511
     23 O          -2.1906   -0.3114    0.1565 O.2     1  UNL1       -0.2697
     24 N          -4.1609   -0.0375    1.2522 N.am    1  UNL1       -0.2663
     25 C          -3.8901    1.3088    1.5844 C.ar    1  UNL1        0.1252
     26 C          -4.2660    2.3402    0.7621 C.ar    1  UNL1       -0.0201
     27 C          -3.9798    3.6447    1.1215 C.ar    1  UNL1       -0.0387
     28 C          -3.3094    3.8821    2.3224 C.ar    1  UNL1        0.0592
     29 CL         -2.9040    5.4884    2.8606 Cl      1  UNL1       -0.0820
     30 C          -2.9398    2.8293    3.1357 C.ar    1  UNL1        0.0480
     31 N          -3.2504    1.5979    2.7225 N.ar    1  UNL1       -0.2387
     32 C           2.0301   -1.6556    0.4661 C.ar    1  UNL1       -0.0493
     33 C           3.2213   -1.0108    0.1619 C.ar    1  UNL1       -0.0564
     34 H           2.1794    1.6548    0.1660 H       1  UNL1        0.1912
     35 H           6.5208    2.4228    1.0780 H       1  UNL1        0.0713
     36 H           6.8831    4.0425    0.2887 H       1  UNL1        0.0713
     37 H           6.9326    1.8455   -1.2245 H       1  UNL1        0.0499
     38 H           5.8743    3.2352   -1.8004 H       1  UNL1        0.0499
     39 H           4.8210    0.3560   -2.4158 H       1  UNL1        0.0514
     40 H           5.5395   -0.3221   -0.9601 H       1  UNL1        0.0514
     41 H           2.4703    0.3035   -2.7985 H       1  UNL1        0.0621
     42 H           0.3673   -0.8008   -2.3267 H       1  UNL1        0.0625
     43 H          -1.3568   -1.7402   -1.8347 H       1  UNL1        0.1552
     44 H          -2.0186   -4.7898   -1.5034 H       1  UNL1        0.0637
     45 H          -4.0827   -5.9748   -0.8505 H       1  UNL1        0.0633
     46 H          -5.4329   -2.4190    1.0865 H       1  UNL1        0.0640
     47 H          -5.0672   -0.4972    1.5510 H       1  UNL1        0.1566
     48 H          -4.7871    2.1947   -0.1755 H       1  UNL1        0.0652
     49 H          -4.2406    4.5003    0.5345 H       1  UNL1        0.0634
     50 H          -2.4147    3.0056    4.0782 H       1  UNL1        0.0845
     51 H           1.9680   -2.1925    1.4060 H       1  UNL1        0.0625
     52 H           4.0439   -1.0601    0.8594 H       1  UNL1        0.0621
@<TRIPOS>BOND
     1     1     2    2
     2     2     3    1
     3     3     4    1
     4     4     5    1
     5     5     6    1
     6     6     7    1
     7     7     8    1
     8     8     9   ar
     9     9    10   ar
    10    10    11   ar
    11    11    12    1
    12    12    13    2
    13    12    14   am
    14    14    15    1
    15    15    16   ar
    16    16    17   ar
    17    17    18   ar
    18    18    19    1
    19    18    20   ar
    20    20    21   ar
    21    21    22    1
    22    22    23    2
    23    22    24   am
    24    24    25    1
    25    25    26   ar
    26    26    27   ar
    27    27    28   ar
    28    28    29    1
    29    28    30   ar
    30    30    31   ar
    31    11    32   ar
    32    32    33   ar
    33     6     2    1
    34    33     8   ar
    35    21    15   ar
    36    31    25   ar
    37     1    34    1
    38     4    35    1
    39     4    36    1
    40     5    37    1
    41     5    38    1
    42     7    39    1
    43     7    40    1
    44     9    41    1
    45    10    42    1
    46    14    43    1
    47    16    44    1
    48    17    45    1
    49    20    46    1
    50    24    47    1
    51    26    48    1
    52    27    49    1
    53    30    50    1
    54    32    51    1
    55    33    52    1
