@<TRIPOS>MOLECULE
*****
 43 47 0 0 0
SMALL
GASTEIGER

@<TRIPOS>ATOM
      1 N          -1.8285   -1.3912   -4.4613 N.1     1  UNL1       -0.1893
      2 C          -1.8936   -1.8359   -3.3953 C.1     1  UNL1        0.1192
      3 C          -1.9544   -2.4088   -2.0588 C.ar    1  UNL1        0.1438
      4 C          -2.6062   -3.5632   -1.6602 C.ar    1  UNL1        0.0643
      5 N          -2.4180   -3.7488   -0.3350 N.ar    1  UNL1       -0.2348
      6 C          -1.6594   -2.7326    0.1097 C.ar    1  UNL1        0.1385
      7 C          -1.1897   -2.4677    1.3951 C.ar    1  UNL1       -0.0181
      8 C          -0.4155   -1.3490    1.6206 C.ar    1  UNL1       -0.0477
      9 C          -0.1329   -0.5271    0.5551 C.ar    1  UNL1        0.0173
     10 C           0.6807    0.6771    0.7047 C.ar    1  UNL1        0.0781
     11 C           0.1939    1.9466    0.4512 C.ar    1  UNL1        0.0968
     12 C          -1.1435    2.3494    0.0112 C.ar    1  UNL1        0.0040
     13 C          -2.2607    2.1045    0.8083 C.ar    1  UNL1       -0.0497
     14 C          -3.5230    2.4807    0.4009 C.ar    1  UNL1       -0.0244
     15 C          -3.7332    3.1124   -0.8072 C.ar    1  UNL1        0.1417
     16 F          -4.9854    3.4856   -1.2135 F       1  UNL1       -0.2040
     17 C          -2.6340    3.3603   -1.6051 C.ar    1  UNL1        0.0767
     18 CL         -2.9309    4.1640   -3.1348 Cl      1  UNL1       -0.0806
     19 C          -1.3745    2.9817   -1.1922 C.ar    1  UNL1       -0.0313
     20 N           1.2309    2.7681    0.6995 N.ar    1  UNL1       -0.2351
     21 C           2.3059    2.0612    1.0859 C.ar    1  UNL1        0.0973
     22 N           1.9616    0.7631    1.0883 N.ar    1  UNL1       -0.3261
     23 C           2.8268   -0.3220    1.4415 C.3     1  UNL1        0.0468
     24 C           2.8680   -1.4251    0.3891 C.3     1  UNL1        0.0319
     25 C           4.3707   -1.4558    0.5530 C.3     1  UNL1        0.2527
     26 F           4.7316   -2.3841    1.4909 F       1  UNL1       -0.2055
     27 F           5.0317   -1.5508   -0.6576 F       1  UNL1       -0.2055
     28 C           4.2923   -0.0467    1.1152 C.3     1  UNL1        0.0319
     29 C          -0.6292   -0.8397   -0.7112 C.ar    1  UNL1        0.0216
     30 N          -1.3822   -1.9273   -0.9318 N.ar    1  UNL1       -0.2906
     31 H          -3.1701   -4.2015   -2.3175 H       1  UNL1        0.0859
     32 H          -1.4138   -3.1165    2.2298 H       1  UNL1        0.0654
     33 H          -0.0257   -1.1001    2.6064 H       1  UNL1        0.0626
     34 H          -2.1031    1.6072    1.7615 H       1  UNL1        0.0625
     35 H          -4.3498    2.2606    1.0679 H       1  UNL1        0.0647
     36 H          -0.5169    3.1875   -1.8396 H       1  UNL1        0.0640
     37 H           3.2673    2.4840    1.3443 H       1  UNL1        0.1029
     38 H           2.7507   -0.6951    2.4884 H       1  UNL1        0.0532
     39 H           2.5089   -1.0158   -0.5770 H       1  UNL1        0.0343
     40 H           2.3346   -2.3045    0.7730 H       1  UNL1        0.0343
     41 H           4.9326    0.1175    1.9906 H       1  UNL1        0.0343
     42 H           4.4056    0.7029    0.2864 H       1  UNL1        0.0343
     43 H          -0.4193   -0.2051   -1.5702 H       1  UNL1        0.0820
@<TRIPOS>BOND
     1     1     2    3
     2     2     3    1
     3     3     4   ar
     4     4     5   ar
     5     5     6   ar
     6     6     7   ar
     7     7     8   ar
     8     8     9   ar
     9     9    10    1
    10    10    11   ar
    11    11    12    1
    12    12    13   ar
    13    13    14   ar
    14    14    15   ar
    15    15    16    1
    16    15    17   ar
    17    17    18    1
    18    17    19   ar
    19    11    20   ar
    20    20    21   ar
    21    21    22   ar
    22    22    23    1
    23    23    24    1
    24    24    25    1
    25    25    26    1
    26    25    27    1
    27    25    28    1
    28     9    29   ar
    29    29    30   ar
    30    30     3   ar
    31    30     6   ar
    32    22    10   ar
    33    28    23    1
    34    19    12   ar
    35     4    31    1
    36     7    32    1
    37     8    33    1
    38    13    34    1
    39    14    35    1
    40    19    36    1
    41    21    37    1
    42    23    38    1
    43    24    39    1
    44    24    40    1
    45    28    41    1
    46    28    42    1
    47    29    43    1
