
     RDKit          3D

 54 59  0  0  0  0  0  0  0  0999 V2000
    6.6630   -1.7518   -1.1212 C   0  0  0  0  0  0  0  0  0  0  0  0
    6.1916   -1.3364    0.2408 C   0  0  2  0  0  0  0  0  0  0  0  0
    7.0229   -1.6026    1.3101 O   0  0  0  0  0  0  0  0  0  0  0  0
    4.7068   -1.6788    0.4743 C   0  0  0  0  0  0  0  0  0  0  0  0
    4.3995   -0.4479   -0.3393 C   0  0  1  0  0  0  0  0  0  0  0  0
    3.1871    0.3189   -0.0043 C   0  0  0  0  0  0  0  0  0  0  0  0
    1.9655    0.0870   -0.4987 N   0  0  0  0  0  0  0  0  0  0  0  0
    1.1020    1.0319   -0.0331 C   0  0  0  0  0  0  0  0  0  0  0  0
   -0.2855    1.0998   -0.3802 C   0  0  0  0  0  0  0  0  0  0  0  0
   -0.6959    2.2414   -1.0909 C   0  0  0  0  0  0  0  0  0  0  0  0
   -2.0038    2.3386   -1.5030 C   0  0  0  0  0  0  0  0  0  0  0  0
   -2.9233    1.3341   -1.2288 C   0  0  0  0  0  0  0  0  0  0  0  0
   -4.2308    1.4140   -1.6497 C   0  0  0  0  0  0  0  0  0  0  0  0
   -5.1198    0.3684   -1.3614 C   0  0  0  0  0  0  0  0  0  0  0  0
   -4.7241   -0.7437   -0.6638 C   0  0  0  0  0  0  0  0  0  0  0  0
   -5.6301   -1.8488   -0.3092 C   0  0  0  0  0  0  0  0  0  0  0  0
   -6.9585   -1.8713   -0.7114 C   0  0  0  0  0  0  0  0  0  0  0  0
   -7.8276   -2.8806   -0.3767 C   0  0  0  0  0  0  0  0  0  0  0  0
   -7.3455   -3.9380    0.4098 C   0  0  0  0  0  0  0  0  0  0  0  0
   -6.0370   -3.9455    0.8250 C   0  0  0  0  0  0  0  0  0  0  0  0
   -5.2097   -2.9058    0.4593 C   0  0  0  0  0  0  0  0  0  0  0  0
   -3.4298   -0.7913   -0.2640 N   0  0  0  0  0  0  0  0  0  0  0  0
   -2.5416    0.2062   -0.5302 C   0  0  0  0  0  0  0  0  0  0  0  0
   -1.2142    0.1342   -0.1274 C   0  0  0  0  0  0  0  0  0  0  0  0
   -0.8420   -0.9746    0.5624 F   0  0  0  0  0  0  0  0  0  0  0  0
    1.8180    1.8884    0.7890 C   0  0  0  0  0  0  0  0  0  0  0  0
    1.4466    3.0132    1.5131 C   0  0  0  0  0  0  0  0  0  0  0  0
    0.1169    3.4699    1.4882 N   0  0  0  0  0  0  0  0  0  0  0  0
    2.4169    3.6182    2.2117 N   0  0  0  0  0  0  0  0  0  0  0  0
    3.6808    3.1653    2.2155 C   0  0  0  0  0  0  0  0  0  0  0  0
    3.9611    2.0769    1.4935 N   0  0  0  0  0  0  0  0  0  0  0  0
    3.0783    1.4031    0.7678 N   0  0  0  0  0  0  0  0  0  0  0  0
    5.7030    0.1274    0.1575 C   0  0  0  0  0  0  0  0  0  0  0  0
    5.8853   -2.3574   -1.6431 H   0  0  0  0  0  0  0  0  0  0  0  0
    6.8882   -0.8711   -1.7725 H   0  0  0  0  0  0  0  0  0  0  0  0
    7.6359   -2.3057   -1.0711 H   0  0  0  0  0  0  0  0  0  0  0  0
    7.2645   -0.7408    1.7522 H   0  0  0  0  0  0  0  0  0  0  0  0
    4.3944   -1.6070    1.5271 H   0  0  0  0  0  0  0  0  0  0  0  0
    4.4154   -2.6371   -0.0246 H   0  0  0  0  0  0  0  0  0  0  0  0
    4.4642   -0.7008   -1.4393 H   0  0  0  0  0  0  0  0  0  0  0  0
   -0.0013    3.0290   -1.3098 H   0  0  0  0  0  0  0  0  0  0  0  0
   -2.3048    3.2304   -2.0545 H   0  0  0  0  0  0  0  0  0  0  0  0
   -4.5278    2.2950   -2.1954 H   0  0  0  0  0  0  0  0  0  0  0  0
   -6.1423    0.4517   -1.6987 H   0  0  0  0  0  0  0  0  0  0  0  0
   -7.3295   -1.0596   -1.3249 H   0  0  0  0  0  0  0  0  0  0  0  0
   -8.8728   -2.8966   -0.6961 H   0  0  0  0  0  0  0  0  0  0  0  0
   -8.0196   -4.7508    0.6926 H   0  0  0  0  0  0  0  0  0  0  0  0
   -5.6619   -4.7770    1.4476 H   0  0  0  0  0  0  0  0  0  0  0  0
   -4.1863   -2.9202    0.7910 H   0  0  0  0  0  0  0  0  0  0  0  0
   -0.6271    2.9256    1.9521 H   0  0  0  0  0  0  0  0  0  0  0  0
   -0.1279    4.3496    1.0067 H   0  0  0  0  0  0  0  0  0  0  0  0
    4.4592    3.6770    2.7926 H   0  0  0  0  0  0  0  0  0  0  0  0
    6.2545    0.7042   -0.6125 H   0  0  0  0  0  0  0  0  0  0  0  0
    5.6990    0.5673    1.1559 H   0  0  0  0  0  0  0  0  0  0  0  0
  1  2  1  0
  2  3  1  1
  2  4  1  0
  4  5  1  0
  5  6  1  0
  6  7  2  0
  7  8  1  0
  8  9  1  0
  9 10  2  0
 10 11  1  0
 11 12  2  0
 12 13  1  0
 13 14  2  0
 14 15  1  0
 15 16  1  0
 16 17  2  0
 17 18  1  0
 18 19  2  0
 19 20  1  0
 20 21  2  0
 15 22  2  0
 22 23  1  0
 23 24  2  0
 24 25  1  0
  8 26  2  0
 26 27  1  0
 27 28  1  0
 27 29  2  0
 29 30  1  0
 30 31  2  0
 31 32  1  0
  5 33  1  0
 33  2  1  0
 32  6  1  0
 24  9  1  0
 32 26  1  0
 23 12  1  0
 21 16  1  0
  1 34  1  0
  1 35  1  0
  1 36  1  0
  3 37  1  0
  4 38  1  0
  4 39  1  0
  5 40  1  6
 10 41  1  0
 11 42  1  0
 13 43  1  0
 14 44  1  0
 17 45  1  0
 18 46  1  0
 19 47  1  0
 20 48  1  0
 21 49  1  0
 28 50  1  0
 28 51  1  0
 30 52  1  0
 33 53  1  0
 33 54  1  0
M  END
$$$$
