@<TRIPOS>MOLECULE
*****
 54 59 0 0 0
SMALL
GASTEIGER

@<TRIPOS>ATOM
      1 C           6.6630   -1.7518   -1.1212 C.3     1  UNL1       -0.0360
      2 C           6.1916   -1.3364    0.2408 C.3     1  UNL1        0.0646
      3 O           7.0229   -1.6026    1.3101 O.3     1  UNL1       -0.3888
      4 C           4.7068   -1.6788    0.4743 C.3     1  UNL1       -0.0144
      5 C           4.3995   -0.4479   -0.3393 C.3     1  UNL1        0.0242
      6 C           3.1871    0.3189   -0.0043 C.ar    1  UNL1        0.1353
      7 N           1.9655    0.0870   -0.4987 N.ar    1  UNL1       -0.2294
      8 C           1.1020    1.0319   -0.0331 C.ar    1  UNL1        0.1046
      9 C          -0.2855    1.0998   -0.3802 C.ar    1  UNL1        0.0399
     10 C          -0.6959    2.2414   -1.0909 C.ar    1  UNL1       -0.0490
     11 C          -2.0038    2.3386   -1.5030 C.ar    1  UNL1       -0.0518
     12 C          -2.9233    1.3341   -1.2288 C.ar    1  UNL1        0.0033
     13 C          -4.2308    1.4140   -1.6497 C.ar    1  UNL1       -0.0505
     14 C          -5.1198    0.3684   -1.3614 C.ar    1  UNL1       -0.0351
     15 C          -4.7241   -0.7437   -0.6638 C.ar    1  UNL1        0.0718
     16 C          -5.6301   -1.8488   -0.3092 C.ar    1  UNL1        0.0004
     17 C          -6.9585   -1.8713   -0.7114 C.ar    1  UNL1       -0.0526
     18 C          -7.8276   -2.8806   -0.3767 C.ar    1  UNL1       -0.0611
     19 C          -7.3455   -3.9380    0.4098 C.ar    1  UNL1       -0.0617
     20 C          -6.0370   -3.9455    0.8250 C.ar    1  UNL1       -0.0611
     21 C          -5.2097   -2.9058    0.4593 C.ar    1  UNL1       -0.0526
     22 N          -3.4298   -0.7913   -0.2640 N.ar    1  UNL1       -0.2438
     23 C          -2.5416    0.2062   -0.5302 C.ar    1  UNL1        0.1074
     24 C          -1.2142    0.1342   -0.1274 C.ar    1  UNL1        0.1584
     25 F          -0.8420   -0.9746    0.5624 F       1  UNL1       -0.2026
     26 C           1.8180    1.8884    0.7890 C.ar    1  UNL1        0.1327
     27 C           1.4466    3.0132    1.5131 C.ar    1  UNL1        0.1458
     28 N           0.1169    3.4699    1.4882 N.pl3   1  UNL1       -0.3414
     29 N           2.4169    3.6182    2.2117 N.ar    1  UNL1       -0.2172
     30 C           3.6808    3.1653    2.2155 C.ar    1  UNL1        0.1388
     31 N           3.9611    2.0769    1.4935 N.ar    1  UNL1       -0.1531
     32 N           3.0783    1.4031    0.7678 N.ar    1  UNL1       -0.2115
     33 C           5.7030    0.1274    0.1575 C.3     1  UNL1       -0.0144
     34 H           5.8853   -2.3574   -1.6431 H       1  UNL1        0.0257
     35 H           6.8882   -0.8711   -1.7725 H       1  UNL1        0.0257
     36 H           7.6359   -2.3057   -1.0711 H       1  UNL1        0.0257
     37 H           7.2645   -0.7408    1.7522 H       1  UNL1        0.2101
     38 H           4.3944   -1.6070    1.5271 H       1  UNL1        0.0300
     39 H           4.4154   -2.6371   -0.0246 H       1  UNL1        0.0300
     40 H           4.4642   -0.7008   -1.4393 H       1  UNL1        0.0381
     41 H          -0.0013    3.0290   -1.3098 H       1  UNL1        0.0625
     42 H          -2.3048    3.2304   -2.0545 H       1  UNL1        0.0624
     43 H          -4.5278    2.2950   -2.1954 H       1  UNL1        0.0625
     44 H          -6.1423    0.4517   -1.6987 H       1  UNL1        0.0639
     45 H          -7.3295   -1.0596   -1.3249 H       1  UNL1        0.0624
     46 H          -8.8728   -2.8966   -0.6961 H       1  UNL1        0.0618
     47 H          -8.0196   -4.7508    0.6926 H       1  UNL1        0.0618
     48 H          -5.6619   -4.7770    1.4476 H       1  UNL1        0.0618
     49 H          -4.1863   -2.9202    0.7910 H       1  UNL1        0.0624
     50 H          -0.6271    2.9256    1.9521 H       1  UNL1        0.1438
     51 H          -0.1279    4.3496    1.0067 H       1  UNL1        0.1438
     52 H           4.4592    3.6770    2.7926 H       1  UNL1        0.1066
     53 H           6.2545    0.7042   -0.6125 H       1  UNL1        0.0300
     54 H           5.6990    0.5673    1.1559 H       1  UNL1        0.0300
@<TRIPOS>BOND
     1     1     2    1
     2     2     3    1
     3     2     4    1
     4     4     5    1
     5     5     6    1
     6     6     7   ar
     7     7     8   ar
     8     8     9    1
     9     9    10   ar
    10    10    11   ar
    11    11    12   ar
    12    12    13   ar
    13    13    14   ar
    14    14    15   ar
    15    15    16    1
    16    16    17   ar
    17    17    18   ar
    18    18    19   ar
    19    19    20   ar
    20    20    21   ar
    21    15    22   ar
    22    22    23   ar
    23    23    24   ar
    24    24    25    1
    25     8    26   ar
    26    26    27   ar
    27    27    28    1
    28    27    29   ar
    29    29    30   ar
    30    30    31   ar
    31    31    32   ar
    32     5    33    1
    33    33     2    1
    34    32     6   ar
    35    24     9   ar
    36    32    26   ar
    37    23    12   ar
    38    21    16   ar
    39     1    34    1
    40     1    35    1
    41     1    36    1
    42     3    37    1
    43     4    38    1
    44     4    39    1
    45     5    40    1
    46    10    41    1
    47    11    42    1
    48    13    43    1
    49    14    44    1
    50    17    45    1
    51    18    46    1
    52    19    47    1
    53    20    48    1
    54    21    49    1
    55    28    50    1
    56    28    51    1
    57    30    52    1
    58    33    53    1
    59    33    54    1
