
     RDKit          3D

 56 59  0  0  0  0  0  0  0  0999 V2000
   10.6300   -2.0182    0.7995 C   0  0  0  0  0  0  0  0  0  0  0  0
    9.5853   -1.7766    0.5873 C   0  0  0  0  0  0  0  0  0  0  0  0
    8.2465   -1.4421    0.3080 C   0  0  0  0  0  0  0  0  0  0  0  0
    7.5405   -0.9214    1.4667 O   0  0  0  0  0  0  0  0  0  0  0  0
    6.2045   -0.5925    1.2150 C   0  0  0  0  0  0  0  0  0  0  0  0
    5.2949   -0.0589    2.0151 C   0  0  0  0  0  0  0  0  0  0  0  0
    4.0097    0.2496    1.7198 N   0  0  0  0  0  0  0  0  0  0  0  0
    3.5894   -0.0157    0.4345 C   0  0  0  0  0  0  0  0  0  0  0  0
    2.3334    0.4036   -0.0980 C   0  0  0  0  0  0  0  0  0  0  0  0
    1.4987    1.1692    0.6367 F   0  0  0  0  0  0  0  0  0  0  0  0
    1.9486    0.0597   -1.3297 C   0  0  0  0  0  0  0  0  0  0  0  0
    0.7043    0.4948   -1.8691 C   0  0  0  0  0  0  0  0  0  0  0  0
    0.7374    0.8592   -3.3696 C   0  0  0  0  0  0  0  0  0  0  0  0
   -0.3484    1.3840   -3.7371 N   0  0  0  0  0  0  0  0  0  0  0  0
   -1.4840    1.6907   -3.1802 C   0  0  0  0  0  0  0  0  0  0  0  0
   -2.5518    2.2317   -3.8095 F   0  0  0  0  0  0  0  0  0  0  0  0
   -1.6003    1.3802   -1.7919 C   0  0  0  0  0  0  0  0  0  0  0  0
   -2.6086    1.9559   -0.8837 C   0  0  1  0  0  0  0  0  0  0  0  0
   -2.0519    3.2162   -0.2829 C   0  0  0  0  0  0  0  0  0  0  0  0
   -3.8517    2.0736   -1.4090 N   0  0  0  0  0  0  0  0  0  0  0  0
   -4.9685    1.6037   -1.6225 C   0  0  0  0  0  0  0  0  0  0  0  0
   -6.0131    2.2250   -2.2857 N   0  0  0  0  0  0  0  0  0  0  0  0
   -5.1026   -0.0508   -0.9021 S   0  0  0  0  0  0  0  0  0  0  0  0
   -3.7399   -0.0839    0.2949 C   0  0  1  0  0  0  0  0  0  0  0  0
   -4.1749   -0.5688    1.6088 C   0  0  0  0  0  0  0  0  0  0  0  0
   -4.4039    0.4094    2.4877 O   0  0  0  0  0  0  0  0  0  0  0  0
   -4.3668   -1.8425    2.0341 N   0  0  0  0  0  0  0  0  0  0  0  0
   -4.1462   -3.0366    1.2800 C   0  0  0  0  0  0  0  0  0  0  0  0
   -4.8773   -2.0839    3.4037 C   0  0  0  0  0  0  0  0  0  0  0  0
   -2.3904   -0.5424   -0.1819 C   0  0  0  0  0  0  0  0  0  0  0  0
   -2.6628    0.8793    0.2593 C   0  0  1  0  0  0  0  0  0  0  0  0
   -0.4452    0.7975   -1.3040 C   0  0  0  0  0  0  0  0  0  0  0  0
    4.5108   -0.5715   -0.4006 C   0  0  0  0  0  0  0  0  0  0  0  0
    5.7524   -0.8535   -0.0645 N   0  0  0  0  0  0  0  0  0  0  0  0
   11.8205   -2.3015    1.0353 H   0  0  0  0  0  0  0  0  0  0  0  0
    7.6746   -2.1743   -0.2263 H   0  0  0  0  0  0  0  0  0  0  0  0
    8.3006   -0.5190   -0.4180 H   0  0  0  0  0  0  0  0  0  0  0  0
    5.6140    0.1738    3.0563 H   0  0  0  0  0  0  0  0  0  0  0  0
    2.6086   -0.6006   -1.9117 H   0  0  0  0  0  0  0  0  0  0  0  0
    1.6465    0.6311   -3.8274 H   0  0  0  0  0  0  0  0  0  0  0  0
   -1.0294    2.9771    0.1458 H   0  0  0  0  0  0  0  0  0  0  0  0
   -2.7272    3.6812    0.4275 H   0  0  0  0  0  0  0  0  0  0  0  0
   -1.8217    3.9387   -1.0892 H   0  0  0  0  0  0  0  0  0  0  0  0
   -6.9752    2.1614   -1.8991 H   0  0  0  0  0  0  0  0  0  0  0  0
   -5.8332    2.7656   -3.1893 H   0  0  0  0  0  0  0  0  0  0  0  0
   -4.0247   -2.7839    0.2045 H   0  0  0  0  0  0  0  0  0  0  0  0
   -5.0343   -3.7203    1.3839 H   0  0  0  0  0  0  0  0  0  0  0  0
   -3.2672   -3.6488    1.6490 H   0  0  0  0  0  0  0  0  0  0  0  0
   -4.8289   -1.0896    3.9049 H   0  0  0  0  0  0  0  0  0  0  0  0
   -5.9719   -2.3418    3.3419 H   0  0  0  0  0  0  0  0  0  0  0  0
   -4.3303   -2.8617    3.9095 H   0  0  0  0  0  0  0  0  0  0  0  0
   -2.3276   -0.8357   -1.2275 H   0  0  0  0  0  0  0  0  0  0  0  0
   -1.7823   -1.1493    0.5742 H   0  0  0  0  0  0  0  0  0  0  0  0
   -2.2508    1.2742    1.1970 H   0  0  0  0  0  0  0  0  0  0  0  0
   -0.5149    0.6172   -0.1657 H   0  0  0  0  0  0  0  0  0  0  0  0
    4.2570   -0.8178   -1.4320 H   0  0  0  0  0  0  0  0  0  0  0  0
  1  2  3  0
  2  3  1  0
  3  4  1  0
  4  5  1  0
  5  6  2  0
  6  7  1  0
  7  8  2  0
  8  9  1  0
  9 10  1  0
  9 11  2  0
 11 12  1  0
 12 13  2  0
 13 14  1  0
 14 15  2  0
 15 16  1  0
 15 17  1  0
 17 18  1  0
 18 19  1  1
 18 20  1  0
 20 21  2  0
 21 22  1  0
 21 23  1  0
 23 24  1  0
 24 25  1  1
 25 26  2  0
 25 27  1  0
 27 28  1  0
 27 29  1  0
 24 30  1  0
 30 31  1  0
 17 32  2  0
  8 33  1  0
 33 34  2  0
 34  5  1  0
 32 12  1  0
 31 18  1  0
 31 24  1  0
  1 35  1  0
  3 36  1  0
  3 37  1  0
  6 38  1  0
 11 39  1  0
 13 40  1  0
 19 41  1  0
 19 42  1  0
 19 43  1  0
 22 44  1  0
 22 45  1  0
 28 46  1  0
 28 47  1  0
 28 48  1  0
 29 49  1  0
 29 50  1  0
 29 51  1  0
 30 52  1  0
 30 53  1  0
 31 54  1  1
 32 55  1  0
 33 56  1  0
M  END
$$$$
