@<TRIPOS>MOLECULE
*****
 56 59 0 0 0
SMALL
GASTEIGER

@<TRIPOS>ATOM
      1 C          10.6300   -2.0182    0.7995 C.1     1  UNL1       -0.1158
      2 C           9.5853   -1.7766    0.5873 C.1     1  UNL1       -0.0647
      3 C           8.2465   -1.4421    0.3080 C.3     1  UNL1        0.1513
      4 O           7.5405   -0.9214    1.4667 O.3     1  UNL1       -0.4624
      5 C           6.2045   -0.5925    1.2150 C.ar    1  UNL1        0.2344
      6 C           5.2949   -0.0589    2.0151 C.ar    1  UNL1        0.0899
      7 N           4.0097    0.2496    1.7198 N.ar    1  UNL1       -0.2459
      8 C           3.5894   -0.0157    0.4345 C.ar    1  UNL1        0.1172
      9 C           2.3334    0.4036   -0.0980 C.2     1  UNL1        0.1507
     10 F           1.4987    1.1692    0.6367 F       1  UNL1       -0.2032
     11 C           1.9486    0.0597   -1.3297 C.2     1  UNL1       -0.0157
     12 C           0.7043    0.4948   -1.8691 C.ar    1  UNL1       -0.0036
     13 C           0.7374    0.8592   -3.3696 C.ar    1  UNL1        0.0379
     14 N          -0.3484    1.3840   -3.7371 N.ar    1  UNL1       -0.2267
     15 C          -1.4840    1.6907   -3.1802 C.ar    1  UNL1        0.2187
     16 F          -2.5518    2.2317   -3.8095 F       1  UNL1       -0.1835
     17 C          -1.6003    1.3802   -1.7919 C.ar    1  UNL1        0.0349
     18 C          -2.6086    1.9559   -0.8837 C.3     1  UNL1        0.0950
     19 C          -2.0519    3.2162   -0.2829 C.3     1  UNL1       -0.0351
     20 N          -3.8517    2.0736   -1.4090 N.2     1  UNL1       -0.2520
     21 C          -4.9685    1.6037   -1.6225 C.2     1  UNL1        0.1485
     22 N          -6.0131    2.2250   -2.2857 N.pl3   1  UNL1       -0.3380
     23 S          -5.1026   -0.0508   -0.9021 S.3     1  UNL1       -0.0746
     24 C          -3.7399   -0.0839    0.2949 C.3     1  UNL1        0.1054
     25 C          -4.1749   -0.5688    1.6088 C.2     1  UNL1        0.2319
     26 O          -4.4039    0.4094    2.4877 O.2     1  UNL1       -0.2741
     27 N          -4.3668   -1.8425    2.0341 N.am    1  UNL1       -0.3064
     28 C          -4.1462   -3.0366    1.2800 C.3     1  UNL1        0.0029
     29 C          -4.8773   -2.0839    3.4037 C.3     1  UNL1        0.0029
     30 C          -2.3904   -0.5424   -0.1819 C.3     1  UNL1       -0.0220
     31 C          -2.6628    0.8793    0.2593 C.3     1  UNL1        0.0135
     32 C          -0.4452    0.7975   -1.3040 C.ar    1  UNL1       -0.0433
     33 C           4.5108   -0.5715   -0.4006 C.ar    1  UNL1        0.0596
     34 N           5.7524   -0.8535   -0.0645 N.ar    1  UNL1       -0.2178
     35 H          11.8205   -2.3015    1.0353 H       1  UNL1        0.1229
     36 H           7.6746   -2.1743   -0.2263 H       1  UNL1        0.0837
     37 H           8.3006   -0.5190   -0.4180 H       1  UNL1        0.0837
     38 H           5.6140    0.1738    3.0563 H       1  UNL1        0.0884
     39 H           2.6086   -0.6006   -1.9117 H       1  UNL1        0.0653
     40 H           1.6465    0.6311   -3.8274 H       1  UNL1        0.0836
     41 H          -1.0294    2.9771    0.1458 H       1  UNL1        0.0256
     42 H          -2.7272    3.6812    0.4275 H       1  UNL1        0.0256
     43 H          -1.8217    3.9387   -1.0892 H       1  UNL1        0.0256
     44 H          -6.9752    2.1614   -1.8991 H       1  UNL1        0.1442
     45 H          -5.8332    2.7656   -3.1893 H       1  UNL1        0.1442
     46 H          -4.0247   -2.7839    0.2045 H       1  UNL1        0.0428
     47 H          -5.0343   -3.7203    1.3839 H       1  UNL1        0.0428
     48 H          -3.2672   -3.6488    1.6490 H       1  UNL1        0.0428
     49 H          -4.8289   -1.0896    3.9049 H       1  UNL1        0.0428
     50 H          -5.9719   -2.3418    3.3419 H       1  UNL1        0.0428
     51 H          -4.3303   -2.8617    3.9095 H       1  UNL1        0.0428
     52 H          -2.3276   -0.8357   -1.2275 H       1  UNL1        0.0287
     53 H          -1.7823   -1.1493    0.5742 H       1  UNL1        0.0287
     54 H          -2.2508    1.2742    1.1970 H       1  UNL1        0.0346
     55 H          -0.5149    0.6172   -0.1657 H       1  UNL1        0.0629
     56 H           4.2570   -0.8178   -1.4320 H       1  UNL1        0.0853
@<TRIPOS>BOND
     1     1     2    3
     2     2     3    1
     3     3     4    1
     4     4     5    1
     5     5     6   ar
     6     6     7   ar
     7     7     8   ar
     8     8     9    1
     9     9    10    1
    10     9    11    2
    11    11    12    1
    12    12    13   ar
    13    13    14   ar
    14    14    15   ar
    15    15    16    1
    16    15    17   ar
    17    17    18    1
    18    18    19    1
    19    18    20    1
    20    20    21    2
    21    21    22    1
    22    21    23    1
    23    23    24    1
    24    24    25    1
    25    25    26    2
    26    25    27   am
    27    27    28    1
    28    27    29    1
    29    24    30    1
    30    30    31    1
    31    17    32   ar
    32     8    33   ar
    33    33    34   ar
    34    34     5   ar
    35    32    12   ar
    36    31    18    1
    37    31    24    1
    38     1    35    1
    39     3    36    1
    40     3    37    1
    41     6    38    1
    42    11    39    1
    43    13    40    1
    44    19    41    1
    45    19    42    1
    46    19    43    1
    47    22    44    1
    48    22    45    1
    49    28    46    1
    50    28    47    1
    51    28    48    1
    52    29    49    1
    53    29    50    1
    54    29    51    1
    55    30    52    1
    56    30    53    1
    57    31    54    1
    58    32    55    1
    59    33    56    1
