@<TRIPOS>MOLECULE
*****
 82 84 0 0 0
SMALL
GASTEIGER

@<TRIPOS>ATOM
      1 C           0.4655    3.6126   -0.4649 C.3     1  UNL1       -0.0142
      2 C          -0.8081    2.8855   -0.1958 C.3     1  UNL1        0.0192
      3 N          -0.6128    1.5435   -0.7177 N.am    1  UNL1       -0.2878
      4 C           0.6502    1.4499   -1.4155 C.3     1  UNL1        0.1058
      5 C           1.5111    0.4892   -0.6270 C.2     1  UNL1        0.2344
      6 O           0.8345    0.2846    0.4211 O.2     1  UNL1       -0.2737
      7 N           2.7470    0.0573   -1.1409 N.am    1  UNL1       -0.3036
      8 C           3.6111   -0.8653   -0.4096 C.3     1  UNL1        0.0909
      9 C           5.0157   -0.3856   -0.2940 C.3     1  UNL1       -0.0242
     10 C           5.1904    0.9265    0.4107 C.3     1  UNL1       -0.0390
     11 C           6.6507    1.3253    0.4685 C.3     1  UNL1       -0.0501
     12 C           6.5576    1.5194    1.9534 C.3     1  UNL1       -0.0526
     13 C           5.1870    0.9107    1.9104 C.3     1  UNL1       -0.0501
     14 C           3.5419   -2.2275   -1.0245 C.2     1  UNL1        0.2369
     15 O           2.7006   -1.9220   -1.9366 O.2     1  UNL1       -0.2852
     16 C           4.3361   -3.3170   -0.4751 C.2     1  UNL1        0.2789
     17 N           3.9298   -4.3689   -1.3739 N.am    1  UNL1       -0.3229
     18 O           5.1473   -3.8928    0.2924 O.2     1  UNL1       -0.2672
     19 C           1.3143    2.7596   -1.3937 C.3     1  UNL1       -0.0037
     20 C           0.7334    4.0263   -1.8586 C.3     1  UNL1       -0.0250
     21 C           1.7124    5.1949   -1.9435 C.3     1  UNL1       -0.0592
     22 C          -0.3146    4.0931   -2.9224 C.3     1  UNL1       -0.0592
     23 C          -1.6402    0.6653   -0.4382 C.2     1  UNL1        0.2371
     24 O          -2.3675    1.4951    0.2170 O.2     1  UNL1       -0.2735
     25 C          -2.2568   -0.6230   -0.5093 C.3     1  UNL1        0.1058
     26 N          -3.5042   -0.5232    0.2761 N.am    1  UNL1       -0.2876
     27 C          -3.6940   -1.2504    1.5110 C.2     1  UNL1        0.3006
     28 O          -2.7141   -1.9622    1.8365 O.2     1  UNL1       -0.2528
     29 N          -4.9253   -1.1003    2.2200 N.am    1  UNL1       -0.2947
     30 C          -4.8775   -1.9251    3.4289 C.3     1  UNL1        0.0276
     31 C          -6.1718   -1.7775    4.1989 C.3     1  UNL1       -0.0442
     32 C          -4.6910   -3.3794    3.1531 C.3     1  UNL1       -0.0442
     33 C          -3.7972   -1.3584    4.3425 C.3     1  UNL1       -0.0442
     34 C          -2.6082   -1.2271   -1.8110 C.3     1  UNL1       -0.0108
     35 C          -1.3892   -1.4114   -2.6954 C.3     1  UNL1       -0.0579
     36 C          -3.1433   -2.6370   -1.6019 C.3     1  UNL1       -0.0579
     37 C          -3.6380   -0.5059   -2.6153 C.3     1  UNL1       -0.0579
     38 H           0.9991    4.0855    0.3895 H       1  UNL1        0.0325
     39 H          -1.1099    2.9041    0.8726 H       1  UNL1        0.0468
     40 H          -1.6155    3.3240   -0.8216 H       1  UNL1        0.0468
     41 H           0.5397    1.0058   -2.4376 H       1  UNL1        0.0600
     42 H           3.0258    0.4177   -2.0623 H       1  UNL1        0.1495
     43 H           3.1736   -0.9764    0.6002 H       1  UNL1        0.0582
     44 H           5.5405   -0.3048   -1.2683 H       1  UNL1        0.0290
     45 H           5.5601   -1.1518    0.3320 H       1  UNL1        0.0290
     46 H           4.5174    1.7069    0.0038 H       1  UNL1        0.0301
     47 H           7.3282    0.4668    0.2405 H       1  UNL1        0.0268
     48 H           6.8553    2.2008   -0.1547 H       1  UNL1        0.0268
     49 H           7.3260    0.9538    2.5464 H       1  UNL1        0.0265
     50 H           6.6076    2.6006    2.2000 H       1  UNL1        0.0265
     51 H           4.4392    1.5878    2.3826 H       1  UNL1        0.0268
     52 H           5.1745   -0.0873    2.4023 H       1  UNL1        0.0268
     53 H           3.6371   -5.1268   -2.0241 H       1  UNL1        0.1453
     54 H           3.5641   -5.3449   -1.4746 H       1  UNL1        0.1453
     55 H           2.4323    2.7338   -1.2286 H       1  UNL1        0.0332
     56 H           1.4354    5.9190   -1.1234 H       1  UNL1        0.0235
     57 H           2.7380    4.8603   -1.7687 H       1  UNL1        0.0235
     58 H           1.6738    5.7182   -2.9175 H       1  UNL1        0.0235
     59 H          -0.0805    4.8406   -3.7163 H       1  UNL1        0.0235
     60 H          -1.2536    4.4623   -2.4593 H       1  UNL1        0.0235
     61 H          -0.5669    3.1082   -3.3603 H       1  UNL1        0.0235
     62 H          -1.6164   -1.3434    0.0444 H       1  UNL1        0.0600
     63 H          -4.2326    0.1054   -0.1184 H       1  UNL1        0.1510
     64 H          -5.6916   -0.4840    1.8744 H       1  UNL1        0.1507
     65 H          -6.1699   -2.4623    5.0739 H       1  UNL1        0.0250
     66 H          -7.0725   -2.0420    3.6259 H       1  UNL1        0.0250
     67 H          -6.2818   -0.7476    4.6193 H       1  UNL1        0.0250
     68 H          -4.0324   -3.8124    3.9631 H       1  UNL1        0.0250
     69 H          -5.6401   -3.9812    3.2614 H       1  UNL1        0.0250
     70 H          -4.2942   -3.6447    2.1750 H       1  UNL1        0.0250
     71 H          -3.8622   -0.2542    4.2587 H       1  UNL1        0.0250
     72 H          -2.7972   -1.7414    4.1399 H       1  UNL1        0.0250
     73 H          -4.0367   -1.5720    5.4259 H       1  UNL1        0.0250
     74 H          -0.5275   -1.8560   -2.1768 H       1  UNL1        0.0236
     75 H          -1.1511   -0.4665   -3.2444 H       1  UNL1        0.0236
     76 H          -1.7001   -2.1569   -3.4835 H       1  UNL1        0.0236
     77 H          -4.2554   -2.6380   -1.6578 H       1  UNL1        0.0236
     78 H          -2.8251   -3.3383   -2.4043 H       1  UNL1        0.0236
     79 H          -2.7773   -3.0660   -0.6560 H       1  UNL1        0.0236
     80 H          -3.4977    0.6022   -2.5672 H       1  UNL1        0.0236
     81 H          -3.4887   -0.7557   -3.6867 H       1  UNL1        0.0236
     82 H          -4.6739   -0.8281   -2.3957 H       1  UNL1        0.0236
@<TRIPOS>BOND
     1     1     2    1
     2     2     3    1
     3     3     4    1
     4     4     5    1
     5     5     6    2
     6     5     7   am
     7     7     8    1
     8     8     9    1
     9     9    10    1
    10    10    11    1
    11    11    12    1
    12    12    13    1
    13     8    14    1
    14    14    15    2
    15    14    16    1
    16    16    17   am
    17    16    18    2
    18     4    19    1
    19    19    20    1
    20    20    21    1
    21    20    22    1
    22     3    23   am
    23    23    24    2
    24    23    25    1
    25    25    26    1
    26    26    27   am
    27    27    28    2
    28    27    29   am
    29    29    30    1
    30    30    31    1
    31    30    32    1
    32    30    33    1
    33    25    34    1
    34    34    35    1
    35    34    36    1
    36    34    37    1
    37    19     1    1
    38    20     1    1
    39    13    10    1
    40     1    38    1
    41     2    39    1
    42     2    40    1
    43     4    41    1
    44     7    42    1
    45     8    43    1
    46     9    44    1
    47     9    45    1
    48    10    46    1
    49    11    47    1
    50    11    48    1
    51    12    49    1
    52    12    50    1
    53    13    51    1
    54    13    52    1
    55    17    53    1
    56    17    54    1
    57    19    55    1
    58    21    56    1
    59    21    57    1
    60    21    58    1
    61    22    59    1
    62    22    60    1
    63    22    61    1
    64    25    62    1
    65    26    63    1
    66    29    64    1
    67    31    65    1
    68    31    66    1
    69    31    67    1
    70    32    68    1
    71    32    69    1
    72    32    70    1
    73    33    71    1
    74    33    72    1
    75    33    73    1
    76    35    74    1
    77    35    75    1
    78    35    76    1
    79    36    77    1
    80    36    78    1
    81    36    79    1
    82    37    80    1
    83    37    81    1
    84    37    82    1
