@<TRIPOS>MOLECULE
*****
 49 52 0 0 0
SMALL
GASTEIGER

@<TRIPOS>ATOM
      1 C           7.8819   -1.8294   -1.6178 C.3     1  UNL1       -0.0653
      2 C           7.2483   -1.2060   -0.4165 C.3     1  UNL1       -0.0559
      3 C           5.7645   -0.9930   -0.6190 C.3     1  UNL1       -0.0533
      4 C           5.1734   -0.3518    0.6458 C.3     1  UNL1       -0.0528
      5 C           3.6857   -0.1841    0.3333 C.3     1  UNL1       -0.0491
      6 C           2.9546    0.4435    1.4974 C.3     1  UNL1       -0.0276
      7 C           1.5260    0.5687    1.1112 C.ar    1  UNL1       -0.0454
      8 C           0.6865   -0.5087    1.4134 C.ar    1  UNL1       -0.0578
      9 C          -0.6500   -0.4173    1.0640 C.ar    1  UNL1       -0.0503
     10 C          -1.1585    0.6998    0.4336 C.ar    1  UNL1        0.0260
     11 C          -0.2922    1.7349    0.1570 C.ar    1  UNL1        0.0516
     12 C           1.0469    1.6968    0.4825 C.ar    1  UNL1       -0.0345
     13 N          -0.8015    2.8211   -0.4594 N.ar    1  UNL1       -0.3203
     14 C          -2.1114    2.9164   -0.8045 C.ar    1  UNL1        0.2748
     15 O          -2.5484    3.9475   -1.3790 O.2     1  UNL1       -0.2656
     16 C          -2.9841    1.8795   -0.5286 C.ar    1  UNL1        0.1322
     17 N          -4.3265    1.7247   -0.7662 N.ar    1  UNL1       -0.3336
     18 C          -4.6669    0.5377   -0.2989 C.ar    1  UNL1        0.1408
     19 C          -5.9508   -0.1231   -0.2904 C.ar    1  UNL1        0.0356
     20 C          -6.0577   -1.4050    0.2743 C.ar    1  UNL1       -0.0497
     21 C          -7.2404   -2.0662    0.3062 C.ar    1  UNL1       -0.0610
     22 C          -8.4015   -1.5369   -0.2043 C.ar    1  UNL1       -0.0603
     23 C          -8.3340   -0.2976   -0.7585 C.ar    1  UNL1       -0.0427
     24 C          -7.1056    0.3937   -0.7937 C.ar    1  UNL1        0.0516
     25 CL         -7.1096    1.9975   -1.5319 Cl      1  UNL1       -0.0828
     26 N          -3.5446   -0.0462    0.2277 N.ar    1  UNL1       -0.2269
     27 C          -2.4953    0.7634    0.0969 C.ar    1  UNL1        0.1039
     28 H           7.2508   -2.6383   -2.0496 H       1  UNL1        0.0230
     29 H           8.1213   -1.0420   -2.3602 H       1  UNL1        0.0230
     30 H           8.8200   -2.3376   -1.2810 H       1  UNL1        0.0230
     31 H           7.7183   -0.2295   -0.2253 H       1  UNL1        0.0263
     32 H           7.4071   -1.8492    0.4482 H       1  UNL1        0.0263
     33 H           5.2424   -1.9447   -0.8428 H       1  UNL1        0.0265
     34 H           5.5458   -0.2982   -1.4466 H       1  UNL1        0.0265
     35 H           5.3241   -1.0029    1.5250 H       1  UNL1        0.0265
     36 H           5.5642    0.6745    0.7792 H       1  UNL1        0.0265
     37 H           3.6416    0.4483   -0.5776 H       1  UNL1        0.0268
     38 H           3.2987   -1.2099    0.1601 H       1  UNL1        0.0268
     39 H           3.4104    1.3961    1.7796 H       1  UNL1        0.0313
     40 H           3.0376   -0.2410    2.3646 H       1  UNL1        0.0313
     41 H           1.0543   -1.4007    1.9080 H       1  UNL1        0.0620
     42 H          -1.3564   -1.2171    1.2692 H       1  UNL1        0.0625
     43 H           1.7409    2.4982    0.2738 H       1  UNL1        0.0641
     44 H          -0.1292    3.6026   -0.6640 H       1  UNL1        0.1690
     45 H          -4.9105    2.4728   -1.2443 H       1  UNL1        0.1675
     46 H          -5.1483   -1.8428    0.6848 H       1  UNL1        0.0625
     47 H          -7.2847   -3.0666    0.7559 H       1  UNL1        0.0618
     48 H          -9.3317   -2.1148   -0.1526 H       1  UNL1        0.0618
     49 H          -9.2058    0.1830   -1.1800 H       1  UNL1        0.0632
@<TRIPOS>BOND
     1     1     2    1
     2     2     3    1
     3     3     4    1
     4     4     5    1
     5     5     6    1
     6     6     7    1
     7     7     8   ar
     8     8     9   ar
     9     9    10   ar
    10    10    11   ar
    11    11    12   ar
    12    11    13   ar
    13    13    14   ar
    14    14    15    2
    15    14    16   ar
    16    16    17   ar
    17    17    18   ar
    18    18    19    1
    19    19    20   ar
    20    20    21   ar
    21    21    22   ar
    22    22    23   ar
    23    23    24   ar
    24    24    25    1
    25    18    26   ar
    26    26    27   ar
    27    12     7   ar
    28    27    16   ar
    29    27    10   ar
    30    24    19   ar
    31     1    28    1
    32     1    29    1
    33     1    30    1
    34     2    31    1
    35     2    32    1
    36     3    33    1
    37     3    34    1
    38     4    35    1
    39     4    36    1
    40     5    37    1
    41     5    38    1
    42     6    39    1
    43     6    40    1
    44     8    41    1
    45     9    42    1
    46    12    43    1
    47    13    44    1
    48    17    45    1
    49    20    46    1
    50    21    47    1
    51    22    48    1
    52    23    49    1
