
     RDKit          3D

 49 52  0  0  0  0  0  0  0  0999 V2000
    7.8819   -1.8294   -1.6178 C   0  0  0  0  0  0  0  0  0  0  0  0
    7.2483   -1.2060   -0.4165 C   0  0  0  0  0  0  0  0  0  0  0  0
    5.7645   -0.9930   -0.6190 C   0  0  0  0  0  0  0  0  0  0  0  0
    5.1734   -0.3518    0.6458 C   0  0  0  0  0  0  0  0  0  0  0  0
    3.6857   -0.1841    0.3333 C   0  0  0  0  0  0  0  0  0  0  0  0
    2.9546    0.4435    1.4974 C   0  0  0  0  0  0  0  0  0  0  0  0
    1.5260    0.5687    1.1112 C   0  0  0  0  0  0  0  0  0  0  0  0
    0.6865   -0.5087    1.4134 C   0  0  0  0  0  0  0  0  0  0  0  0
   -0.6500   -0.4173    1.0640 C   0  0  0  0  0  0  0  0  0  0  0  0
   -1.1585    0.6998    0.4336 C   0  0  0  0  0  0  0  0  0  0  0  0
   -0.2922    1.7349    0.1570 C   0  0  0  0  0  0  0  0  0  0  0  0
    1.0469    1.6968    0.4825 C   0  0  0  0  0  0  0  0  0  0  0  0
   -0.8015    2.8211   -0.4594 N   0  0  0  0  0  0  0  0  0  0  0  0
   -2.1114    2.9164   -0.8045 C   0  0  0  0  0  0  0  0  0  0  0  0
   -2.5484    3.9475   -1.3790 O   0  0  0  0  0  0  0  0  0  0  0  0
   -2.9841    1.8795   -0.5286 C   0  0  0  0  0  0  0  0  0  0  0  0
   -4.3265    1.7247   -0.7662 N   0  0  0  0  0  0  0  0  0  0  0  0
   -4.6669    0.5377   -0.2989 C   0  0  0  0  0  0  0  0  0  0  0  0
   -5.9508   -0.1231   -0.2904 C   0  0  0  0  0  0  0  0  0  0  0  0
   -6.0577   -1.4050    0.2743 C   0  0  0  0  0  0  0  0  0  0  0  0
   -7.2404   -2.0662    0.3062 C   0  0  0  0  0  0  0  0  0  0  0  0
   -8.4015   -1.5369   -0.2043 C   0  0  0  0  0  0  0  0  0  0  0  0
   -8.3340   -0.2976   -0.7585 C   0  0  0  0  0  0  0  0  0  0  0  0
   -7.1056    0.3937   -0.7937 C   0  0  0  0  0  0  0  0  0  0  0  0
   -7.1096    1.9975   -1.5319 Cl  0  0  0  0  0  0  0  0  0  0  0  0
   -3.5446   -0.0462    0.2277 N   0  0  0  0  0  0  0  0  0  0  0  0
   -2.4953    0.7634    0.0969 C   0  0  0  0  0  0  0  0  0  0  0  0
    7.2508   -2.6383   -2.0496 H   0  0  0  0  0  0  0  0  0  0  0  0
    8.1213   -1.0420   -2.3602 H   0  0  0  0  0  0  0  0  0  0  0  0
    8.8200   -2.3376   -1.2810 H   0  0  0  0  0  0  0  0  0  0  0  0
    7.7183   -0.2295   -0.2253 H   0  0  0  0  0  0  0  0  0  0  0  0
    7.4071   -1.8492    0.4482 H   0  0  0  0  0  0  0  0  0  0  0  0
    5.2424   -1.9447   -0.8428 H   0  0  0  0  0  0  0  0  0  0  0  0
    5.5458   -0.2982   -1.4466 H   0  0  0  0  0  0  0  0  0  0  0  0
    5.3241   -1.0029    1.5250 H   0  0  0  0  0  0  0  0  0  0  0  0
    5.5642    0.6745    0.7792 H   0  0  0  0  0  0  0  0  0  0  0  0
    3.6416    0.4483   -0.5776 H   0  0  0  0  0  0  0  0  0  0  0  0
    3.2987   -1.2099    0.1601 H   0  0  0  0  0  0  0  0  0  0  0  0
    3.4104    1.3961    1.7796 H   0  0  0  0  0  0  0  0  0  0  0  0
    3.0376   -0.2410    2.3646 H   0  0  0  0  0  0  0  0  0  0  0  0
    1.0543   -1.4007    1.9080 H   0  0  0  0  0  0  0  0  0  0  0  0
   -1.3564   -1.2171    1.2692 H   0  0  0  0  0  0  0  0  0  0  0  0
    1.7409    2.4982    0.2738 H   0  0  0  0  0  0  0  0  0  0  0  0
   -0.1292    3.6026   -0.6640 H   0  0  0  0  0  0  0  0  0  0  0  0
   -4.9105    2.4728   -1.2443 H   0  0  0  0  0  0  0  0  0  0  0  0
   -5.1483   -1.8428    0.6848 H   0  0  0  0  0  0  0  0  0  0  0  0
   -7.2847   -3.0666    0.7559 H   0  0  0  0  0  0  0  0  0  0  0  0
   -9.3317   -2.1148   -0.1526 H   0  0  0  0  0  0  0  0  0  0  0  0
   -9.2058    0.1830   -1.1800 H   0  0  0  0  0  0  0  0  0  0  0  0
  1  2  1  0
  2  3  1  0
  3  4  1  0
  4  5  1  0
  5  6  1  0
  6  7  1  0
  7  8  2  0
  8  9  1  0
  9 10  2  0
 10 11  1  0
 11 12  2  0
 11 13  1  0
 13 14  1  0
 14 15  2  0
 14 16  1  0
 16 17  1  0
 17 18  1  0
 18 19  1  0
 19 20  2  0
 20 21  1  0
 21 22  2  0
 22 23  1  0
 23 24  2  0
 24 25  1  0
 18 26  2  0
 26 27  1  0
 12  7  1  0
 27 16  2  0
 27 10  1  0
 24 19  1  0
  1 28  1  0
  1 29  1  0
  1 30  1  0
  2 31  1  0
  2 32  1  0
  3 33  1  0
  3 34  1  0
  4 35  1  0
  4 36  1  0
  5 37  1  0
  5 38  1  0
  6 39  1  0
  6 40  1  0
  8 41  1  0
  9 42  1  0
 12 43  1  0
 13 44  1  0
 17 45  1  0
 20 46  1  0
 21 47  1  0
 22 48  1  0
 23 49  1  0
M  END
$$$$
