@<TRIPOS>MOLECULE
*****
 59 61 0 0 0
SMALL
GASTEIGER

@<TRIPOS>ATOM
      1 C           0.0785   -1.3210   -0.7724 C.3     1  UNL1        0.1022
      2 C           0.7271   -1.7679   -2.0902 C.3     1  UNL1       -0.0243
      3 C           0.2686   -0.7083   -3.0971 C.3     1  UNL1       -0.0350
      4 C          -1.1937   -0.5681   -2.6550 C.3     1  UNL1        0.0156
      5 N          -1.0431   -0.5196   -1.2113 N.am    1  UNL1       -0.2889
      6 C          -1.9852    0.2561   -0.4878 C.2     1  UNL1        0.2301
      7 O          -2.6294    0.6029   -1.4968 O.2     1  UNL1       -0.2742
      8 C          -2.1966    0.5824    0.9242 C.3     1  UNL1        0.0736
      9 N          -3.3669    1.4341    1.1210 N.3     1  UNL1       -0.3054
     10 C          -4.5879    0.6954    0.8482 C.3     1  UNL1        0.0081
     11 C          -5.7865    1.5736    1.0123 C.3     1  UNL1       -0.0375
     12 C          -6.9812    0.9714    1.6435 C.3     1  UNL1       -0.0516
     13 C          -7.0661   -0.4876    1.1726 C.3     1  UNL1       -0.0530
     14 C          -5.9360   -1.1493    1.9402 C.3     1  UNL1       -0.0516
     15 C          -4.6098   -0.5590    1.6618 C.3     1  UNL1       -0.0375
     16 C           1.0399   -0.6289    0.0859 C.2     1  UNL1        0.2338
     17 O           1.1793    0.5530    0.4899 O.2     1  UNL1       -0.2738
     18 N           2.0803   -1.4885    0.6020 N.am    1  UNL1       -0.3097
     19 C           3.1445   -1.0408    1.4740 C.3     1  UNL1        0.0369
     20 C           4.2255   -0.3136    0.8084 C.ar    1  UNL1       -0.0303
     21 C           5.2345   -1.1615    0.3302 C.ar    1  UNL1       -0.0563
     22 C           6.3643   -0.6902   -0.3295 C.ar    1  UNL1       -0.0466
     23 C           6.5202    0.6618   -0.5333 C.ar    1  UNL1        0.0647
     24 C           5.5332    1.5033   -0.0669 C.ar    1  UNL1       -0.0466
     25 C           4.4157    1.0327    0.5862 C.ar    1  UNL1       -0.0563
     26 C           7.7045    1.1562   -1.2241 C.2     1  UNL1        0.3081
     27 N           8.2711    2.4453   -0.9343 N.pl3   1  UNL1       -0.2466
     28 N           8.1969    0.3407   -2.1113 N.2     1  UNL1       -0.0994
     29 H          -0.3415   -2.2451   -0.2885 H       1  UNL1        0.0597
     30 H           0.2972   -2.7271   -2.4322 H       1  UNL1        0.0288
     31 H           1.8369   -1.8057   -2.0138 H       1  UNL1        0.0288
     32 H           0.3485   -1.0336   -4.1315 H       1  UNL1        0.0281
     33 H           0.7399    0.2702   -2.8766 H       1  UNL1        0.0281
     34 H          -1.7448   -1.5210   -2.8910 H       1  UNL1        0.0465
     35 H          -1.6598    0.3085   -3.1020 H       1  UNL1        0.0465
     36 H          -1.3365    1.2068    1.2731 H       1  UNL1        0.0520
     37 H          -2.2237   -0.2934    1.5997 H       1  UNL1        0.0520
     38 H          -3.2797    2.2838    0.5319 H       1  UNL1        0.1226
     39 H          -4.5392    0.4041   -0.2190 H       1  UNL1        0.0460
     40 H          -5.4822    2.4697    1.6015 H       1  UNL1        0.0280
     41 H          -6.0938    2.0079    0.0157 H       1  UNL1        0.0280
     42 H          -6.9809    0.9541    2.7565 H       1  UNL1        0.0266
     43 H          -7.8975    1.4458    1.2360 H       1  UNL1        0.0266
     44 H          -7.9964   -0.9273    1.5443 H       1  UNL1        0.0265
     45 H          -6.8999   -0.5392    0.0929 H       1  UNL1        0.0265
     46 H          -5.9641   -2.2287    1.7310 H       1  UNL1        0.0266
     47 H          -6.2202   -1.0309    3.0211 H       1  UNL1        0.0266
     48 H          -4.1218   -0.3146    2.6447 H       1  UNL1        0.0280
     49 H          -3.9552   -1.3406    1.2171 H       1  UNL1        0.0280
     50 H           2.0982   -2.5185    0.3464 H       1  UNL1        0.1491
     51 H           3.5234   -1.9160    2.0392 H       1  UNL1        0.0512
     52 H           2.6535   -0.3575    2.2083 H       1  UNL1        0.0512
     53 H           5.2313   -2.2457    0.4273 H       1  UNL1        0.0621
     54 H           7.1431   -1.3369   -0.6992 H       1  UNL1        0.0626
     55 H           5.6232    2.5797   -0.2121 H       1  UNL1        0.0626
     56 H           3.6274    1.6429    0.9673 H       1  UNL1        0.0621
     57 H           8.6074    2.2907    0.0586 H       1  UNL1        0.2884
     58 H           8.3480    3.3155   -1.5155 H       1  UNL1        0.2884
     59 H           9.0569    0.6845   -2.6220 H       1  UNL1        0.3633
@<TRIPOS>BOND
     1     1     2    1
     2     2     3    1
     3     3     4    1
     4     4     5    1
     5     5     6   am
     6     6     7    2
     7     6     8    1
     8     8     9    1
     9     9    10    1
    10    10    11    1
    11    11    12    1
    12    12    13    1
    13    13    14    1
    14    14    15    1
    15     1    16    1
    16    16    17    2
    17    16    18   am
    18    18    19    1
    19    19    20    1
    20    20    21   ar
    21    21    22   ar
    22    22    23   ar
    23    23    24   ar
    24    24    25   ar
    25    23    26    1
    26    26    27    1
    27    26    28    2
    28     5     1    1
    29    15    10    1
    30    25    20   ar
    31     1    29    1
    32     2    30    1
    33     2    31    1
    34     3    32    1
    35     3    33    1
    36     4    34    1
    37     4    35    1
    38     8    36    1
    39     8    37    1
    40     9    38    1
    41    10    39    1
    42    11    40    1
    43    11    41    1
    44    12    42    1
    45    12    43    1
    46    13    44    1
    47    13    45    1
    48    14    46    1
    49    14    47    1
    50    15    48    1
    51    15    49    1
    52    18    50    1
    53    19    51    1
    54    19    52    1
    55    21    53    1
    56    22    54    1
    57    24    55    1
    58    25    56    1
    59    27    57    1
    60    27    58    1
    61    28    59    1
