@<TRIPOS>MOLECULE
*****
 70 72 0 0 0
SMALL
GASTEIGER

@<TRIPOS>ATOM
      1 C          -5.3911    3.7194    3.1212 C.3     1  UNL1        0.0788
      2 O          -4.2121    2.9805    2.9061 O.3     1  UNL1       -0.4950
      3 C          -3.7063    2.7676    1.6322 C.ar    1  UNL1        0.1241
      4 C          -4.3203    3.2620    0.4992 C.ar    1  UNL1        0.0218
      5 C          -3.7935    3.0341   -0.7569 C.ar    1  UNL1        0.1241
      6 O          -4.4677    3.5637   -1.8450 O.3     1  UNL1       -0.4950
      7 C          -5.6568    4.3154   -1.7130 C.3     1  UNL1        0.0788
      8 C          -2.6534    2.3080   -0.8374 C.ar    1  UNL1       -0.0119
      9 C          -1.9795    1.7769    0.2705 C.ar    1  UNL1       -0.0077
     10 C          -0.7523    1.0221    0.1080 C.ar    1  UNL1        0.0232
     11 C           0.3071    1.5623   -0.6315 C.ar    1  UNL1       -0.0401
     12 C           1.4692    0.8468   -0.7774 C.ar    1  UNL1        0.0193
     13 C           2.5051    1.3880   -1.5073 C.ar    1  UNL1        0.0389
     14 N           3.6366    0.6821   -1.6450 N.ar    1  UNL1       -0.2398
     15 C           3.7886   -0.5500   -1.0852 C.ar    1  UNL1        0.1207
     16 N           4.9918   -1.2953   -1.2344 N.pl3   1  UNL1       -0.3290
     17 C           6.0193   -1.1073   -0.2451 C.3     1  UNL1        0.0104
     18 C           7.2280   -1.9437   -0.5151 C.3     1  UNL1       -0.0374
     19 C           7.8615   -1.6345   -1.8456 C.3     1  UNL1       -0.0496
     20 C           8.3117   -0.2047   -1.9558 C.3     1  UNL1       -0.0297
     21 C           9.3382    0.1480   -0.8980 C.3     1  UNL1        0.0442
     22 O          10.4733   -0.6441   -0.9994 O.3     1  UNL1       -0.3950
     23 C           2.7498   -1.0921   -0.3537 C.ar    1  UNL1        0.0041
     24 C           1.5717   -0.4092   -0.1838 C.ar    1  UNL1        0.0778
     25 N           0.5501   -0.9163    0.5221 N.ar    1  UNL1       -0.2310
     26 C          -0.6168   -0.2130    0.6762 C.ar    1  UNL1        0.1345
     27 N          -1.6970   -0.7692    1.4040 N.am    1  UNL1       -0.2537
     28 C          -2.7406   -1.5085    0.8167 C.2     1  UNL1        0.3053
     29 O          -2.7590   -1.6962   -0.4212 O.2     1  UNL1       -0.2525
     30 N          -3.8215   -2.0799    1.5731 N.am    1  UNL1       -0.2944
     31 C          -4.8568   -2.8219    0.9312 C.3     1  UNL1        0.0276
     32 C          -4.2982   -4.0342    0.2017 C.3     1  UNL1       -0.0442
     33 C          -5.8173   -3.3363    1.9684 C.3     1  UNL1       -0.0442
     34 C          -5.6276   -2.0165   -0.0845 C.3     1  UNL1       -0.0442
     35 C          -2.5280    2.0214    1.5049 C.ar    1  UNL1       -0.0119
     36 H          -6.1914    3.2604    2.5110 H       1  UNL1        0.0660
     37 H          -5.6630    3.6369    4.1778 H       1  UNL1        0.0660
     38 H          -5.2653    4.7960    2.8834 H       1  UNL1        0.0660
     39 H          -5.2319    3.8357    0.6401 H       1  UNL1        0.0691
     40 H          -5.9464    4.8189   -2.6411 H       1  UNL1        0.0660
     41 H          -6.4180    3.6662   -1.2706 H       1  UNL1        0.0660
     42 H          -5.4250    5.1128   -0.9499 H       1  UNL1        0.0660
     43 H          -2.2083    2.1064   -1.7953 H       1  UNL1        0.0660
     44 H           0.1936    2.5309   -1.0742 H       1  UNL1        0.0632
     45 H           2.4195    2.3618   -1.9651 H       1  UNL1        0.0837
     46 H           5.0593   -1.9308   -2.0468 H       1  UNL1        0.1474
     47 H           5.6301   -1.3899    0.7596 H       1  UNL1        0.0461
     48 H           6.2435   -0.0233   -0.2009 H       1  UNL1        0.0461
     49 H           7.9375   -1.8834    0.3142 H       1  UNL1        0.0280
     50 H           6.8882   -3.0088   -0.5642 H       1  UNL1        0.0280
     51 H           8.6962   -2.3176   -2.0045 H       1  UNL1        0.0266
     52 H           7.1142   -1.8097   -2.6462 H       1  UNL1        0.0266
     53 H           7.4821    0.5110   -1.9804 H       1  UNL1        0.0287
     54 H           8.8374   -0.1169   -2.9459 H       1  UNL1        0.0287
     55 H           8.9368    0.0265    0.1237 H       1  UNL1        0.0557
     56 H           9.6303    1.2032   -1.0411 H       1  UNL1        0.0557
     57 H          11.0333   -0.4584   -0.2031 H       1  UNL1        0.2094
     58 H           2.8840   -2.0832    0.0914 H       1  UNL1        0.0673
     59 H          -1.7189   -0.6363    2.4344 H       1  UNL1        0.1578
     60 H          -3.8449   -1.9476    2.6046 H       1  UNL1        0.1508
     61 H          -4.1928   -3.8619   -0.8841 H       1  UNL1        0.0250
     62 H          -4.9842   -4.9218    0.3053 H       1  UNL1        0.0250
     63 H          -3.3050   -4.2418    0.6412 H       1  UNL1        0.0250
     64 H          -5.2872   -4.0831    2.6072 H       1  UNL1        0.0250
     65 H          -6.7031   -3.8363    1.5417 H       1  UNL1        0.0250
     66 H          -6.0801   -2.4980    2.6499 H       1  UNL1        0.0250
     67 H          -6.0214   -1.0715    0.3074 H       1  UNL1        0.0250
     68 H          -5.0184   -1.8979   -1.0120 H       1  UNL1        0.0250
     69 H          -6.5074   -2.6392   -0.3868 H       1  UNL1        0.0250
     70 H          -2.0794    1.6654    2.4192 H       1  UNL1        0.0660
@<TRIPOS>BOND
     1     1     2    1
     2     2     3    1
     3     3     4   ar
     4     4     5   ar
     5     5     6    1
     6     6     7    1
     7     5     8   ar
     8     8     9   ar
     9     9    10    1
    10    10    11   ar
    11    11    12   ar
    12    12    13   ar
    13    13    14   ar
    14    14    15   ar
    15    15    16    1
    16    16    17    1
    17    17    18    1
    18    18    19    1
    19    19    20    1
    20    20    21    1
    21    21    22    1
    22    15    23   ar
    23    23    24   ar
    24    24    25   ar
    25    25    26   ar
    26    26    27    1
    27    27    28   am
    28    28    29    2
    29    28    30   am
    30    30    31    1
    31    31    32    1
    32    31    33    1
    33    31    34    1
    34     9    35   ar
    35    35     3   ar
    36    26    10   ar
    37    24    12   ar
    38     1    36    1
    39     1    37    1
    40     1    38    1
    41     4    39    1
    42     7    40    1
    43     7    41    1
    44     7    42    1
    45     8    43    1
    46    11    44    1
    47    13    45    1
    48    16    46    1
    49    17    47    1
    50    17    48    1
    51    18    49    1
    52    18    50    1
    53    19    51    1
    54    19    52    1
    55    20    53    1
    56    20    54    1
    57    21    55    1
    58    21    56    1
    59    22    57    1
    60    23    58    1
    61    27    59    1
    62    30    60    1
    63    32    61    1
    64    32    62    1
    65    32    63    1
    66    33    64    1
    67    33    65    1
    68    33    66    1
    69    34    67    1
    70    34    68    1
    71    34    69    1
    72    35    70    1
