
     RDKit          3D

 70 72  0  0  0  0  0  0  0  0999 V2000
   -5.3911    3.7194    3.1212 C   0  0  0  0  0  0  0  0  0  0  0  0
   -4.2121    2.9805    2.9061 O   0  0  0  0  0  0  0  0  0  0  0  0
   -3.7063    2.7676    1.6322 C   0  0  0  0  0  0  0  0  0  0  0  0
   -4.3203    3.2620    0.4992 C   0  0  0  0  0  0  0  0  0  0  0  0
   -3.7935    3.0341   -0.7569 C   0  0  0  0  0  0  0  0  0  0  0  0
   -4.4677    3.5637   -1.8450 O   0  0  0  0  0  0  0  0  0  0  0  0
   -5.6568    4.3154   -1.7130 C   0  0  0  0  0  0  0  0  0  0  0  0
   -2.6534    2.3080   -0.8374 C   0  0  0  0  0  0  0  0  0  0  0  0
   -1.9795    1.7769    0.2705 C   0  0  0  0  0  0  0  0  0  0  0  0
   -0.7523    1.0221    0.1080 C   0  0  0  0  0  0  0  0  0  0  0  0
    0.3071    1.5623   -0.6315 C   0  0  0  0  0  0  0  0  0  0  0  0
    1.4692    0.8468   -0.7774 C   0  0  0  0  0  0  0  0  0  0  0  0
    2.5051    1.3880   -1.5073 C   0  0  0  0  0  0  0  0  0  0  0  0
    3.6366    0.6821   -1.6450 N   0  0  0  0  0  0  0  0  0  0  0  0
    3.7886   -0.5500   -1.0852 C   0  0  0  0  0  0  0  0  0  0  0  0
    4.9918   -1.2953   -1.2344 N   0  0  0  0  0  0  0  0  0  0  0  0
    6.0193   -1.1073   -0.2451 C   0  0  0  0  0  0  0  0  0  0  0  0
    7.2280   -1.9437   -0.5151 C   0  0  0  0  0  0  0  0  0  0  0  0
    7.8615   -1.6345   -1.8456 C   0  0  0  0  0  0  0  0  0  0  0  0
    8.3117   -0.2047   -1.9558 C   0  0  0  0  0  0  0  0  0  0  0  0
    9.3382    0.1480   -0.8980 C   0  0  0  0  0  0  0  0  0  0  0  0
   10.4733   -0.6441   -0.9994 O   0  0  0  0  0  0  0  0  0  0  0  0
    2.7498   -1.0921   -0.3537 C   0  0  0  0  0  0  0  0  0  0  0  0
    1.5717   -0.4092   -0.1838 C   0  0  0  0  0  0  0  0  0  0  0  0
    0.5501   -0.9163    0.5221 N   0  0  0  0  0  0  0  0  0  0  0  0
   -0.6168   -0.2130    0.6762 C   0  0  0  0  0  0  0  0  0  0  0  0
   -1.6970   -0.7692    1.4040 N   0  0  0  0  0  0  0  0  0  0  0  0
   -2.7406   -1.5085    0.8167 C   0  0  0  0  0  0  0  0  0  0  0  0
   -2.7590   -1.6962   -0.4212 O   0  0  0  0  0  0  0  0  0  0  0  0
   -3.8215   -2.0799    1.5731 N   0  0  0  0  0  0  0  0  0  0  0  0
   -4.8568   -2.8219    0.9312 C   0  0  0  0  0  0  0  0  0  0  0  0
   -4.2982   -4.0342    0.2017 C   0  0  0  0  0  0  0  0  0  0  0  0
   -5.8173   -3.3363    1.9684 C   0  0  0  0  0  0  0  0  0  0  0  0
   -5.6276   -2.0165   -0.0845 C   0  0  0  0  0  0  0  0  0  0  0  0
   -2.5280    2.0214    1.5049 C   0  0  0  0  0  0  0  0  0  0  0  0
   -6.1914    3.2604    2.5110 H   0  0  0  0  0  0  0  0  0  0  0  0
   -5.6630    3.6369    4.1778 H   0  0  0  0  0  0  0  0  0  0  0  0
   -5.2653    4.7960    2.8834 H   0  0  0  0  0  0  0  0  0  0  0  0
   -5.2319    3.8357    0.6401 H   0  0  0  0  0  0  0  0  0  0  0  0
   -5.9464    4.8189   -2.6411 H   0  0  0  0  0  0  0  0  0  0  0  0
   -6.4180    3.6662   -1.2706 H   0  0  0  0  0  0  0  0  0  0  0  0
   -5.4250    5.1128   -0.9499 H   0  0  0  0  0  0  0  0  0  0  0  0
   -2.2083    2.1064   -1.7953 H   0  0  0  0  0  0  0  0  0  0  0  0
    0.1936    2.5309   -1.0742 H   0  0  0  0  0  0  0  0  0  0  0  0
    2.4195    2.3618   -1.9651 H   0  0  0  0  0  0  0  0  0  0  0  0
    5.0593   -1.9308   -2.0468 H   0  0  0  0  0  0  0  0  0  0  0  0
    5.6301   -1.3899    0.7596 H   0  0  0  0  0  0  0  0  0  0  0  0
    6.2435   -0.0233   -0.2009 H   0  0  0  0  0  0  0  0  0  0  0  0
    7.9375   -1.8834    0.3142 H   0  0  0  0  0  0  0  0  0  0  0  0
    6.8882   -3.0088   -0.5642 H   0  0  0  0  0  0  0  0  0  0  0  0
    8.6962   -2.3176   -2.0045 H   0  0  0  0  0  0  0  0  0  0  0  0
    7.1142   -1.8097   -2.6462 H   0  0  0  0  0  0  0  0  0  0  0  0
    7.4821    0.5110   -1.9804 H   0  0  0  0  0  0  0  0  0  0  0  0
    8.8374   -0.1169   -2.9459 H   0  0  0  0  0  0  0  0  0  0  0  0
    8.9368    0.0265    0.1237 H   0  0  0  0  0  0  0  0  0  0  0  0
    9.6303    1.2032   -1.0411 H   0  0  0  0  0  0  0  0  0  0  0  0
   11.0333   -0.4584   -0.2031 H   0  0  0  0  0  0  0  0  0  0  0  0
    2.8840   -2.0832    0.0914 H   0  0  0  0  0  0  0  0  0  0  0  0
   -1.7189   -0.6363    2.4344 H   0  0  0  0  0  0  0  0  0  0  0  0
   -3.8449   -1.9476    2.6046 H   0  0  0  0  0  0  0  0  0  0  0  0
   -4.1928   -3.8619   -0.8841 H   0  0  0  0  0  0  0  0  0  0  0  0
   -4.9842   -4.9218    0.3053 H   0  0  0  0  0  0  0  0  0  0  0  0
   -3.3050   -4.2418    0.6412 H   0  0  0  0  0  0  0  0  0  0  0  0
   -5.2872   -4.0831    2.6072 H   0  0  0  0  0  0  0  0  0  0  0  0
   -6.7031   -3.8363    1.5417 H   0  0  0  0  0  0  0  0  0  0  0  0
   -6.0801   -2.4980    2.6499 H   0  0  0  0  0  0  0  0  0  0  0  0
   -6.0214   -1.0715    0.3074 H   0  0  0  0  0  0  0  0  0  0  0  0
   -5.0184   -1.8979   -1.0120 H   0  0  0  0  0  0  0  0  0  0  0  0
   -6.5074   -2.6392   -0.3868 H   0  0  0  0  0  0  0  0  0  0  0  0
   -2.0794    1.6654    2.4192 H   0  0  0  0  0  0  0  0  0  0  0  0
  1  2  1  0
  2  3  1  0
  3  4  2  0
  4  5  1  0
  5  6  1  0
  6  7  1  0
  5  8  2  0
  8  9  1  0
  9 10  1  0
 10 11  2  0
 11 12  1  0
 12 13  2  0
 13 14  1  0
 14 15  2  0
 15 16  1  0
 16 17  1  0
 17 18  1  0
 18 19  1  0
 19 20  1  0
 20 21  1  0
 21 22  1  0
 15 23  1  0
 23 24  2  0
 24 25  1  0
 25 26  2  0
 26 27  1  0
 27 28  1  0
 28 29  2  0
 28 30  1  0
 30 31  1  0
 31 32  1  0
 31 33  1  0
 31 34  1  0
  9 35  2  0
 35  3  1  0
 26 10  1  0
 24 12  1  0
  1 36  1  0
  1 37  1  0
  1 38  1  0
  4 39  1  0
  7 40  1  0
  7 41  1  0
  7 42  1  0
  8 43  1  0
 11 44  1  0
 13 45  1  0
 16 46  1  0
 17 47  1  0
 17 48  1  0
 18 49  1  0
 18 50  1  0
 19 51  1  0
 19 52  1  0
 20 53  1  0
 20 54  1  0
 21 55  1  0
 21 56  1  0
 22 57  1  0
 23 58  1  0
 27 59  1  0
 30 60  1  0
 32 61  1  0
 32 62  1  0
 32 63  1  0
 33 64  1  0
 33 65  1  0
 33 66  1  0
 34 67  1  0
 34 68  1  0
 34 69  1  0
 35 70  1  0
M  END
$$$$
