@<TRIPOS>MOLECULE
*****
 39 42 0 0 0
SMALL
GASTEIGER

@<TRIPOS>ATOM
      1 O           0.0200   -1.3953    0.2670 O.2     1  UNL1       -0.2737
      2 C           0.2982   -1.0337   -0.8989 C.2     1  UNL1        0.2354
      3 C          -0.7493   -0.4375   -1.7353 C.3     1  UNL1        0.0964
      4 N          -2.0208   -0.3418   -1.0740 N.am    1  UNL1       -0.2609
      5 C          -2.9976   -1.3836   -1.1431 C.2     1  UNL1        0.2206
      6 O          -2.6440   -2.5127   -1.5063 O.2     1  UNL1       -0.2752
      7 C          -4.4114   -1.1427   -0.7924 C.3     1  UNL1        0.0299
      8 C          -4.5849   -0.1367    0.2832 C.3     1  UNL1       -0.0003
      9 C          -3.5592    0.9349    0.3332 C.ar    1  UNL1        0.0630
     10 N          -3.8956    2.0375    1.0685 N.ar    1  UNL1       -0.2580
     11 C          -3.0532    3.0616    1.1937 C.ar    1  UNL1        0.0280
     12 C          -1.8371    2.9708    0.5595 C.ar    1  UNL1       -0.0418
     13 C          -1.4693    1.8774   -0.1862 C.ar    1  UNL1       -0.0371
     14 C          -2.3546    0.8006   -0.3185 C.ar    1  UNL1        0.0581
     15 N           1.6108   -1.1918   -1.4234 N.am    1  UNL1       -0.2781
     16 C           2.6638   -1.7631   -0.6574 C.ar    1  UNL1        0.0836
     17 S           3.0076   -3.5713   -0.6593 S.2     1  UNL1       -0.0801
     18 C           4.4129   -3.4308    0.5033 C.ar    1  UNL1       -0.0078
     19 C           4.4813   -2.0641    0.7713 C.ar    1  UNL1        0.0374
     20 BR          5.9026   -1.5302    2.0082 Br      1  UNL1       -0.0490
     21 C           3.6127   -1.2493    0.1928 C.ar    1  UNL1        0.0614
     22 C           3.5862    0.2400    0.4028 C.ar    1  UNL1        0.1648
     23 N           2.6947    1.0880   -0.1891 N.ar    1  UNL1       -0.1295
     24 N           2.9335    2.3282    0.1977 N.ar    1  UNL1       -0.1377
     25 C           3.9748    2.2968    1.0382 C.ar    1  UNL1        0.1175
     26 N           4.3711    0.9882    1.1564 N.ar    1  UNL1       -0.3276
     27 H          -0.4134    0.5151   -2.1575 H       1  UNL1        0.0564
     28 H          -0.9263   -1.0868   -2.6538 H       1  UNL1        0.0564
     29 H          -4.8530   -2.1130   -0.4340 H       1  UNL1        0.0362
     30 H          -4.9627   -0.8979   -1.7229 H       1  UNL1        0.0362
     31 H          -5.5800    0.3773    0.1405 H       1  UNL1        0.0333
     32 H          -4.6433   -0.5671    1.3130 H       1  UNL1        0.0333
     33 H          -3.3164    3.9578    1.7863 H       1  UNL1        0.0829
     34 H          -1.1476    3.8043    0.6597 H       1  UNL1        0.0633
     35 H          -0.5120    1.8062   -0.6795 H       1  UNL1        0.0637
     36 H           1.7784   -0.8626   -2.4229 H       1  UNL1        0.1554
     37 H           4.9922   -4.2609    0.8446 H       1  UNL1        0.0705
     38 H           4.4282    3.1418    1.5377 H       1  UNL1        0.1046
     39 H           5.1626    0.7463    1.7614 H       1  UNL1        0.1683
@<TRIPOS>BOND
     1     1     2    2
     2     2     3    1
     3     3     4    1
     4     4     5   am
     5     5     6    2
     6     5     7    1
     7     7     8    1
     8     8     9    1
     9     9    10   ar
    10    10    11   ar
    11    11    12   ar
    12    12    13   ar
    13    13    14   ar
    14     2    15   am
    15    15    16    1
    16    16    17   ar
    17    17    18   ar
    18    18    19   ar
    19    19    20    1
    20    19    21   ar
    21    21    22    1
    22    22    23   ar
    23    23    24   ar
    24    24    25   ar
    25    25    26   ar
    26    14     4    1
    27    21    16   ar
    28    26    22   ar
    29    14     9   ar
    30     3    27    1
    31     3    28    1
    32     7    29    1
    33     7    30    1
    34     8    31    1
    35     8    32    1
    36    11    33    1
    37    12    34    1
    38    13    35    1
    39    15    36    1
    40    18    37    1
    41    25    38    1
    42    26    39    1
