
     RDKit          3D

 39 42  0  0  0  0  0  0  0  0999 V2000
    0.0200   -1.3953    0.2670 O   0  0  0  0  0  0  0  0  0  0  0  0
    0.2982   -1.0337   -0.8989 C   0  0  0  0  0  0  0  0  0  0  0  0
   -0.7493   -0.4375   -1.7353 C   0  0  0  0  0  0  0  0  0  0  0  0
   -2.0208   -0.3418   -1.0740 N   0  0  0  0  0  0  0  0  0  0  0  0
   -2.9976   -1.3836   -1.1431 C   0  0  0  0  0  0  0  0  0  0  0  0
   -2.6440   -2.5127   -1.5063 O   0  0  0  0  0  0  0  0  0  0  0  0
   -4.4114   -1.1427   -0.7924 C   0  0  0  0  0  0  0  0  0  0  0  0
   -4.5849   -0.1367    0.2832 C   0  0  0  0  0  0  0  0  0  0  0  0
   -3.5592    0.9349    0.3332 C   0  0  0  0  0  0  0  0  0  0  0  0
   -3.8956    2.0375    1.0685 N   0  0  0  0  0  0  0  0  0  0  0  0
   -3.0532    3.0616    1.1937 C   0  0  0  0  0  0  0  0  0  0  0  0
   -1.8371    2.9708    0.5595 C   0  0  0  0  0  0  0  0  0  0  0  0
   -1.4693    1.8774   -0.1862 C   0  0  0  0  0  0  0  0  0  0  0  0
   -2.3546    0.8006   -0.3185 C   0  0  0  0  0  0  0  0  0  0  0  0
    1.6108   -1.1918   -1.4234 N   0  0  0  0  0  0  0  0  0  0  0  0
    2.6638   -1.7631   -0.6574 C   0  0  0  0  0  0  0  0  0  0  0  0
    3.0076   -3.5713   -0.6593 S   0  0  0  0  0  0  0  0  0  0  0  0
    4.4129   -3.4308    0.5033 C   0  0  0  0  0  0  0  0  0  0  0  0
    4.4813   -2.0641    0.7713 C   0  0  0  0  0  0  0  0  0  0  0  0
    5.9026   -1.5302    2.0082 Br  0  0  0  0  0  0  0  0  0  0  0  0
    3.6127   -1.2493    0.1928 C   0  0  0  0  0  0  0  0  0  0  0  0
    3.5862    0.2400    0.4028 C   0  0  0  0  0  0  0  0  0  0  0  0
    2.6947    1.0880   -0.1891 N   0  0  0  0  0  0  0  0  0  0  0  0
    2.9335    2.3282    0.1977 N   0  0  0  0  0  0  0  0  0  0  0  0
    3.9748    2.2968    1.0382 C   0  0  0  0  0  0  0  0  0  0  0  0
    4.3711    0.9882    1.1564 N   0  0  0  0  0  0  0  0  0  0  0  0
   -0.4134    0.5151   -2.1575 H   0  0  0  0  0  0  0  0  0  0  0  0
   -0.9263   -1.0868   -2.6538 H   0  0  0  0  0  0  0  0  0  0  0  0
   -4.8530   -2.1130   -0.4340 H   0  0  0  0  0  0  0  0  0  0  0  0
   -4.9627   -0.8979   -1.7229 H   0  0  0  0  0  0  0  0  0  0  0  0
   -5.5800    0.3773    0.1405 H   0  0  0  0  0  0  0  0  0  0  0  0
   -4.6433   -0.5671    1.3130 H   0  0  0  0  0  0  0  0  0  0  0  0
   -3.3164    3.9578    1.7863 H   0  0  0  0  0  0  0  0  0  0  0  0
   -1.1476    3.8043    0.6597 H   0  0  0  0  0  0  0  0  0  0  0  0
   -0.5120    1.8062   -0.6795 H   0  0  0  0  0  0  0  0  0  0  0  0
    1.7784   -0.8626   -2.4229 H   0  0  0  0  0  0  0  0  0  0  0  0
    4.9922   -4.2609    0.8446 H   0  0  0  0  0  0  0  0  0  0  0  0
    4.4282    3.1418    1.5377 H   0  0  0  0  0  0  0  0  0  0  0  0
    5.1626    0.7463    1.7614 H   0  0  0  0  0  0  0  0  0  0  0  0
  1  2  2  0
  2  3  1  0
  3  4  1  0
  4  5  1  0
  5  6  2  0
  5  7  1  0
  7  8  1  0
  8  9  1  0
  9 10  2  0
 10 11  1  0
 11 12  2  0
 12 13  1  0
 13 14  2  0
  2 15  1  0
 15 16  1  0
 16 17  1  0
 17 18  1  0
 18 19  2  0
 19 20  1  0
 19 21  1  0
 21 22  1  0
 22 23  2  0
 23 24  1  0
 24 25  2  0
 25 26  1  0
 14  4  1  0
 21 16  2  0
 26 22  1  0
 14  9  1  0
  3 27  1  0
  3 28  1  0
  7 29  1  0
  7 30  1  0
  8 31  1  0
  8 32  1  0
 11 33  1  0
 12 34  1  0
 13 35  1  0
 15 36  1  0
 18 37  1  0
 25 38  1  0
 26 39  1  0
M  END
$$$$
