@<TRIPOS>MOLECULE
*****
 60 65 0 0 0
SMALL
GASTEIGER

@<TRIPOS>ATOM
      1 N          -5.0284    1.6923    2.4917 N.pl3   1  UNL1       -0.3275
      2 C          -3.6539    1.3525    2.3694 C.ar    1  UNL1        0.2142
      3 N          -2.8526    0.9979    3.3881 N.ar    1  UNL1       -0.2133
      4 C          -1.6138    0.7438    2.9163 C.ar    1  UNL1        0.0927
      5 C          -0.4215    0.3513    3.4939 C.ar    1  UNL1       -0.0335
      6 C           0.7296    0.1590    2.7526 C.ar    1  UNL1       -0.0504
      7 C           0.7209    0.3581    1.3839 C.ar    1  UNL1        0.0026
      8 C           1.9491    0.1469    0.6266 C.ar    1  UNL1        0.0743
      9 N           2.6158    1.1210   -0.0604 N.ar    1  UNL1       -0.3373
     10 C           3.7097    0.6214   -0.6535 C.ar    1  UNL1        0.1449
     11 C           4.7113    1.2894   -1.4824 C.ar    1  UNL1        0.0875
     12 C           5.7592    0.5466   -1.9836 C.ar    1  UNL1        0.1368
     13 F           5.8281   -0.7874   -1.6896 F       1  UNL1       -0.2047
     14 C           6.7485    1.0690   -2.7675 C.ar    1  UNL1       -0.0256
     15 C           6.7049    2.4080   -3.0788 C.ar    1  UNL1       -0.0563
     16 C           5.6682    3.1717   -2.5902 C.ar    1  UNL1       -0.0256
     17 C           4.6652    2.6132   -1.7882 C.ar    1  UNL1        0.1368
     18 F           3.6674    3.3909   -1.3286 F       1  UNL1       -0.2047
     19 N           3.7154   -0.7057   -0.3197 N.ar    1  UNL1       -0.2269
     20 C           2.6655   -1.0206    0.4518 C.ar    1  UNL1        0.0971
     21 C           2.3287   -2.3268    1.0049 C.ar    1  UNL1        0.0025
     22 C           1.1561   -2.9446    0.6336 C.ar    1  UNL1       -0.0525
     23 C           0.8050   -4.1895    1.1412 C.ar    1  UNL1       -0.0611
     24 C           1.6169   -4.8313    2.0226 C.ar    1  UNL1       -0.0617
     25 C           2.7938   -4.2377    2.4108 C.ar    1  UNL1       -0.0611
     26 C           3.1399   -2.9863    1.8963 C.ar    1  UNL1       -0.0525
     27 C          -0.4713    0.7497    0.8116 C.ar    1  UNL1       -0.0251
     28 C          -1.6340    0.9448    1.5532 C.ar    1  UNL1        0.0942
     29 N          -2.8918    1.3145    1.2540 N.ar    1  UNL1       -0.1832
     30 S          -3.4436    1.6781   -0.3160 S.O2    1  UNL1        0.0605
     31 O          -4.8644    2.1470   -0.2802 O.2     1  UNL1       -0.1525
     32 O          -2.6372    2.8023   -0.9485 O.2     1  UNL1       -0.1525
     33 C          -3.3114    0.2923   -1.4180 C.3     1  UNL1        0.0982
     34 C          -3.9592    0.6278   -2.7435 C.3     1  UNL1       -0.0288
     35 C          -5.4462    0.3746   -2.5539 C.3     1  UNL1       -0.0512
     36 C          -5.5658   -0.5102   -1.3197 C.3     1  UNL1       -0.0512
     37 C          -4.1569   -0.8733   -0.9492 C.3     1  UNL1       -0.0288
     38 H          -5.3838    2.5230    1.9751 H       1  UNL1        0.1451
     39 H          -5.6909    1.1551    3.0688 H       1  UNL1        0.1451
     40 H          -0.4168    0.1946    4.5775 H       1  UNL1        0.0640
     41 H           1.6647   -0.1495    3.2065 H       1  UNL1        0.0625
     42 H           2.3000    2.1269   -0.1085 H       1  UNL1        0.1674
     43 H           7.5469    0.4245   -3.1291 H       1  UNL1        0.0646
     44 H           7.4952    2.7967   -3.6976 H       1  UNL1        0.0619
     45 H           5.6417    4.2230   -2.8396 H       1  UNL1        0.0646
     46 H           0.4754   -2.4712   -0.0669 H       1  UNL1        0.0624
     47 H          -0.1251   -4.6228    0.8139 H       1  UNL1        0.0618
     48 H           1.3379   -5.8142    2.4212 H       1  UNL1        0.0618
     49 H           3.4159   -4.7732    3.1116 H       1  UNL1        0.0618
     50 H           4.0716   -2.5652    2.2320 H       1  UNL1        0.0624
     51 H          -0.4850    0.9065   -0.2480 H       1  UNL1        0.0646
     52 H          -2.2728   -0.0443   -1.5223 H       1  UNL1        0.0556
     53 H          -3.5857   -0.0688   -3.5448 H       1  UNL1        0.0284
     54 H          -3.7604    1.6703   -3.0626 H       1  UNL1        0.0284
     55 H          -6.0169    1.3106   -2.4431 H       1  UNL1        0.0266
     56 H          -5.8303   -0.2154   -3.4103 H       1  UNL1        0.0266
     57 H          -6.2142   -1.3764   -1.5045 H       1  UNL1        0.0266
     58 H          -6.0398    0.0778   -0.4926 H       1  UNL1        0.0266
     59 H          -4.0164   -1.1025    0.1144 H       1  UNL1        0.0284
     60 H          -3.8581   -1.7558   -1.5510 H       1  UNL1        0.0284
@<TRIPOS>BOND
     1     1     2    1
     2     2     3   ar
     3     3     4   ar
     4     4     5   ar
     5     5     6   ar
     6     6     7   ar
     7     7     8    1
     8     8     9   ar
     9     9    10   ar
    10    10    11    1
    11    11    12   ar
    12    12    13    1
    13    12    14   ar
    14    14    15   ar
    15    15    16   ar
    16    16    17   ar
    17    17    18    1
    18    10    19   ar
    19    19    20   ar
    20    20    21    1
    21    21    22   ar
    22    22    23   ar
    23    23    24   ar
    24    24    25   ar
    25    25    26   ar
    26     7    27   ar
    27    27    28   ar
    28    28    29   ar
    29    29    30    1
    30    30    31    2
    31    30    32    2
    32    30    33    1
    33    33    34    1
    34    34    35    1
    35    35    36    1
    36    36    37    1
    37    29     2   ar
    38    37    33    1
    39    28     4   ar
    40    20     8   ar
    41    26    21   ar
    42    17    11   ar
    43     1    38    1
    44     1    39    1
    45     5    40    1
    46     6    41    1
    47     9    42    1
    48    14    43    1
    49    15    44    1
    50    16    45    1
    51    22    46    1
    52    23    47    1
    53    24    48    1
    54    25    49    1
    55    26    50    1
    56    27    51    1
    57    33    52    1
    58    34    53    1
    59    34    54    1
    60    35    55    1
    61    35    56    1
    62    36    57    1
    63    36    58    1
    64    37    59    1
    65    37    60    1
