
     RDKit          3D

 60 65  0  0  0  0  0  0  0  0999 V2000
   -5.0284    1.6923    2.4917 N   0  0  0  0  0  0  0  0  0  0  0  0
   -3.6539    1.3525    2.3694 C   0  0  0  0  0  0  0  0  0  0  0  0
   -2.8526    0.9979    3.3881 N   0  0  0  0  0  0  0  0  0  0  0  0
   -1.6138    0.7438    2.9163 C   0  0  0  0  0  0  0  0  0  0  0  0
   -0.4215    0.3513    3.4939 C   0  0  0  0  0  0  0  0  0  0  0  0
    0.7296    0.1590    2.7526 C   0  0  0  0  0  0  0  0  0  0  0  0
    0.7209    0.3581    1.3839 C   0  0  0  0  0  0  0  0  0  0  0  0
    1.9491    0.1469    0.6266 C   0  0  0  0  0  0  0  0  0  0  0  0
    2.6158    1.1210   -0.0604 N   0  0  0  0  0  0  0  0  0  0  0  0
    3.7097    0.6214   -0.6535 C   0  0  0  0  0  0  0  0  0  0  0  0
    4.7113    1.2894   -1.4824 C   0  0  0  0  0  0  0  0  0  0  0  0
    5.7592    0.5466   -1.9836 C   0  0  0  0  0  0  0  0  0  0  0  0
    5.8281   -0.7874   -1.6896 F   0  0  0  0  0  0  0  0  0  0  0  0
    6.7485    1.0690   -2.7675 C   0  0  0  0  0  0  0  0  0  0  0  0
    6.7049    2.4080   -3.0788 C   0  0  0  0  0  0  0  0  0  0  0  0
    5.6682    3.1717   -2.5902 C   0  0  0  0  0  0  0  0  0  0  0  0
    4.6652    2.6132   -1.7882 C   0  0  0  0  0  0  0  0  0  0  0  0
    3.6674    3.3909   -1.3286 F   0  0  0  0  0  0  0  0  0  0  0  0
    3.7154   -0.7057   -0.3197 N   0  0  0  0  0  0  0  0  0  0  0  0
    2.6655   -1.0206    0.4518 C   0  0  0  0  0  0  0  0  0  0  0  0
    2.3287   -2.3268    1.0049 C   0  0  0  0  0  0  0  0  0  0  0  0
    1.1561   -2.9446    0.6336 C   0  0  0  0  0  0  0  0  0  0  0  0
    0.8050   -4.1895    1.1412 C   0  0  0  0  0  0  0  0  0  0  0  0
    1.6169   -4.8313    2.0226 C   0  0  0  0  0  0  0  0  0  0  0  0
    2.7938   -4.2377    2.4108 C   0  0  0  0  0  0  0  0  0  0  0  0
    3.1399   -2.9863    1.8963 C   0  0  0  0  0  0  0  0  0  0  0  0
   -0.4713    0.7497    0.8116 C   0  0  0  0  0  0  0  0  0  0  0  0
   -1.6340    0.9448    1.5532 C   0  0  0  0  0  0  0  0  0  0  0  0
   -2.8918    1.3145    1.2540 N   0  0  0  0  0  0  0  0  0  0  0  0
   -3.4436    1.6781   -0.3160 S   0  0  0  0  0  6  0  0  0  0  0  0
   -4.8644    2.1470   -0.2802 O   0  0  0  0  0  0  0  0  0  0  0  0
   -2.6372    2.8023   -0.9485 O   0  0  0  0  0  0  0  0  0  0  0  0
   -3.3114    0.2923   -1.4180 C   0  0  0  0  0  0  0  0  0  0  0  0
   -3.9592    0.6278   -2.7435 C   0  0  0  0  0  0  0  0  0  0  0  0
   -5.4462    0.3746   -2.5539 C   0  0  0  0  0  0  0  0  0  0  0  0
   -5.5658   -0.5102   -1.3197 C   0  0  0  0  0  0  0  0  0  0  0  0
   -4.1569   -0.8733   -0.9492 C   0  0  0  0  0  0  0  0  0  0  0  0
   -5.3838    2.5230    1.9751 H   0  0  0  0  0  0  0  0  0  0  0  0
   -5.6909    1.1551    3.0688 H   0  0  0  0  0  0  0  0  0  0  0  0
   -0.4168    0.1946    4.5775 H   0  0  0  0  0  0  0  0  0  0  0  0
    1.6647   -0.1495    3.2065 H   0  0  0  0  0  0  0  0  0  0  0  0
    2.3000    2.1269   -0.1085 H   0  0  0  0  0  0  0  0  0  0  0  0
    7.5469    0.4245   -3.1291 H   0  0  0  0  0  0  0  0  0  0  0  0
    7.4952    2.7967   -3.6976 H   0  0  0  0  0  0  0  0  0  0  0  0
    5.6417    4.2230   -2.8396 H   0  0  0  0  0  0  0  0  0  0  0  0
    0.4754   -2.4712   -0.0669 H   0  0  0  0  0  0  0  0  0  0  0  0
   -0.1251   -4.6228    0.8139 H   0  0  0  0  0  0  0  0  0  0  0  0
    1.3379   -5.8142    2.4212 H   0  0  0  0  0  0  0  0  0  0  0  0
    3.4159   -4.7732    3.1116 H   0  0  0  0  0  0  0  0  0  0  0  0
    4.0716   -2.5652    2.2320 H   0  0  0  0  0  0  0  0  0  0  0  0
   -0.4850    0.9065   -0.2480 H   0  0  0  0  0  0  0  0  0  0  0  0
   -2.2728   -0.0443   -1.5223 H   0  0  0  0  0  0  0  0  0  0  0  0
   -3.5857   -0.0688   -3.5448 H   0  0  0  0  0  0  0  0  0  0  0  0
   -3.7604    1.6703   -3.0626 H   0  0  0  0  0  0  0  0  0  0  0  0
   -6.0169    1.3106   -2.4431 H   0  0  0  0  0  0  0  0  0  0  0  0
   -5.8303   -0.2154   -3.4103 H   0  0  0  0  0  0  0  0  0  0  0  0
   -6.2142   -1.3764   -1.5045 H   0  0  0  0  0  0  0  0  0  0  0  0
   -6.0398    0.0778   -0.4926 H   0  0  0  0  0  0  0  0  0  0  0  0
   -4.0164   -1.1025    0.1144 H   0  0  0  0  0  0  0  0  0  0  0  0
   -3.8581   -1.7558   -1.5510 H   0  0  0  0  0  0  0  0  0  0  0  0
  1  2  1  0
  2  3  2  0
  3  4  1  0
  4  5  2  0
  5  6  1  0
  6  7  2  0
  7  8  1  0
  8  9  1  0
  9 10  1  0
 10 11  1  0
 11 12  2  0
 12 13  1  0
 12 14  1  0
 14 15  2  0
 15 16  1  0
 16 17  2  0
 17 18  1  0
 10 19  2  0
 19 20  1  0
 20 21  1  0
 21 22  2  0
 22 23  1  0
 23 24  2  0
 24 25  1  0
 25 26  2  0
  7 27  1  0
 27 28  2  0
 28 29  1  0
 29 30  1  0
 30 31  2  0
 30 32  2  0
 30 33  1  0
 33 34  1  0
 34 35  1  0
 35 36  1  0
 36 37  1  0
 29  2  1  0
 37 33  1  0
 28  4  1  0
 20  8  2  0
 26 21  1  0
 17 11  1  0
  1 38  1  0
  1 39  1  0
  5 40  1  0
  6 41  1  0
  9 42  1  0
 14 43  1  0
 15 44  1  0
 16 45  1  0
 22 46  1  0
 23 47  1  0
 24 48  1  0
 25 49  1  0
 26 50  1  0
 27 51  1  0
 33 52  1  0
 34 53  1  0
 34 54  1  0
 35 55  1  0
 35 56  1  0
 36 57  1  0
 36 58  1  0
 37 59  1  0
 37 60  1  0
M  END
$$$$
