@<TRIPOS>MOLECULE
*****
 52 55 0 0 0
SMALL
GASTEIGER

@<TRIPOS>ATOM
      1 C          -1.3639    0.4903   -1.7753 C.3     1  UNL1       -0.0206
      2 C          -1.5572   -0.1493   -0.4602 C.ar    1  UNL1        0.0607
      3 C          -2.6724   -0.8319   -0.0457 C.ar    1  UNL1        0.1580
      4 O          -3.8190   -1.0382   -0.8015 O.3     1  UNL1       -0.4536
      5 C          -4.8752   -0.1070   -0.7516 C.ar    1  UNL1        0.1286
      6 C          -4.7957    1.0202    0.0414 C.ar    1  UNL1       -0.0180
      7 C          -5.8190    1.9404    0.1017 C.ar    1  UNL1       -0.0399
      8 C          -6.9736    1.7552   -0.6444 C.ar    1  UNL1        0.0412
      9 CL         -8.2836    2.9256   -0.5724 Cl      1  UNL1       -0.0835
     10 C          -7.0461    0.6352   -1.4288 C.ar    1  UNL1       -0.0399
     11 C          -6.0110   -0.2879   -1.4847 C.ar    1  UNL1       -0.0180
     12 C          -2.4089   -1.2542    1.2482 C.ar    1  UNL1        0.0614
     13 C          -3.1789   -1.9743    2.1277 C.ar    1  UNL1       -0.0461
     14 C          -2.6830   -2.2723    3.3781 C.ar    1  UNL1       -0.0428
     15 C          -1.4094   -1.8113    3.6645 C.ar    1  UNL1        0.0299
     16 N          -0.6709   -1.1064    2.7870 N.ar    1  UNL1       -0.2372
     17 C          -1.1422   -0.8092    1.5653 C.ar    1  UNL1        0.1448
     18 N          -0.6139   -0.1259    0.5103 N.ar    1  UNL1       -0.3213
     19 C           0.6865    0.4924    0.4546 C.3     1  UNL1        0.0529
     20 C           1.7499   -0.3630   -0.0369 C.ar    1  UNL1        0.0109
     21 C           3.0410    0.1433   -0.1297 C.ar    1  UNL1       -0.0123
     22 C           4.0916   -0.6072   -0.5846 C.ar    1  UNL1        0.1222
     23 O           5.3859   -0.1722   -0.7013 O.3     1  UNL1       -0.4779
     24 C           5.8099    1.1014   -0.3705 C.3     1  UNL1        0.1931
     25 C           6.8617    0.9317    0.7415 C.3     1  UNL1       -0.0172
     26 C           6.4619    1.7979   -1.5288 C.2     1  UNL1        0.3456
     27 O           6.5778    1.2433   -2.6306 O.2     1  UNL1       -0.2468
     28 O           6.9288    3.0735   -1.3325 O.3     1  UNL1       -0.4781
     29 C           3.8319   -1.9200   -0.9610 C.ar    1  UNL1       -0.0172
     30 C           2.5657   -2.4479   -0.8802 C.ar    1  UNL1       -0.0227
     31 C           1.5130   -1.6563   -0.4116 C.ar    1  UNL1        0.1285
     32 F           0.2635   -2.1589   -0.3258 F       1  UNL1       -0.2051
     33 H          -0.9190   -0.2828   -2.4551 H       1  UNL1        0.0293
     34 H          -0.6515    1.3386   -1.7498 H       1  UNL1        0.0293
     35 H          -2.3356    0.7717   -2.2246 H       1  UNL1        0.0293
     36 H          -3.9140    1.2199    0.6499 H       1  UNL1        0.0655
     37 H          -5.7709    2.8262    0.7171 H       1  UNL1        0.0633
     38 H          -7.9367    0.4778   -2.0141 H       1  UNL1        0.0633
     39 H          -6.0926   -1.1563   -2.1066 H       1  UNL1        0.0655
     40 H          -4.1619   -2.2979    1.8297 H       1  UNL1        0.0626
     41 H          -3.2475   -2.8348    4.1054 H       1  UNL1        0.0633
     42 H          -1.0129   -2.0471    4.6584 H       1  UNL1        0.0830
     43 H           0.9896    0.8463    1.4844 H       1  UNL1        0.0543
     44 H           0.6848    1.4273   -0.1574 H       1  UNL1        0.0543
     45 H           3.2254    1.1673    0.1675 H       1  UNL1        0.0658
     46 H           5.0588    1.8033    0.0085 H       1  UNL1        0.0849
     47 H           7.0892    1.9145    1.1763 H       1  UNL1        0.0271
     48 H           6.4250    0.2130    1.4604 H       1  UNL1        0.0271
     49 H           7.7567    0.4659    0.2566 H       1  UNL1        0.0271
     50 H           7.2901    3.6695   -2.0658 H       1  UNL1        0.2952
     51 H           4.6711   -2.5033   -1.3190 H       1  UNL1        0.0655
     52 H           2.4065   -3.4757   -1.1838 H       1  UNL1        0.0647
@<TRIPOS>BOND
     1     1     2    1
     2     2     3   ar
     3     3     4    1
     4     4     5    1
     5     5     6   ar
     6     6     7   ar
     7     7     8   ar
     8     8     9    1
     9     8    10   ar
    10    10    11   ar
    11     3    12   ar
    12    12    13   ar
    13    13    14   ar
    14    14    15   ar
    15    15    16   ar
    16    16    17   ar
    17    17    18   ar
    18    18    19    1
    19    19    20    1
    20    20    21   ar
    21    21    22   ar
    22    22    23    1
    23    23    24    1
    24    24    25    1
    25    24    26    1
    26    26    27    2
    27    26    28    1
    28    22    29   ar
    29    29    30   ar
    30    30    31   ar
    31    31    32    1
    32    18     2   ar
    33    31    20   ar
    34    11     5   ar
    35    17    12   ar
    36     1    33    1
    37     1    34    1
    38     1    35    1
    39     6    36    1
    40     7    37    1
    41    10    38    1
    42    11    39    1
    43    13    40    1
    44    14    41    1
    45    15    42    1
    46    19    43    1
    47    19    44    1
    48    21    45    1
    49    24    46    1
    50    25    47    1
    51    25    48    1
    52    25    49    1
    53    28    50    1
    54    29    51    1
    55    30    52    1
