
     RDKit          3D

 28 30  0  0  0  0  0  0  0  0999 V2000
    4.6071   -0.0082   -2.6640 O   0  0  0  0  0  0  0  0  0  0  0  0
    4.5000   -0.4776   -1.5129 C   0  0  0  0  0  0  0  0  0  0  0  0
    5.5807   -1.1587   -0.9830 O   0  0  0  0  0  0  0  0  0  0  0  0
    3.2899   -0.3404   -0.7036 C   0  0  0  0  0  0  0  0  0  0  0  0
    3.2109   -0.8735    0.5659 C   0  0  0  0  0  0  0  0  0  0  0  0
    2.0869   -0.7618    1.3536 C   0  0  0  0  0  0  0  0  0  0  0  0
    0.9602   -0.0836    0.8727 C   0  0  0  0  0  0  0  0  0  0  0  0
   -0.2126    0.1680    1.3918 O   0  0  0  0  0  0  0  0  0  0  0  0
   -0.9788    0.8557    0.5561 C   0  0  0  0  0  0  0  0  0  0  0  0
   -2.3835    1.3067    0.8395 C   0  0  0  0  0  0  0  0  0  0  0  0
   -3.3062    0.4464    0.1503 N   0  0  0  0  0  0  0  0  0  0  0  0
   -3.8400   -0.7009    0.6448 C   0  0  0  0  0  0  0  0  0  0  0  0
   -4.6856   -1.2613   -0.2782 C   0  0  0  0  0  0  0  0  0  0  0  0
   -4.6605   -0.4417   -1.3402 N   0  0  0  0  0  0  0  0  0  0  0  0
   -3.8246    0.5891   -1.0747 C   0  0  0  0  0  0  0  0  0  0  0  0
   -0.2135    1.0441   -0.5735 C   0  0  0  0  0  0  0  0  0  0  0  0
   -0.6855    1.8896   -2.0208 Cl  0  0  0  0  0  0  0  0  0  0  0  0
    1.0247    0.4549   -0.3954 C   0  0  0  0  0  0  0  0  0  0  0  0
    2.1705    0.3255   -1.1638 C   0  0  0  0  0  0  0  0  0  0  0  0
    6.5391   -0.9076   -1.2640 H   0  0  0  0  0  0  0  0  0  0  0  0
    4.1134   -1.3993    0.9116 H   0  0  0  0  0  0  0  0  0  0  0  0
    2.0873   -1.2031    2.3438 H   0  0  0  0  0  0  0  0  0  0  0  0
   -2.5208    1.2975    1.9386 H   0  0  0  0  0  0  0  0  0  0  0  0
   -2.5360    2.3540    0.5080 H   0  0  0  0  0  0  0  0  0  0  0  0
   -3.6283   -1.1153    1.6290 H   0  0  0  0  0  0  0  0  0  0  0  0
   -5.2789   -2.1658   -0.2319 H   0  0  0  0  0  0  0  0  0  0  0  0
   -3.6044    1.4093   -1.7404 H   0  0  0  0  0  0  0  0  0  0  0  0
    2.1886    0.7578   -2.1508 H   0  0  0  0  0  0  0  0  0  0  0  0
  1  2  2  0
  2  3  1  0
  2  4  1  0
  4  5  2  0
  5  6  1  0
  6  7  2  0
  7  8  1  0
  8  9  1  0
  9 10  1  0
 10 11  1  0
 11 12  1  0
 12 13  2  0
 13 14  1  0
 14 15  2  0
  9 16  2  0
 16 17  1  0
 16 18  1  0
 18 19  2  0
 19  4  1  0
 18  7  1  0
 15 11  1  0
  3 20  1  0
  5 21  1  0
  6 22  1  0
 10 23  1  0
 10 24  1  0
 12 25  1  0
 13 26  1  0
 15 27  1  0
 19 28  1  0
M  END
$$$$
