@<TRIPOS>MOLECULE
*****
 28 30 0 0 0
SMALL
GASTEIGER

@<TRIPOS>ATOM
      1 O           4.6071   -0.0082   -2.6640 O.2     1  UNL1       -0.2451
      2 C           4.5000   -0.4776   -1.5129 C.2     1  UNL1        0.3368
      3 O           5.5807   -1.1587   -0.9830 O.3     1  UNL1       -0.4771
      4 C           3.2899   -0.3404   -0.7036 C.ar    1  UNL1        0.0597
      5 C           3.2109   -0.8735    0.5659 C.ar    1  UNL1       -0.0443
      6 C           2.0869   -0.7618    1.3536 C.ar    1  UNL1       -0.0179
      7 C           0.9602   -0.0836    0.8727 C.ar    1  UNL1        0.1368
      8 O          -0.2126    0.1680    1.3918 O.2     1  UNL1       -0.4564
      9 C          -0.9788    0.8557    0.5561 C.ar    1  UNL1        0.1441
     10 C          -2.3835    1.3067    0.8395 C.3     1  UNL1        0.0835
     11 N          -3.3062    0.4464    0.1503 N.ar    1  UNL1       -0.3294
     12 C          -3.8400   -0.7009    0.6448 C.ar    1  UNL1        0.0245
     13 C          -4.6856   -1.2613   -0.2782 C.ar    1  UNL1        0.0454
     14 N          -4.6605   -0.4417   -1.3402 N.ar    1  UNL1       -0.2441
     15 C          -3.8246    0.5891   -1.0747 C.ar    1  UNL1        0.0963
     16 C          -0.2135    1.0441   -0.5735 C.ar    1  UNL1        0.0913
     17 CL         -0.6855    1.8896   -2.0208 Cl      1  UNL1       -0.0793
     18 C           1.0247    0.4549   -0.3954 C.ar    1  UNL1        0.0396
     19 C           2.1705    0.3255   -1.1638 C.ar    1  UNL1       -0.0356
     20 H           6.5391   -0.9076   -1.2640 H       1  UNL1        0.2954
     21 H           4.1134   -1.3993    0.9116 H       1  UNL1        0.0627
     22 H           2.0873   -1.2031    2.3438 H       1  UNL1        0.0655
     23 H          -2.5208    1.2975    1.9386 H       1  UNL1        0.0573
     24 H          -2.5360    2.3540    0.5080 H       1  UNL1        0.0573
     25 H          -3.6283   -1.1153    1.6290 H       1  UNL1        0.0825
     26 H          -5.2789   -2.1658   -0.2319 H       1  UNL1        0.0845
     27 H          -3.6044    1.4093   -1.7404 H       1  UNL1        0.1029
     28 H           2.1886    0.7578   -2.1508 H       1  UNL1        0.0633
@<TRIPOS>BOND
     1     1     2    2
     2     2     3    1
     3     2     4    1
     4     4     5   ar
     5     5     6   ar
     6     6     7   ar
     7     7     8   ar
     8     8     9   ar
     9     9    10    1
    10    10    11    1
    11    11    12   ar
    12    12    13   ar
    13    13    14   ar
    14    14    15   ar
    15     9    16   ar
    16    16    17    1
    17    16    18   ar
    18    18    19   ar
    19    19     4   ar
    20    18     7   ar
    21    15    11   ar
    22     3    20    1
    23     5    21    1
    24     6    22    1
    25    10    23    1
    26    10    24    1
    27    12    25    1
    28    13    26    1
    29    15    27    1
    30    19    28    1
