@<TRIPOS>MOLECULE
*****
 53 52 0 0 0
SMALL
GASTEIGER

@<TRIPOS>ATOM
      1 C          -2.9929   -0.5559    0.5303 C.3     1  UNL1        0.0736
      2 O          -2.1544    0.4719    0.2001 O.3     1  UNL1       -0.3878
      3 C          -4.0001   -0.6540   -0.5873 C.3     1  UNL1       -0.0232
      4 C          -4.7427    0.6462   -0.7041 C.3     1  UNL1       -0.0504
      5 C          -5.4592    0.9384    0.5750 C.3     1  UNL1       -0.0532
      6 C          -6.2146    2.2668    0.3849 C.3     1  UNL1       -0.0559
      7 C          -7.1830    2.1107   -0.7443 C.3     1  UNL1       -0.0653
      8 C          -2.3312   -1.8837    0.5720 C.2     1  UNL1       -0.0559
      9 C          -1.0549   -2.0560    0.7533 C.2     1  UNL1       -0.0636
     10 C          -0.5261   -3.4019    0.7745 C.2     1  UNL1       -0.0659
     11 C           0.7451   -3.7163    0.9494 C.2     1  UNL1       -0.0840
     12 C           1.7862   -2.6764    1.1480 C.3     1  UNL1       -0.0345
     13 C           2.7932   -2.8005    0.0458 C.3     1  UNL1       -0.0496
     14 C           3.9114   -1.8021    0.1319 C.3     1  UNL1       -0.0528
     15 C           3.4130   -0.3769    0.0692 C.3     1  UNL1       -0.0530
     16 C           4.6459    0.5065    0.1625 C.3     1  UNL1       -0.0526
     17 C           4.2782    1.9639    0.1111 C.3     1  UNL1       -0.0430
     18 C           5.5076    2.8067    0.2062 C.3     1  UNL1        0.0448
     19 C           6.4662    2.5665   -0.8906 C.2     1  UNL1        0.3047
     20 O           7.6015    3.3653   -0.7607 O.3     1  UNL1       -0.4806
     21 O           6.5074    1.8195   -1.9097 O.2     1  UNL1       -0.2510
     22 H          -3.4876   -0.4400    1.5098 H       1  UNL1        0.0638
     23 H          -2.3025    1.3238    0.6486 H       1  UNL1        0.2102
     24 H          -3.3933   -0.8472   -1.5228 H       1  UNL1        0.0293
     25 H          -4.6840   -1.5099   -0.3942 H       1  UNL1        0.0293
     26 H          -5.4610    0.5689   -1.5556 H       1  UNL1        0.0266
     27 H          -4.0593    1.4808   -0.9691 H       1  UNL1        0.0266
     28 H          -6.1726    0.1732    0.8772 H       1  UNL1        0.0265
     29 H          -4.7227    1.0968    1.3900 H       1  UNL1        0.0265
     30 H          -6.7368    2.4782    1.3252 H       1  UNL1        0.0263
     31 H          -5.4619    3.0532    0.0969 H       1  UNL1        0.0263
     32 H          -7.4079    1.0480   -0.9621 H       1  UNL1        0.0230
     33 H          -8.1505    2.5943   -0.4267 H       1  UNL1        0.0230
     34 H          -6.7887    2.5927   -1.6697 H       1  UNL1        0.0230
     35 H          -2.9737   -2.7720    0.4404 H       1  UNL1        0.0597
     36 H          -0.5226   -1.1443    0.8703 H       1  UNL1        0.0615
     37 H          -1.1413   -4.2561    0.6469 H       1  UNL1        0.0614
     38 H           1.1357   -4.7214    0.9644 H       1  UNL1        0.0572
     39 H           2.2940   -2.8287    2.1389 H       1  UNL1        0.0307
     40 H           1.4047   -1.6538    1.1724 H       1  UNL1        0.0307
     41 H           3.2255   -3.8231    0.0193 H       1  UNL1        0.0268
     42 H           2.3133   -2.6688   -0.9501 H       1  UNL1        0.0268
     43 H           4.6118   -1.9488   -0.7345 H       1  UNL1        0.0265
     44 H           4.5047   -1.9955    1.0429 H       1  UNL1        0.0265
     45 H           2.7511   -0.1622    0.9385 H       1  UNL1        0.0265
     46 H           2.8934   -0.1614   -0.8845 H       1  UNL1        0.0265
     47 H           5.1423    0.3197    1.1394 H       1  UNL1        0.0265
     48 H           5.2955    0.2676   -0.6792 H       1  UNL1        0.0265
     49 H           3.8014    2.1791   -0.8780 H       1  UNL1        0.0270
     50 H           3.5208    2.2240    0.8664 H       1  UNL1        0.0270
     51 H           5.2629    3.8940    0.2010 H       1  UNL1        0.0377
     52 H           6.0495    2.6108    1.1691 H       1  UNL1        0.0377
     53 H           8.2634    3.4898   -1.5238 H       1  UNL1        0.2951
@<TRIPOS>BOND
     1     1     2    1
     2     1     3    1
     3     3     4    1
     4     4     5    1
     5     5     6    1
     6     6     7    1
     7     1     8    1
     8     8     9    2
     9     9    10    1
    10    10    11    2
    11    11    12    1
    12    12    13    1
    13    13    14    1
    14    14    15    1
    15    15    16    1
    16    16    17    1
    17    17    18    1
    18    18    19    1
    19    19    20    1
    20    19    21    2
    21     1    22    1
    22     2    23    1
    23     3    24    1
    24     3    25    1
    25     4    26    1
    26     4    27    1
    27     5    28    1
    28     5    29    1
    29     6    30    1
    30     6    31    1
    31     7    32    1
    32     7    33    1
    33     7    34    1
    34     8    35    1
    35     9    36    1
    36    10    37    1
    37    11    38    1
    38    12    39    1
    39    12    40    1
    40    13    41    1
    41    13    42    1
    42    14    43    1
    43    14    44    1
    44    15    45    1
    45    15    46    1
    46    16    47    1
    47    16    48    1
    48    17    49    1
    49    17    50    1
    50    18    51    1
    51    18    52    1
    52    20    53    1
