@<TRIPOS>MOLECULE
*****
 58 61 0 0 0
SMALL
GASTEIGER

@<TRIPOS>ATOM
      1 C           2.9156   -4.0772    1.2150 C.3     1  UNL1       -0.0653
      2 C           3.5204   -2.7417    0.8078 C.3     1  UNL1       -0.0555
      3 C           3.8656   -2.8277   -0.6429 C.3     1  UNL1       -0.0464
      4 C           4.4794   -1.5613   -1.1834 C.3     1  UNL1        0.0090
      5 C           3.5412   -0.3961   -1.0325 C.ar    1  UNL1        0.1513
      6 N           3.4499    0.4431    0.0125 N.ar    1  UNL1       -0.2160
      7 C           2.4705    1.3573   -0.2588 C.ar    1  UNL1        0.1283
      8 C           2.1155    2.4497    0.6694 C.3     1  UNL1        0.0070
      9 C           1.0752    2.1016    1.6777 C.3     1  UNL1       -0.0464
     10 C           0.8529    3.3634    2.5237 C.3     1  UNL1       -0.0555
     11 C           2.2064    3.6790    3.1586 C.3     1  UNL1       -0.0653
     12 N           1.9614    1.0936   -1.4497 N.ar    1  UNL1       -0.2446
     13 C           0.9224    1.7357   -2.2228 C.3     1  UNL1        0.0685
     14 C          -0.4066    1.1749   -1.9935 C.ar    1  UNL1       -0.0259
     15 C          -0.8150    0.0408   -2.6647 C.ar    1  UNL1       -0.0549
     16 C          -2.0622   -0.4779   -2.4640 C.ar    1  UNL1       -0.0375
     17 C          -2.9848    0.0959   -1.5838 C.ar    1  UNL1        0.0467
     18 N          -4.2584   -0.4604   -1.3992 N.ar    1  UNL1       -0.3132
     19 C          -5.2055   -0.5983   -2.3522 C.ar    1  UNL1        0.0105
     20 C          -6.3411   -1.1835   -1.8356 C.ar    1  UNL1       -0.0431
     21 C          -6.0791   -1.4145   -0.5083 C.ar    1  UNL1       -0.0328
     22 C          -4.7980   -0.9607   -0.2754 C.ar    1  UNL1        0.0924
     23 C          -4.1402   -1.0206    1.0015 C.ar    1  UNL1        0.1962
     24 N          -2.9107   -0.6040    1.3000 N.ar    1  UNL1       -0.1068
     25 N          -2.6618   -0.8254    2.5684 N.ar    1  UNL1       -0.0228
     26 N          -3.7113   -1.3842    3.1158 N.ar    1  UNL1       -0.0463
     27 N          -4.6233   -1.5102    2.1714 N.ar    1  UNL1       -0.2376
     28 C          -2.5325    1.2236   -0.9387 C.ar    1  UNL1       -0.0375
     29 C          -1.2796    1.7565   -1.1312 C.ar    1  UNL1       -0.0549
     30 N           2.6209    0.0190   -1.9179 N.ar    1  UNL1       -0.1544
     31 H           3.3133   -4.8806    0.5307 H       1  UNL1        0.0230
     32 H           3.2338   -4.3866    2.2304 H       1  UNL1        0.0230
     33 H           1.8134   -4.0917    1.0841 H       1  UNL1        0.0230
     34 H           2.7381   -1.9787    1.0214 H       1  UNL1        0.0263
     35 H           4.4171   -2.5580    1.4304 H       1  UNL1        0.0263
     36 H           4.6210   -3.6311   -0.7633 H       1  UNL1        0.0269
     37 H           2.9895   -3.1232   -1.2314 H       1  UNL1        0.0269
     38 H           5.4589   -1.3609   -0.7073 H       1  UNL1        0.0344
     39 H           4.6739   -1.7071   -2.2660 H       1  UNL1        0.0344
     40 H           3.0233    2.7842    1.2356 H       1  UNL1        0.0344
     41 H           1.8405    3.3382    0.0510 H       1  UNL1        0.0344
     42 H           1.4878    1.3587    2.4282 H       1  UNL1        0.0269
     43 H           0.1589    1.6538    1.3170 H       1  UNL1        0.0269
     44 H           0.0669    3.2091    3.2808 H       1  UNL1        0.0263
     45 H           0.6232    4.1947    1.8290 H       1  UNL1        0.0263
     46 H           2.0978    4.1002    4.1746 H       1  UNL1        0.0230
     47 H           2.8056    4.3600    2.5204 H       1  UNL1        0.0230
     48 H           2.7996    2.7458    3.2725 H       1  UNL1        0.0230
     49 H           0.9297    2.8347   -2.0625 H       1  UNL1        0.0559
     50 H           1.1430    1.6083   -3.3159 H       1  UNL1        0.0559
     51 H          -0.1090   -0.4165   -3.3522 H       1  UNL1        0.0621
     52 H          -2.3363   -1.3715   -3.0158 H       1  UNL1        0.0638
     53 H          -5.1412   -0.3061   -3.4053 H       1  UNL1        0.0813
     54 H          -7.2730   -1.4342   -2.3186 H       1  UNL1        0.0633
     55 H          -6.7748   -1.8732    0.2041 H       1  UNL1        0.0640
     56 H          -5.5914   -1.9267    2.2858 H       1  UNL1        0.1924
     57 H          -3.1894    1.7079   -0.2541 H       1  UNL1        0.0638
     58 H          -1.0071    2.6601   -0.5710 H       1  UNL1        0.0621
@<TRIPOS>BOND
     1     1     2    1
     2     2     3    1
     3     3     4    1
     4     4     5    1
     5     5     6   ar
     6     6     7   ar
     7     7     8    1
     8     8     9    1
     9     9    10    1
    10    10    11    1
    11     7    12   ar
    12    12    13    1
    13    13    14    1
    14    14    15   ar
    15    15    16   ar
    16    16    17   ar
    17    17    18    1
    18    18    19   ar
    19    19    20   ar
    20    20    21   ar
    21    21    22   ar
    22    22    23    1
    23    23    24   ar
    24    24    25   ar
    25    25    26   ar
    26    26    27   ar
    27    17    28   ar
    28    28    29   ar
    29    12    30   ar
    30    30     5   ar
    31    29    14   ar
    32    22    18   ar
    33    27    23   ar
    34     1    31    1
    35     1    32    1
    36     1    33    1
    37     2    34    1
    38     2    35    1
    39     3    36    1
    40     3    37    1
    41     4    38    1
    42     4    39    1
    43     8    40    1
    44     8    41    1
    45     9    42    1
    46     9    43    1
    47    10    44    1
    48    10    45    1
    49    11    46    1
    50    11    47    1
    51    11    48    1
    52    13    49    1
    53    13    50    1
    54    15    51    1
    55    16    52    1
    56    19    53    1
    57    20    54    1
    58    21    55    1
    59    27    56    1
    60    28    57    1
    61    29    58    1
