@<TRIPOS>MOLECULE
*****
 34 34 0 0 0
SMALL
GASTEIGER

@<TRIPOS>ATOM
      1 O          -1.0167   -0.7466   -2.6186 O.3     1  UNL1       -0.3864
      2 C          -0.7340   -1.1461   -1.3216 C.3     1  UNL1        0.1145
      3 C           0.7458   -1.3929   -1.1068 C.3     1  UNL1        0.1392
      4 O           1.1189   -2.6749   -1.4773 O.3     1  UNL1       -0.3837
      5 C           0.8426   -1.1686    0.3978 C.3     1  UNL1        0.2213
      6 O           1.0928   -2.3903    1.0248 O.3     1  UNL1       -0.3608
      7 C           1.9592   -0.1699    0.7084 C.3     1  UNL1        0.1154
      8 O           3.1989   -0.6072    0.2790 O.3     1  UNL1       -0.2813
      9 P           4.4073    0.5368    0.6459 P.3     1  UNL1        0.4725
     10 O           3.7200    2.0947    0.7040 O.3     1  UNL1       -0.3026
     11 O           5.5964    0.4371   -0.5329 O.3     1  UNL1       -0.3026
     12 O           5.0067    0.1729    1.9834 O.2     1  UNL1       -0.2275
     13 O          -0.3420   -0.6160    0.8027 O.3     1  UNL1       -0.3364
     14 C          -0.9346   -0.0281   -0.3137 C.3     1  UNL1        0.1143
     15 C          -2.3904    0.2691   -0.0899 C.3     1  UNL1        0.0879
     16 O          -2.5473    1.1300    0.9657 O.3     1  UNL1       -0.2841
     17 P          -4.1316    1.5413    1.3178 P.3     1  UNL1        0.4724
     18 O          -5.2554    0.4169    0.7301 O.3     1  UNL1       -0.3026
     19 O          -4.5350    3.1056    0.7697 O.3     1  UNL1       -0.3026
     20 O          -4.2367    1.5635    2.8429 O.2     1  UNL1       -0.2275
     21 H          -1.4503   -1.5154   -3.0798 H       1  UNL1        0.2100
     22 H          -1.3535   -1.9994   -0.9899 H       1  UNL1        0.0648
     23 H           1.2743   -0.5985   -1.6536 H       1  UNL1        0.0675
     24 H           0.3564   -3.2573   -1.7457 H       1  UNL1        0.2101
     25 H           1.7368   -2.9515    0.5388 H       1  UNL1        0.2129
     26 H           1.9888   -0.1151    1.8264 H       1  UNL1        0.0620
     27 H           1.6533    0.7850    0.2769 H       1  UNL1        0.0620
     28 H           4.2113    2.6686    1.3389 H       1  UNL1        0.2220
     29 H           5.5776    1.2354   -1.1515 H       1  UNL1        0.2220
     30 H          -0.3526    0.8692   -0.5865 H       1  UNL1        0.0647
     31 H          -2.7340    0.8141   -1.0149 H       1  UNL1        0.0592
     32 H          -2.9968   -0.6481   -0.0573 H       1  UNL1        0.0592
     33 H          -5.7843    0.7763   -0.0058 H       1  UNL1        0.2220
     34 H          -3.6920    3.6095    0.5925 H       1  UNL1        0.2220
@<TRIPOS>BOND
     1     1     2    1
     2     2     3    1
     3     3     4    1
     4     3     5    1
     5     5     6    1
     6     5     7    1
     7     7     8    1
     8     8     9    1
     9     9    10    1
    10     9    11    1
    11     9    12    2
    12     5    13    1
    13    13    14    1
    14    14    15    1
    15    15    16    1
    16    16    17    1
    17    17    18    1
    18    17    19    1
    19    17    20    2
    20    14     2    1
    21     1    21    1
    22     2    22    1
    23     3    23    1
    24     4    24    1
    25     6    25    1
    26     7    26    1
    27     7    27    1
    28    10    28    1
    29    11    29    1
    30    14    30    1
    31    15    31    1
    32    15    32    1
    33    18    33    1
    34    19    34    1
