
     RDKit          3D

 59 64  0  0  0  0  0  0  0  0999 V2000
   -4.5061    1.4382    2.2918 C   0  0  0  0  0  0  0  0  0  0  0  0
   -3.9775    1.1605    1.0234 O   0  0  0  0  0  0  0  0  0  0  0  0
   -4.1644    1.9521   -0.0848 C   0  0  0  0  0  0  0  0  0  0  0  0
   -4.9155    3.1128   -0.0076 C   0  0  0  0  0  0  0  0  0  0  0  0
   -5.1029    3.9057   -1.1165 C   0  0  0  0  0  0  0  0  0  0  0  0
   -4.5302    3.5259   -2.3093 C   0  0  0  0  0  0  0  0  0  0  0  0
   -3.7886    2.3825   -2.3924 C   0  0  0  0  0  0  0  0  0  0  0  0
   -3.5936    1.5812   -1.2912 C   0  0  0  0  0  0  0  0  0  0  0  0
   -2.8105    0.3741   -1.3864 N   0  0  0  0  0  0  0  0  0  0  0  0
   -3.2221   -0.7793   -1.8506 N   0  0  0  0  0  0  0  0  0  0  0  0
   -2.2283   -1.6983   -1.7927 C   0  0  0  0  0  0  0  0  0  0  0  0
   -2.3899   -3.1047   -2.2469 C   0  0  0  0  0  0  0  0  0  0  0  0
   -1.1273   -1.0773   -1.2586 C   0  0  0  0  0  0  0  0  0  0  0  0
   -1.5285    0.2403   -1.0096 C   0  0  0  0  0  0  0  0  0  0  0  0
   -0.3787    0.9341   -0.4305 C   0  0  0  0  0  0  0  0  0  0  0  0
   -0.3849    2.1425   -0.0837 O   0  0  0  0  0  0  0  0  0  0  0  0
    0.7085    0.0337   -0.3318 N   0  0  0  0  0  0  0  0  0  0  0  0
    1.9929    0.3160    0.1871 C   0  0  0  0  0  0  0  0  0  0  0  0
    2.3119    0.1531    1.5251 C   0  0  0  0  0  0  0  0  0  0  0  0
    3.5831    0.4331    1.9827 C   0  0  0  0  0  0  0  0  0  0  0  0
    3.9154    0.2520    3.4317 C   0  0  0  0  0  0  0  0  0  0  0  0
    4.5434    0.8786    1.0996 C   0  0  0  0  0  0  0  0  0  0  0  0
    5.8440    1.2287    1.2255 N   0  0  0  0  0  0  0  0  0  0  0  0
    6.3035    1.5866    0.0398 N   0  0  0  0  0  0  0  0  0  0  0  0
    5.3306    1.4822   -0.8807 C   0  0  0  0  0  0  0  0  0  0  0  0
    5.3951    1.7790   -2.3394 C   0  0  0  0  0  0  0  0  0  0  0  0
    4.2468    1.0409   -0.2012 N   0  0  0  0  0  0  0  0  0  0  0  0
    3.0112    0.7687   -0.6437 C   0  0  0  0  0  0  0  0  0  0  0  0
    0.2749   -1.2482   -0.8600 C   0  0  0  0  0  0  0  0  0  0  0  0
    0.4997   -2.3247    0.1345 C   0  0  0  0  0  0  0  0  0  0  0  0
   -0.3072   -2.3931    1.2476 C   0  0  0  0  0  0  0  0  0  0  0  0
   -0.1171   -3.4004    2.1991 C   0  0  0  0  0  0  0  0  0  0  0  0
    0.8722   -4.3477    2.0576 C   0  0  0  0  0  0  0  0  0  0  0  0
    1.0940   -5.3431    2.9525 F   0  0  0  0  0  0  0  0  0  0  0  0
    1.6738   -4.2525    0.9192 C   0  0  0  0  0  0  0  0  0  0  0  0
    1.4975   -3.2610   -0.0315 C   0  0  0  0  0  0  0  0  0  0  0  0
    2.2811   -3.1692   -1.1403 F   0  0  0  0  0  0  0  0  0  0  0  0
   -4.0462    0.7950    3.0690 H   0  0  0  0  0  0  0  0  0  0  0  0
   -4.3126    2.4873    2.6026 H   0  0  0  0  0  0  0  0  0  0  0  0
   -5.6044    1.2454    2.2641 H   0  0  0  0  0  0  0  0  0  0  0  0
   -5.3650    3.4044    0.9435 H   0  0  0  0  0  0  0  0  0  0  0  0
   -5.6806    4.8158   -1.0988 H   0  0  0  0  0  0  0  0  0  0  0  0
   -4.6469    4.1196   -3.2257 H   0  0  0  0  0  0  0  0  0  0  0  0
   -3.3184    2.0514   -3.3299 H   0  0  0  0  0  0  0  0  0  0  0  0
   -1.4130   -3.5915   -2.4121 H   0  0  0  0  0  0  0  0  0  0  0  0
   -2.9516   -3.1891   -3.1988 H   0  0  0  0  0  0  0  0  0  0  0  0
   -3.0084   -3.6716   -1.4963 H   0  0  0  0  0  0  0  0  0  0  0  0
    1.5583   -0.1978    2.2251 H   0  0  0  0  0  0  0  0  0  0  0  0
    3.1287    0.7709    4.0363 H   0  0  0  0  0  0  0  0  0  0  0  0
    4.9362    0.5826    3.6588 H   0  0  0  0  0  0  0  0  0  0  0  0
    3.8219   -0.8228    3.6870 H   0  0  0  0  0  0  0  0  0  0  0  0
    5.9868    2.6841   -2.4931 H   0  0  0  0  0  0  0  0  0  0  0  0
    4.3698    1.8605   -2.7521 H   0  0  0  0  0  0  0  0  0  0  0  0
    5.9495    0.9360   -2.8437 H   0  0  0  0  0  0  0  0  0  0  0  0
    2.7920    0.9064   -1.6947 H   0  0  0  0  0  0  0  0  0  0  0  0
    0.8850   -1.4209   -1.7771 H   0  0  0  0  0  0  0  0  0  0  0  0
   -1.0901   -1.6584    1.3777 H   0  0  0  0  0  0  0  0  0  0  0  0
   -0.7548   -3.4488    3.0716 H   0  0  0  0  0  0  0  0  0  0  0  0
    2.4576   -4.9616    0.7587 H   0  0  0  0  0  0  0  0  0  0  0  0
  1  2  1  0
  2  3  1  0
  3  4  2  0
  4  5  1  0
  5  6  2  0
  6  7  1  0
  7  8  2  0
  8  9  1  0
  9 10  1  0
 10 11  2  0
 11 12  1  0
 11 13  1  0
 13 14  2  0
 14 15  1  0
 15 16  2  0
 15 17  1  0
 17 18  1  0
 18 19  1  0
 19 20  2  0
 20 21  1  0
 20 22  1  0
 22 23  2  0
 23 24  1  0
 24 25  2  0
 25 26  1  0
 25 27  1  0
 27 28  1  0
 17 29  1  0
 29 30  1  0
 30 31  2  0
 31 32  1  0
 32 33  2  0
 33 34  1  0
 33 35  1  0
 35 36  2  0
 36 37  1  0
  8  3  1  0
 14  9  1  0
 28 18  2  0
 36 30  1  0
 29 13  1  0
 27 22  1  0
  1 38  1  0
  1 39  1  0
  1 40  1  0
  4 41  1  0
  5 42  1  0
  6 43  1  0
  7 44  1  0
 12 45  1  0
 12 46  1  0
 12 47  1  0
 19 48  1  0
 21 49  1  0
 21 50  1  0
 21 51  1  0
 26 52  1  0
 26 53  1  0
 26 54  1  0
 28 55  1  0
 29 56  1  0
 31 57  1  0
 32 58  1  0
 35 59  1  0
M  END
$$$$
