@<TRIPOS>MOLECULE
*****
 59 64 0 0 0
SMALL
GASTEIGER

@<TRIPOS>ATOM
      1 C          -4.5061    1.4382    2.2918 C.3     1  UNL1        0.0789
      2 O          -3.9775    1.1605    1.0234 O.3     1  UNL1       -0.4930
      3 C          -4.1644    1.9521   -0.0848 C.ar    1  UNL1        0.1454
      4 C          -4.9155    3.1128   -0.0076 C.ar    1  UNL1       -0.0178
      5 C          -5.1029    3.9057   -1.1165 C.ar    1  UNL1       -0.0582
      6 C          -4.5302    3.5259   -2.3093 C.ar    1  UNL1       -0.0595
      7 C          -3.7886    2.3825   -2.3924 C.ar    1  UNL1       -0.0327
      8 C          -3.5936    1.5812   -1.2912 C.ar    1  UNL1        0.1077
      9 N          -2.8105    0.3741   -1.3864 N.ar    1  UNL1       -0.2235
     10 N          -3.2221   -0.7793   -1.8506 N.ar    1  UNL1       -0.1705
     11 C          -2.2283   -1.6983   -1.7927 C.ar    1  UNL1        0.0664
     12 C          -2.3899   -3.1047   -2.2469 C.3     1  UNL1       -0.0202
     13 C          -1.1273   -1.0773   -1.2586 C.ar    1  UNL1        0.0310
     14 C          -1.5285    0.2403   -1.0096 C.ar    1  UNL1        0.1352
     15 C          -0.3787    0.9341   -0.4305 C.2     1  UNL1        0.2705
     16 O          -0.3849    2.1425   -0.0837 O.2     1  UNL1       -0.2679
     17 N           0.7085    0.0337   -0.3318 N.am    1  UNL1       -0.2530
     18 C           1.9929    0.3160    0.1871 C.ar    1  UNL1        0.0545
     19 C           2.3119    0.1531    1.5251 C.ar    1  UNL1       -0.0324
     20 C           3.5831    0.4331    1.9827 C.ar    1  UNL1       -0.0041
     21 C           3.9154    0.2520    3.4317 C.3     1  UNL1       -0.0361
     22 C           4.5434    0.8786    1.0996 C.ar    1  UNL1        0.1641
     23 N           5.8440    1.2287    1.2255 N.ar    1  UNL1       -0.1292
     24 N           6.3035    1.5866    0.0398 N.ar    1  UNL1       -0.1340
     25 C           5.3306    1.4822   -0.8807 C.ar    1  UNL1        0.1347
     26 C           5.3951    1.7790   -2.3394 C.3     1  UNL1       -0.0041
     27 N           4.2468    1.0409   -0.2012 N.ar    1  UNL1       -0.2846
     28 C           3.0112    0.7687   -0.6437 C.ar    1  UNL1        0.0344
     29 C           0.2749   -1.2482   -0.8600 C.3     1  UNL1        0.0881
     30 C           0.4997   -2.3247    0.1345 C.ar    1  UNL1        0.0132
     31 C          -0.3072   -2.3931    1.2476 C.ar    1  UNL1       -0.0510
     32 C          -0.1171   -3.4004    2.1991 C.ar    1  UNL1       -0.0259
     33 C           0.8722   -4.3477    2.0576 C.ar    1  UNL1        0.1261
     34 F           1.0940   -5.3431    2.9525 F       1  UNL1       -0.2054
     35 C           1.6738   -4.2525    0.9192 C.ar    1  UNL1        0.0091
     36 C           1.4975   -3.2610   -0.0315 C.ar    1  UNL1        0.1314
     37 F           2.2811   -3.1692   -1.1403 F       1  UNL1       -0.2050
     38 H          -4.0462    0.7950    3.0690 H       1  UNL1        0.0660
     39 H          -4.3126    2.4873    2.6026 H       1  UNL1        0.0660
     40 H          -5.6044    1.2454    2.2641 H       1  UNL1        0.0660
     41 H          -5.3650    3.4044    0.9435 H       1  UNL1        0.0655
     42 H          -5.6806    4.8158   -1.0988 H       1  UNL1        0.0619
     43 H          -4.6469    4.1196   -3.2257 H       1  UNL1        0.0618
     44 H          -3.3184    2.0514   -3.3299 H       1  UNL1        0.0640
     45 H          -1.4130   -3.5915   -2.4121 H       1  UNL1        0.0293
     46 H          -2.9516   -3.1891   -3.1988 H       1  UNL1        0.0293
     47 H          -3.0084   -3.6716   -1.4963 H       1  UNL1        0.0293
     48 H           1.5583   -0.1978    2.2251 H       1  UNL1        0.0640
     49 H           3.1287    0.7709    4.0363 H       1  UNL1        0.0279
     50 H           4.9362    0.5826    3.6588 H       1  UNL1        0.0279
     51 H           3.8219   -0.8228    3.6870 H       1  UNL1        0.0279
     52 H           5.9868    2.6841   -2.4931 H       1  UNL1        0.0308
     53 H           4.3698    1.8605   -2.7521 H       1  UNL1        0.0308
     54 H           5.9495    0.9360   -2.8437 H       1  UNL1        0.0308
     55 H           2.7920    0.9064   -1.6947 H       1  UNL1        0.0833
     56 H           0.8850   -1.4209   -1.7771 H       1  UNL1        0.0607
     57 H          -1.0901   -1.6584    1.3777 H       1  UNL1        0.0623
     58 H          -0.7548   -3.4488    3.0716 H       1  UNL1        0.0646
     59 H           2.4576   -4.9616    0.7587 H       1  UNL1        0.0675
@<TRIPOS>BOND
     1     1     2    1
     2     2     3    1
     3     3     4   ar
     4     4     5   ar
     5     5     6   ar
     6     6     7   ar
     7     7     8   ar
     8     8     9    1
     9     9    10   ar
    10    10    11   ar
    11    11    12    1
    12    11    13   ar
    13    13    14   ar
    14    14    15    1
    15    15    16    2
    16    15    17   am
    17    17    18    1
    18    18    19   ar
    19    19    20   ar
    20    20    21    1
    21    20    22   ar
    22    22    23   ar
    23    23    24   ar
    24    24    25   ar
    25    25    26    1
    26    25    27   ar
    27    27    28   ar
    28    17    29    1
    29    29    30    1
    30    30    31   ar
    31    31    32   ar
    32    32    33   ar
    33    33    34    1
    34    33    35   ar
    35    35    36   ar
    36    36    37    1
    37     8     3   ar
    38    14     9   ar
    39    28    18   ar
    40    36    30   ar
    41    29    13    1
    42    27    22   ar
    43     1    38    1
    44     1    39    1
    45     1    40    1
    46     4    41    1
    47     5    42    1
    48     6    43    1
    49     7    44    1
    50    12    45    1
    51    12    46    1
    52    12    47    1
    53    19    48    1
    54    21    49    1
    55    21    50    1
    56    21    51    1
    57    26    52    1
    58    26    53    1
    59    26    54    1
    60    28    55    1
    61    29    56    1
    62    31    57    1
    63    32    58    1
    64    35    59    1
