@<TRIPOS>MOLECULE
*****
 42 45 0 0 0
SMALL
GASTEIGER

@<TRIPOS>ATOM
      1 C           4.9944   -0.7365   -1.0726 C.3     1  UNL1       -0.0125
      2 N           3.6461   -0.4713   -0.6781 N.3     1  UNL1       -0.2982
      3 C           3.2491   -1.0606    0.5573 C.3     1  UNL1        0.0348
      4 C           2.0172   -0.3888    1.0780 C.3     1  UNL1        0.0933
      5 N           1.2019    0.2788    0.1030 N.pl3   1  UNL1       -0.2176
      6 C          -0.2327    0.2488    0.1020 C.2     1  UNL1        0.3231
      7 N          -0.8216    1.2721    0.6772 N.2     1  UNL1       -0.0395
      8 C          -2.1878    1.5951    0.8721 C.ar    1  UNL1        0.1988
      9 C          -2.3953    2.8900    1.3371 C.ar    1  UNL1        0.0093
     10 C          -3.6504    3.4012    1.5942 C.ar    1  UNL1        0.0452
     11 CL         -3.8756    5.0467    2.1827 Cl      1  UNL1       -0.0834
     12 C          -4.7332    2.5777    1.3747 C.ar    1  UNL1       -0.0414
     13 C          -4.5366    1.2820    0.9100 C.ar    1  UNL1       -0.0349
     14 C          -3.2795    0.7850    0.6577 C.ar    1  UNL1        0.0829
     15 N          -3.2674   -0.5579    0.1857 N.pl3   1  UNL1       -0.3104
     16 C          -2.2093   -1.2415   -0.4725 C.ar    1  UNL1        0.0464
     17 C          -2.6174   -2.3734   -1.1302 C.ar    1  UNL1       -0.0397
     18 C          -1.7421   -3.1652   -1.8282 C.ar    1  UNL1       -0.0600
     19 C          -0.3976   -2.8267   -1.8823 C.ar    1  UNL1       -0.0608
     20 C           0.0450   -1.6850   -1.2253 C.ar    1  UNL1       -0.0451
     21 C          -0.8518   -0.9050   -0.5304 C.ar    1  UNL1        0.0867
     22 C           1.8526    1.0475   -0.9272 C.3     1  UNL1        0.0933
     23 C           3.3513    0.9263   -0.6758 C.3     1  UNL1        0.0348
     24 H           5.6888   -0.4595   -0.2677 H       1  UNL1        0.0391
     25 H           5.1264   -1.7926   -1.4053 H       1  UNL1        0.0391
     26 H           5.2254   -0.0357   -1.9278 H       1  UNL1        0.0391
     27 H           2.9419   -2.1232    0.3163 H       1  UNL1        0.0463
     28 H           4.0687   -1.0957    1.3120 H       1  UNL1        0.0463
     29 H           2.3874    0.4353    1.7661 H       1  UNL1        0.0739
     30 H           1.4212   -1.0489    1.7502 H       1  UNL1        0.0739
     31 H          -1.5563    3.5424    1.5123 H       1  UNL1        0.0676
     32 H          -5.7172    2.9439    1.5642 H       1  UNL1        0.0633
     33 H          -5.3721    0.6102    0.7279 H       1  UNL1        0.0638
     34 H          -4.1405   -1.0998    0.3425 H       1  UNL1        0.1523
     35 H          -3.6751   -2.6476   -1.0927 H       1  UNL1        0.0636
     36 H          -2.0415   -4.0567   -2.3506 H       1  UNL1        0.0618
     37 H           0.3001   -3.4394   -2.4268 H       1  UNL1        0.0618
     38 H           1.0894   -1.4224   -1.2698 H       1  UNL1        0.0627
     39 H           1.5739    0.8011   -1.9492 H       1  UNL1        0.0739
     40 H           1.6164    2.1250   -0.6787 H       1  UNL1        0.0739
     41 H           3.5753    1.3332    0.3306 H       1  UNL1        0.0463
     42 H           3.9284    1.4912   -1.4531 H       1  UNL1        0.0463
@<TRIPOS>BOND
     1     1     2    1
     2     2     3    1
     3     3     4    1
     4     4     5    1
     5     5     6    1
     6     6     7    2
     7     7     8    1
     8     8     9   ar
     9     9    10   ar
    10    10    11    1
    11    10    12   ar
    12    12    13   ar
    13    13    14   ar
    14    14    15    1
    15    15    16    1
    16    16    17   ar
    17    17    18   ar
    18    18    19   ar
    19    19    20   ar
    20    20    21   ar
    21     5    22    1
    22    22    23    1
    23    23     2    1
    24    21     6    1
    25    14     8   ar
    26    21    16   ar
    27     1    24    1
    28     1    25    1
    29     1    26    1
    30     3    27    1
    31     3    28    1
    32     4    29    1
    33     4    30    1
    34     9    31    1
    35    12    32    1
    36    13    33    1
    37    15    34    1
    38    17    35    1
    39    18    36    1
    40    19    37    1
    41    20    38    1
    42    22    39    1
    43    22    40    1
    44    23    41    1
    45    23    42    1
