@<TRIPOS>MOLECULE
*****
 49 53 0 0 0
SMALL
GASTEIGER

@<TRIPOS>ATOM
      1 C          -2.9595   -4.1267    0.0275 C.3     1  UNL1       -0.0122
      2 N          -2.6596   -2.7711    0.3687 N.3     1  UNL1       -0.2988
      3 C          -3.6099   -1.8501   -0.2736 C.3     1  UNL1        0.0110
      4 C          -3.2446   -2.1156   -1.7428 C.3     1  UNL1       -0.0359
      5 C          -1.7278   -1.9005   -1.6474 C.3     1  UNL1       -0.0353
      6 C          -1.4216   -2.3273   -0.2542 C.3     1  UNL1        0.0198
      7 C          -0.9205   -1.1734    0.6227 C.3     1  UNL1        0.0320
      8 C           0.2297   -0.4972    0.0244 C.ar    1  UNL1        0.1076
      9 N           0.6008    0.1275   -0.9556 N.ar    1  UNL1       -0.1456
     10 N           1.7697    0.6022   -1.1470 N.ar    1  UNL1       -0.1412
     11 C           2.7060    0.4904   -0.3457 C.ar    1  UNL1        0.1322
     12 C           4.0933    0.8307   -0.1400 C.ar    1  UNL1        0.0090
     13 C           4.7187    1.5434   -1.1320 C.ar    1  UNL1       -0.0520
     14 C           6.0428    1.9273   -1.0503 C.ar    1  UNL1       -0.0611
     15 C           6.7748    1.5874    0.0658 C.ar    1  UNL1       -0.0617
     16 C           6.1766    0.8771    1.0701 C.ar    1  UNL1       -0.0611
     17 C           4.8346    0.4957    0.9723 C.ar    1  UNL1       -0.0520
     18 S           1.7936   -0.4919    0.9901 S.2     1  UNL1       -0.0501
     19 C          -2.0572   -0.2079    0.8549 C.3     1  UNL1       -0.0042
     20 C          -1.6449    1.1977    0.8053 C.ar    1  UNL1       -0.0434
     21 C          -1.3480    1.8439    1.9830 C.ar    1  UNL1       -0.0569
     22 C          -0.9636    3.1532    2.0619 C.ar    1  UNL1       -0.0431
     23 C          -0.8576    3.8963    0.9151 C.ar    1  UNL1        0.0410
     24 CL         -0.3642    5.5909    0.9713 Cl      1  UNL1       -0.0835
     25 C          -1.1488    3.2786   -0.2864 C.ar    1  UNL1       -0.0431
     26 C          -1.5352    1.9558   -0.3438 C.ar    1  UNL1       -0.0569
     27 C          -3.2597   -0.4309    0.0033 C.3     1  UNL1       -0.0298
     28 H          -2.7708   -4.7454    0.9511 H       1  UNL1        0.0391
     29 H          -4.0097   -4.2985   -0.2832 H       1  UNL1        0.0391
     30 H          -2.2573   -4.5465   -0.7358 H       1  UNL1        0.0391
     31 H          -4.6512   -2.1196   -0.0651 H       1  UNL1        0.0463
     32 H          -3.7161   -1.3532   -2.3806 H       1  UNL1        0.0281
     33 H          -3.4822   -3.1488   -2.0287 H       1  UNL1        0.0281
     34 H          -1.1978   -2.4682   -2.4333 H       1  UNL1        0.0281
     35 H          -1.5300   -0.8185   -1.7499 H       1  UNL1        0.0281
     36 H          -0.6908   -3.1581   -0.2584 H       1  UNL1        0.0469
     37 H          -0.6169   -1.6666    1.5664 H       1  UNL1        0.0391
     38 H           4.1686    1.8206   -2.0129 H       1  UNL1        0.0624
     39 H           6.5310    2.4861   -1.8296 H       1  UNL1        0.0618
     40 H           7.8292    1.8858    0.1450 H       1  UNL1        0.0618
     41 H           6.7573    0.6097    1.9511 H       1  UNL1        0.0618
     42 H           4.3557   -0.0608    1.7529 H       1  UNL1        0.0624
     43 H          -2.3897   -0.4170    1.9202 H       1  UNL1        0.0356
     44 H          -1.4211    1.2810    2.9281 H       1  UNL1        0.0621
     45 H          -0.7425    3.6110    3.0106 H       1  UNL1        0.0632
     46 H          -1.0543    3.8964   -1.1723 H       1  UNL1        0.0632
     47 H          -1.7582    1.5228   -1.3058 H       1  UNL1        0.0621
     48 H          -4.1361    0.0151    0.5625 H       1  UNL1        0.0286
     49 H          -3.2354    0.1669   -0.9500 H       1  UNL1        0.0286
@<TRIPOS>BOND
     1     1     2    1
     2     2     3    1
     3     3     4    1
     4     4     5    1
     5     5     6    1
     6     6     7    1
     7     7     8    1
     8     8     9   ar
     9     9    10   ar
    10    10    11   ar
    11    11    12    1
    12    12    13   ar
    13    13    14   ar
    14    14    15   ar
    15    15    16   ar
    16    16    17   ar
    17    11    18   ar
    18     7    19    1
    19    19    20    1
    20    20    21   ar
    21    21    22   ar
    22    22    23   ar
    23    23    24    1
    24    23    25   ar
    25    25    26   ar
    26    19    27    1
    27     6     2    1
    28    18     8   ar
    29    26    20   ar
    30    27     3    1
    31    17    12   ar
    32     1    28    1
    33     1    29    1
    34     1    30    1
    35     3    31    1
    36     4    32    1
    37     4    33    1
    38     5    34    1
    39     5    35    1
    40     6    36    1
    41     7    37    1
    42    13    38    1
    43    14    39    1
    44    15    40    1
    45    16    41    1
    46    17    42    1
    47    19    43    1
    48    21    44    1
    49    22    45    1
    50    25    46    1
    51    26    47    1
    52    27    48    1
    53    27    49    1
