
     RDKit          3D

 61 63  0  0  0  0  0  0  0  0999 V2000
    7.4329   -1.2497    0.6504 C   0  0  0  0  0  0  0  0  0  0  0  0
    6.0519   -1.8565    0.6267 C   0  0  0  0  0  0  0  0  0  0  0  0
    5.1108   -0.8477    0.0533 C   0  0  0  0  0  0  0  0  0  0  0  0
    3.4395   -1.4614   -0.0227 S   0  0  0  0  0  6  0  0  0  0  0  0
    3.0580   -1.8379    1.3909 O   0  0  0  0  0  0  0  0  0  0  0  0
    3.3764   -2.7267   -0.8269 O   0  0  0  0  0  0  0  0  0  0  0  0
    2.3964   -0.2786   -0.6829 N   0  0  0  0  0  0  0  0  0  0  0  0
    2.2902    0.9303    0.0407 C   0  0  0  0  0  0  0  0  0  0  0  0
    1.0975    1.0578    0.9275 C   0  0  0  0  0  0  0  0  0  0  0  0
   -0.2117    0.5527    0.3085 C   0  0  0  0  0  0  0  0  0  0  0  0
   -0.5393   -0.6823    1.1656 C   0  0  0  0  0  0  0  0  0  0  0  0
   -1.7241   -1.3736    0.9376 N   0  0  0  0  0  0  0  0  0  0  0  0
   -2.2558   -2.0922   -0.1240 C   0  0  0  0  0  0  0  0  0  0  0  0
   -1.6243   -2.2353   -1.1737 O   0  0  0  0  0  0  0  0  0  0  0  0
   -3.5936   -2.7303   -0.0825 C   0  0  0  0  0  0  0  0  0  0  0  0
   -4.5735   -2.3634   -0.9787 C   0  0  0  0  0  0  0  0  0  0  0  0
   -5.8350   -2.9486   -0.9591 C   0  0  0  0  0  0  0  0  0  0  0  0
   -6.1456   -3.9219   -0.0342 C   0  0  0  0  0  0  0  0  0  0  0  0
   -7.3833   -4.4912   -0.0202 F   0  0  0  0  0  0  0  0  0  0  0  0
   -5.1643   -4.2878    0.8616 C   0  0  0  0  0  0  0  0  0  0  0  0
   -3.9009   -3.7033    0.8437 C   0  0  0  0  0  0  0  0  0  0  0  0
   -2.6537   -4.1824    1.9981 Cl  0  0  0  0  0  0  0  0  0  0  0  0
   -1.3223    1.5044    0.3978 C   0  0  0  0  0  0  0  0  0  0  0  0
   -2.4583    0.9662    0.7901 O   0  0  0  0  0  0  0  0  0  0  0  0
   -1.3358    2.8620    0.1333 N   0  0  0  0  0  0  0  0  0  0  0  0
   -0.2512    3.6874   -0.2614 C   0  0  0  0  0  0  0  0  0  0  0  0
   -0.7539    4.8525   -1.1512 C   0  0  0  0  0  0  0  0  0  0  0  0
   -1.8692    4.3769   -1.8527 O   0  0  0  0  0  0  0  0  0  0  0  0
   -2.9653    4.2500   -1.0125 C   0  0  0  0  0  0  0  0  0  0  0  0
   -2.6491    3.5409    0.2798 C   0  0  0  0  0  0  0  0  0  0  0  0
    0.1052    0.2259   -1.1104 C   0  0  0  0  0  0  0  0  0  0  0  0
    1.1863   -0.8335   -1.2152 C   0  0  0  0  0  0  0  0  0  0  0  0
    8.1994   -2.0536    0.5850 H   0  0  0  0  0  0  0  0  0  0  0  0
    7.5633   -0.6838    1.5898 H   0  0  0  0  0  0  0  0  0  0  0  0
    7.5170   -0.5532   -0.2227 H   0  0  0  0  0  0  0  0  0  0  0  0
    6.0978   -2.7328   -0.0661 H   0  0  0  0  0  0  0  0  0  0  0  0
    5.7837   -2.1566    1.6638 H   0  0  0  0  0  0  0  0  0  0  0  0
    5.1834    0.0754    0.6333 H   0  0  0  0  0  0  0  0  0  0  0  0
    5.4376   -0.6352   -0.9870 H   0  0  0  0  0  0  0  0  0  0  0  0
    3.1861    0.9742    0.7366 H   0  0  0  0  0  0  0  0  0  0  0  0
    2.4105    1.8393   -0.5953 H   0  0  0  0  0  0  0  0  0  0  0  0
    1.3263    0.4681    1.8524 H   0  0  0  0  0  0  0  0  0  0  0  0
    0.9821    2.1156    1.2588 H   0  0  0  0  0  0  0  0  0  0  0  0
   -0.4927   -0.2641    2.2197 H   0  0  0  0  0  0  0  0  0  0  0  0
    0.3931   -1.3017    1.1172 H   0  0  0  0  0  0  0  0  0  0  0  0
   -2.4220   -1.3567    1.7985 H   0  0  0  0  0  0  0  0  0  0  0  0
   -4.3151   -1.5933   -1.7042 H   0  0  0  0  0  0  0  0  0  0  0  0
   -6.5927   -2.6388   -1.6810 H   0  0  0  0  0  0  0  0  0  0  0  0
   -5.3963   -5.0551    1.5973 H   0  0  0  0  0  0  0  0  0  0  0  0
    0.5801    3.2519   -0.8019 H   0  0  0  0  0  0  0  0  0  0  0  0
    0.1920    4.2476    0.6237 H   0  0  0  0  0  0  0  0  0  0  0  0
   -1.0115    5.7314   -0.5562 H   0  0  0  0  0  0  0  0  0  0  0  0
    0.0058    5.1326   -1.8962 H   0  0  0  0  0  0  0  0  0  0  0  0
   -3.3573    5.2670   -0.7427 H   0  0  0  0  0  0  0  0  0  0  0  0
   -3.7686    3.7338   -1.5987 H   0  0  0  0  0  0  0  0  0  0  0  0
   -2.5517    4.2329    1.1232 H   0  0  0  0  0  0  0  0  0  0  0  0
   -3.4581    2.8360    0.4871 H   0  0  0  0  0  0  0  0  0  0  0  0
   -0.7340    0.1069   -1.7911 H   0  0  0  0  0  0  0  0  0  0  0  0
    0.6362    1.1580   -1.5216 H   0  0  0  0  0  0  0  0  0  0  0  0
    1.3087   -1.0691   -2.2990 H   0  0  0  0  0  0  0  0  0  0  0  0
    0.9625   -1.7798   -0.7200 H   0  0  0  0  0  0  0  0  0  0  0  0
  1  2  1  0
  2  3  1  0
  3  4  1  0
  4  5  2  0
  4  6  2  0
  4  7  1  0
  7  8  1  0
  8  9  1  0
  9 10  1  0
 10 11  1  0
 11 12  1  0
 12 13  1  0
 13 14  2  0
 13 15  1  0
 15 16  2  0
 16 17  1  0
 17 18  2  0
 18 19  1  0
 18 20  1  0
 20 21  2  0
 21 22  1  0
 10 23  1  0
 23 24  2  0
 23 25  1  0
 25 26  1  0
 26 27  1  0
 27 28  1  0
 28 29  1  0
 29 30  1  0
 10 31  1  0
 31 32  1  0
 32  7  1  0
 21 15  1  0
 30 25  1  0
  1 33  1  0
  1 34  1  0
  1 35  1  0
  2 36  1  0
  2 37  1  0
  3 38  1  0
  3 39  1  0
  8 40  1  0
  8 41  1  0
  9 42  1  0
  9 43  1  0
 11 44  1  0
 11 45  1  0
 12 46  1  0
 16 47  1  0
 17 48  1  0
 20 49  1  0
 26 50  1  0
 26 51  1  0
 27 52  1  0
 27 53  1  0
 29 54  1  0
 29 55  1  0
 30 56  1  0
 30 57  1  0
 31 58  1  0
 31 59  1  0
 32 60  1  0
 32 61  1  0
M  END
$$$$
