@<TRIPOS>MOLECULE
*****
 61 63 0 0 0
SMALL
GASTEIGER

@<TRIPOS>ATOM
      1 C           7.4329   -1.2497    0.6504 C.3     1  UNL1       -0.0638
      2 C           6.0519   -1.8565    0.6267 C.3     1  UNL1       -0.0350
      3 C           5.1108   -0.8477    0.0533 C.3     1  UNL1        0.0817
      4 S           3.4395   -1.4614   -0.0227 S.O2    1  UNL1        0.0318
      5 O           3.0580   -1.8379    1.3909 O.2     1  UNL1       -0.1580
      6 O           3.3764   -2.7267   -0.8269 O.2     1  UNL1       -0.1580
      7 N           2.3964   -0.2786   -0.6829 N.3     1  UNL1       -0.1811
      8 C           2.2902    0.9303    0.0407 C.3     1  UNL1        0.0211
      9 C           1.0975    1.0578    0.9275 C.3     1  UNL1       -0.0231
     10 C          -0.2117    0.5527    0.3085 C.3     1  UNL1        0.0650
     11 C          -0.5393   -0.6823    1.1656 C.3     1  UNL1        0.0259
     12 N          -1.7241   -1.3736    0.9376 N.am    1  UNL1       -0.3103
     13 C          -2.2558   -2.0922   -0.1240 C.2     1  UNL1        0.2455
     14 O          -1.6243   -2.2353   -1.1737 O.2     1  UNL1       -0.2702
     15 C          -3.5936   -2.7303   -0.0825 C.ar    1  UNL1        0.0551
     16 C          -4.5735   -2.3634   -0.9787 C.ar    1  UNL1       -0.0455
     17 C          -5.8350   -2.9486   -0.9591 C.ar    1  UNL1       -0.0256
     18 C          -6.1456   -3.9219   -0.0342 C.ar    1  UNL1        0.1248
     19 F          -7.3833   -4.4912   -0.0202 F       1  UNL1       -0.2054
     20 C          -5.1643   -4.2878    0.8616 C.ar    1  UNL1       -0.0074
     21 C          -3.9009   -3.7033    0.8437 C.ar    1  UNL1        0.0558
     22 CL         -2.6537   -4.1824    1.9981 Cl      1  UNL1       -0.0827
     23 C          -1.3223    1.5044    0.3978 C.2     1  UNL1        0.2235
     24 O          -2.4583    0.9662    0.7901 O.2     1  UNL1       -0.2749
     25 N          -1.3358    2.8620    0.1333 N.am    1  UNL1       -0.2966
     26 C          -0.2512    3.6874   -0.2614 C.3     1  UNL1        0.0382
     27 C          -0.7539    4.8525   -1.1512 C.3     1  UNL1        0.0635
     28 O          -1.8692    4.3769   -1.8527 O.3     1  UNL1       -0.3767
     29 C          -2.9653    4.2500   -1.0125 C.3     1  UNL1        0.0635
     30 C          -2.6491    3.5409    0.2798 C.3     1  UNL1        0.0382
     31 C           0.1052    0.2259   -1.1104 C.3     1  UNL1       -0.0231
     32 C           1.1863   -0.8335   -1.2152 C.3     1  UNL1        0.0211
     33 H           8.1994   -2.0536    0.5850 H       1  UNL1        0.0230
     34 H           7.5633   -0.6838    1.5898 H       1  UNL1        0.0230
     35 H           7.5170   -0.5532   -0.2227 H       1  UNL1        0.0230
     36 H           6.0978   -2.7328   -0.0661 H       1  UNL1        0.0279
     37 H           5.7837   -2.1566    1.6638 H       1  UNL1        0.0279
     38 H           5.1834    0.0754    0.6333 H       1  UNL1        0.0515
     39 H           5.4376   -0.6352   -0.9870 H       1  UNL1        0.0515
     40 H           3.1861    0.9742    0.7366 H       1  UNL1        0.0444
     41 H           2.4105    1.8393   -0.5953 H       1  UNL1        0.0444
     42 H           1.3263    0.4681    1.8524 H       1  UNL1        0.0289
     43 H           0.9821    2.1156    1.2588 H       1  UNL1        0.0289
     44 H          -0.4927   -0.2641    2.2197 H       1  UNL1        0.0472
     45 H           0.3931   -1.3017    1.1172 H       1  UNL1        0.0472
     46 H          -2.4220   -1.3567    1.7985 H       1  UNL1        0.1490
     47 H          -4.3151   -1.5933   -1.7042 H       1  UNL1        0.0626
     48 H          -6.5927   -2.6388   -1.6810 H       1  UNL1        0.0646
     49 H          -5.3963   -5.0551    1.5973 H       1  UNL1        0.0661
     50 H           0.5801    3.2519   -0.8019 H       1  UNL1        0.0487
     51 H           0.1920    4.2476    0.6237 H       1  UNL1        0.0487
     52 H          -1.0115    5.7314   -0.5562 H       1  UNL1        0.0575
     53 H           0.0058    5.1326   -1.8962 H       1  UNL1        0.0575
     54 H          -3.3573    5.2670   -0.7427 H       1  UNL1        0.0575
     55 H          -3.7686    3.7338   -1.5987 H       1  UNL1        0.0575
     56 H          -2.5517    4.2329    1.1232 H       1  UNL1        0.0487
     57 H          -3.4581    2.8360    0.4871 H       1  UNL1        0.0487
     58 H          -0.7340    0.1069   -1.7911 H       1  UNL1        0.0289
     59 H           0.6362    1.1580   -1.5216 H       1  UNL1        0.0289
     60 H           1.3087   -1.0691   -2.2990 H       1  UNL1        0.0444
     61 H           0.9625   -1.7798   -0.7200 H       1  UNL1        0.0444
@<TRIPOS>BOND
     1     1     2    1
     2     2     3    1
     3     3     4    1
     4     4     5    2
     5     4     6    2
     6     4     7    1
     7     7     8    1
     8     8     9    1
     9     9    10    1
    10    10    11    1
    11    11    12    1
    12    12    13   am
    13    13    14    2
    14    13    15    1
    15    15    16   ar
    16    16    17   ar
    17    17    18   ar
    18    18    19    1
    19    18    20   ar
    20    20    21   ar
    21    21    22    1
    22    10    23    1
    23    23    24    2
    24    23    25   am
    25    25    26    1
    26    26    27    1
    27    27    28    1
    28    28    29    1
    29    29    30    1
    30    10    31    1
    31    31    32    1
    32    32     7    1
    33    21    15   ar
    34    30    25    1
    35     1    33    1
    36     1    34    1
    37     1    35    1
    38     2    36    1
    39     2    37    1
    40     3    38    1
    41     3    39    1
    42     8    40    1
    43     8    41    1
    44     9    42    1
    45     9    43    1
    46    11    44    1
    47    11    45    1
    48    12    46    1
    49    16    47    1
    50    17    48    1
    51    20    49    1
    52    26    50    1
    53    26    51    1
    54    27    52    1
    55    27    53    1
    56    29    54    1
    57    29    55    1
    58    30    56    1
    59    30    57    1
    60    31    58    1
    61    31    59    1
    62    32    60    1
    63    32    61    1
