
     RDKit          3D

 20 20  0  0  0  0  0  0  0  0999 V2000
    4.1882    0.4512   -1.1372 O   0  0  0  0  0  0  0  0  0  0  0  0
    3.6964    0.5591    0.0008 N   0  0  0  0  0  4  0  0  0  0  0  0
    4.4734    0.9695    1.0454 O   0  0  0  0  0  1  0  0  0  0  0  0
    2.3469    0.2588    0.2054 C   0  0  0  0  0  0  0  0  0  0  0  0
    1.8080    0.3801    1.4679 C   0  0  0  0  0  0  0  0  0  0  0  0
    0.4831    0.0941    1.7118 C   0  0  0  0  0  0  0  0  0  0  0  0
   -0.3327   -0.3278    0.6591 C   0  0  0  0  0  0  0  0  0  0  0  0
   -1.6459   -0.6038    0.9377 O   0  0  0  0  0  0  0  0  0  0  0  0
   -2.9706   -0.2300   -0.0372 P   0  0  0  0  0  5  0  0  0  0  0  0
   -2.6178    0.1733   -1.4273 O   0  0  0  0  0  0  0  0  0  0  0  0
   -3.8576    1.0294    0.6851 O   0  0  0  0  0  0  0  0  0  0  0  0
   -3.9908   -1.5784   -0.1075 O   0  0  0  0  0  0  0  0  0  0  0  0
    0.1864   -0.4559   -0.6117 C   0  0  0  0  0  0  0  0  0  0  0  0
    1.5010   -0.1659   -0.8236 C   0  0  0  0  0  0  0  0  0  0  0  0
    2.4178    0.7088    2.3199 H   0  0  0  0  0  0  0  0  0  0  0  0
    0.0622    0.1902    2.7044 H   0  0  0  0  0  0  0  0  0  0  0  0
   -3.7163    1.8809    0.1941 H   0  0  0  0  0  0  0  0  0  0  0  0
   -3.4826   -2.2852   -0.5821 H   0  0  0  0  0  0  0  0  0  0  0  0
   -0.4882   -0.7906   -1.4128 H   0  0  0  0  0  0  0  0  0  0  0  0
    1.9391   -0.2577   -1.8160 H   0  0  0  0  0  0  0  0  0  0  0  0
  1  2  2  0
  2  3  1  0
  2  4  1  0
  4  5  2  0
  5  6  1  0
  6  7  2  0
  7  8  1  0
  8  9  1  0
  9 10  2  0
  9 11  1  0
  9 12  1  0
  7 13  1  0
 13 14  2  0
 14  4  1  0
  5 15  1  0
  6 16  1  0
 11 17  1  0
 12 18  1  0
 13 19  1  0
 14 20  1  0
M  CHG  2   2   1   3  -1
M  END
$$$$
