@<TRIPOS>MOLECULE
*****
 20 20 0 0 0
SMALL
GASTEIGER

@<TRIPOS>ATOM
      1 O           4.1882    0.4512   -1.1372 O.2     1  UNL1        0.0414
      2 N           3.6964    0.5591    0.0008 N.pl3   1  UNL1        0.0796
      3 O           4.4734    0.9695    1.0454 O.co2   1  UNL1       -0.5760
      4 C           2.3469    0.2588    0.2054 C.ar    1  UNL1        0.2734
      5 C           1.8080    0.3801    1.4679 C.ar    1  UNL1        0.0190
      6 C           0.4831    0.0941    1.7118 C.ar    1  UNL1       -0.0130
      7 C          -0.3327   -0.3278    0.6591 C.ar    1  UNL1        0.1325
      8 O          -1.6459   -0.6038    0.9377 O.3     1  UNL1       -0.4040
      9 P          -2.9706   -0.2300   -0.0372 P.3     1  UNL1        0.5280
     10 O          -2.6178    0.1733   -1.4273 O.2     1  UNL1       -0.2156
     11 O          -3.8576    1.0294    0.6851 O.3     1  UNL1       -0.2930
     12 O          -3.9908   -1.5784   -0.1075 O.3     1  UNL1       -0.2930
     13 C           0.1864   -0.4559   -0.6117 C.ar    1  UNL1       -0.0130
     14 C           1.5010   -0.1659   -0.8236 C.ar    1  UNL1        0.0190
     15 H           2.4178    0.7088    2.3199 H       1  UNL1        0.0686
     16 H           0.0622    0.1902    2.7044 H       1  UNL1        0.0656
     17 H          -3.7163    1.8809    0.1941 H       1  UNL1        0.2231
     18 H          -3.4826   -2.2852   -0.5821 H       1  UNL1        0.2231
     19 H          -0.4882   -0.7906   -1.4128 H       1  UNL1        0.0656
     20 H           1.9391   -0.2577   -1.8160 H       1  UNL1        0.0686
@<TRIPOS>UNITY_ATOM_ATTR
2 1
charge 1
3 1
charge -1
@<TRIPOS>BOND
     1     1     2    2
     2     2     3    1
     3     2     4    1
     4     4     5   ar
     5     5     6   ar
     6     6     7   ar
     7     7     8    1
     8     8     9    1
     9     9    10    2
    10     9    11    1
    11     9    12    1
    12     7    13   ar
    13    13    14   ar
    14    14     4   ar
    15     5    15    1
    16     6    16    1
    17    11    17    1
    18    12    18    1
    19    13    19    1
    20    14    20    1
