@<TRIPOS>MOLECULE
*****
 41 44 0 0 0
SMALL
GASTEIGER

@<TRIPOS>ATOM
      1 C          -2.9097   -1.8009    1.5845 C.3     1  UNL1       -0.0349
      2 C          -2.5198   -0.6984    0.6262 C.3     1  UNL1        0.0992
      3 C          -1.4194   -1.2197   -0.2232 C.ar    1  UNL1        0.0362
      4 C          -0.1392   -0.6467   -0.2089 C.ar    1  UNL1       -0.0292
      5 C           0.8977   -1.1156   -0.9894 C.ar    1  UNL1        0.0525
      6 N           2.2035   -0.5875   -1.0226 N.am    1  UNL1       -0.2789
      7 C           2.6810    0.5066   -0.2700 C.2     1  UNL1        0.2666
      8 O           1.9450    1.1268    0.5277 O.2     1  UNL1       -0.2682
      9 C           4.0855    0.9290   -0.4293 C.ar    1  UNL1        0.1257
     10 C           4.5769    1.9865    0.2870 C.ar    1  UNL1       -0.0298
     11 C           5.8843    2.3855    0.1437 C.ar    1  UNL1       -0.0397
     12 C           6.7022    1.7115   -0.7298 C.ar    1  UNL1        0.0591
     13 CL          8.3797    2.1680   -0.9608 Cl      1  UNL1       -0.0820
     14 C           6.1788    0.6632   -1.4266 C.ar    1  UNL1        0.0467
     15 N           4.8989    0.2908   -1.2708 N.ar    1  UNL1       -0.2489
     16 C           0.6489   -2.2108   -1.8273 C.ar    1  UNL1        0.0519
     17 N          -0.5731   -2.7503   -1.8347 N.ar    1  UNL1       -0.2255
     18 C          -1.5860   -2.2899   -1.0703 C.ar    1  UNL1        0.2188
     19 F          -2.7808   -2.9240   -1.1689 F       1  UNL1       -0.1835
     20 N          -2.0893    0.4306    1.4242 N.2     1  UNL1       -0.2253
     21 C          -3.0072    1.1716    1.9475 C.2     1  UNL1        0.2762
     22 N          -2.6339    2.3113    2.7534 N.pl3   1  UNL1       -0.3134
     23 O          -4.3236    0.8211    1.6990 O.2     1  UNL1       -0.4622
     24 C          -4.7263    0.5099    0.4054 C.3     1  UNL1        0.1089
     25 C          -4.9856   -0.8461   -0.0816 C.3     1  UNL1       -0.0066
     26 C          -3.6313   -0.2758   -0.2696 C.3     1  UNL1        0.0288
     27 H          -2.0369   -1.9154    2.2891 H       1  UNL1        0.0256
     28 H          -3.7723   -1.5447    2.2073 H       1  UNL1        0.0256
     29 H          -3.0346   -2.7752    1.1039 H       1  UNL1        0.0256
     30 H          -0.0008    0.1833    0.4446 H       1  UNL1        0.0641
     31 H           2.9074   -1.0328   -1.6600 H       1  UNL1        0.1552
     32 H           3.9175    2.5090    0.9736 H       1  UNL1        0.0641
     33 H           6.2944    3.2157    0.6971 H       1  UNL1        0.0633
     34 H           6.7961    0.1101   -2.1235 H       1  UNL1        0.0844
     35 H           1.4546   -2.6068   -2.4605 H       1  UNL1        0.0849
     36 H          -2.7046    2.1802    3.7779 H       1  UNL1        0.1466
     37 H          -2.3280    3.1620    2.2591 H       1  UNL1        0.1466
     38 H          -5.1893    1.3641   -0.1397 H       1  UNL1        0.0737
     39 H          -5.1032   -1.7191    0.5979 H       1  UNL1        0.0306
     40 H          -5.6463   -0.9322   -0.9771 H       1  UNL1        0.0306
     41 H          -3.3113    0.1556   -1.2386 H       1  UNL1        0.0364
@<TRIPOS>BOND
     1     2     1    1
     2     2     3    1
     3     3     4   ar
     4     4     5   ar
     5     5     6    1
     6     6     7   am
     7     7     8    2
     8     7     9    1
     9     9    10   ar
    10    10    11   ar
    11    11    12   ar
    12    12    13    1
    13    12    14   ar
    14    14    15   ar
    15     5    16   ar
    16    16    17   ar
    17    17    18   ar
    18    18    19    1
    19     2    20    1
    20    20    21    2
    21    21    22    1
    22    21    23    1
    23    23    24    1
    24    24    25    1
    25    25    26    1
    26    26     2    1
    27    18     3   ar
    28    26    24    1
    29    15     9   ar
    30     1    27    1
    31     1    28    1
    32     1    29    1
    33     4    30    1
    34     6    31    1
    35    10    32    1
    36    11    33    1
    37    14    34    1
    38    16    35    1
    39    22    36    1
    40    22    37    1
    41    24    38    1
    42    25    39    1
    43    25    40    1
    44    26    41    1
