
     RDKit          3D

 41 44  0  0  0  0  0  0  0  0999 V2000
   -2.9097   -1.8009    1.5845 C   0  0  0  0  0  0  0  0  0  0  0  0
   -2.5198   -0.6984    0.6262 C   0  0  2  0  0  0  0  0  0  0  0  0
   -1.4194   -1.2197   -0.2232 C   0  0  0  0  0  0  0  0  0  0  0  0
   -0.1392   -0.6467   -0.2089 C   0  0  0  0  0  0  0  0  0  0  0  0
    0.8977   -1.1156   -0.9894 C   0  0  0  0  0  0  0  0  0  0  0  0
    2.2035   -0.5875   -1.0226 N   0  0  0  0  0  0  0  0  0  0  0  0
    2.6810    0.5066   -0.2700 C   0  0  0  0  0  0  0  0  0  0  0  0
    1.9450    1.1268    0.5277 O   0  0  0  0  0  0  0  0  0  0  0  0
    4.0855    0.9290   -0.4293 C   0  0  0  0  0  0  0  0  0  0  0  0
    4.5769    1.9865    0.2870 C   0  0  0  0  0  0  0  0  0  0  0  0
    5.8843    2.3855    0.1437 C   0  0  0  0  0  0  0  0  0  0  0  0
    6.7022    1.7115   -0.7298 C   0  0  0  0  0  0  0  0  0  0  0  0
    8.3797    2.1680   -0.9608 Cl  0  0  0  0  0  0  0  0  0  0  0  0
    6.1788    0.6632   -1.4266 C   0  0  0  0  0  0  0  0  0  0  0  0
    4.8989    0.2908   -1.2708 N   0  0  0  0  0  0  0  0  0  0  0  0
    0.6489   -2.2108   -1.8273 C   0  0  0  0  0  0  0  0  0  0  0  0
   -0.5731   -2.7503   -1.8347 N   0  0  0  0  0  0  0  0  0  0  0  0
   -1.5860   -2.2899   -1.0703 C   0  0  0  0  0  0  0  0  0  0  0  0
   -2.7808   -2.9240   -1.1689 F   0  0  0  0  0  0  0  0  0  0  0  0
   -2.0893    0.4306    1.4242 N   0  0  0  0  0  0  0  0  0  0  0  0
   -3.0072    1.1716    1.9475 C   0  0  0  0  0  0  0  0  0  0  0  0
   -2.6339    2.3113    2.7534 N   0  0  0  0  0  0  0  0  0  0  0  0
   -4.3236    0.8211    1.6990 O   0  0  0  0  0  0  0  0  0  0  0  0
   -4.7263    0.5099    0.4054 C   0  0  2  0  0  0  0  0  0  0  0  0
   -4.9856   -0.8461   -0.0816 C   0  0  0  0  0  0  0  0  0  0  0  0
   -3.6313   -0.2758   -0.2696 C   0  0  2  0  0  0  0  0  0  0  0  0
   -2.0369   -1.9154    2.2891 H   0  0  0  0  0  0  0  0  0  0  0  0
   -3.7723   -1.5447    2.2073 H   0  0  0  0  0  0  0  0  0  0  0  0
   -3.0346   -2.7752    1.1039 H   0  0  0  0  0  0  0  0  0  0  0  0
   -0.0008    0.1833    0.4446 H   0  0  0  0  0  0  0  0  0  0  0  0
    2.9074   -1.0328   -1.6600 H   0  0  0  0  0  0  0  0  0  0  0  0
    3.9175    2.5090    0.9736 H   0  0  0  0  0  0  0  0  0  0  0  0
    6.2944    3.2157    0.6971 H   0  0  0  0  0  0  0  0  0  0  0  0
    6.7961    0.1101   -2.1235 H   0  0  0  0  0  0  0  0  0  0  0  0
    1.4546   -2.6068   -2.4605 H   0  0  0  0  0  0  0  0  0  0  0  0
   -2.7046    2.1802    3.7779 H   0  0  0  0  0  0  0  0  0  0  0  0
   -2.3280    3.1620    2.2591 H   0  0  0  0  0  0  0  0  0  0  0  0
   -5.1893    1.3641   -0.1397 H   0  0  0  0  0  0  0  0  0  0  0  0
   -5.1032   -1.7191    0.5979 H   0  0  0  0  0  0  0  0  0  0  0  0
   -5.6463   -0.9322   -0.9771 H   0  0  0  0  0  0  0  0  0  0  0  0
   -3.3113    0.1556   -1.2386 H   0  0  0  0  0  0  0  0  0  0  0  0
  2  1  1  1
  2  3  1  0
  3  4  2  0
  4  5  1  0
  5  6  1  0
  6  7  1  0
  7  8  2  0
  7  9  1  0
  9 10  2  0
 10 11  1  0
 11 12  2  0
 12 13  1  0
 12 14  1  0
 14 15  2  0
  5 16  2  0
 16 17  1  0
 17 18  2  0
 18 19  1  0
  2 20  1  0
 20 21  2  0
 21 22  1  0
 21 23  1  0
 23 24  1  0
 24 25  1  0
 25 26  1  0
 26  2  1  0
 18  3  1  0
 26 24  1  0
 15  9  1  0
  1 27  1  0
  1 28  1  0
  1 29  1  0
  4 30  1  0
  6 31  1  0
 10 32  1  0
 11 33  1  0
 14 34  1  0
 16 35  1  0
 22 36  1  0
 22 37  1  0
 24 38  1  6
 25 39  1  0
 25 40  1  0
 26 41  1  6
M  END
$$$$
