@<TRIPOS>MOLECULE
*****
 87 93 0 0 0
SMALL
GASTEIGER

@<TRIPOS>ATOM
      1 C         -12.6328    0.7200   -0.2538 C.3     1  UNL1       -0.0634
      2 C         -12.1775   -0.7125   -0.2348 C.3     1  UNL1       -0.0334
      3 C         -10.8558   -0.9040   -0.9233 C.3     1  UNL1        0.0548
      4 C         -10.5313   -2.4001   -0.8219 C.3     1  UNL1       -0.0424
      5 N          -9.8210   -0.1393   -0.2247 N.ar    1  UNL1       -0.2101
      6 N          -9.9404    0.5974    0.8570 N.ar    1  UNL1       -0.1566
      7 C          -8.7549    1.1386    1.1863 C.ar    1  UNL1        0.1251
      8 N          -7.8414    0.7333    0.2815 N.ar    1  UNL1       -0.2501
      9 C          -6.4572    1.0486    0.2214 C.ar    1  UNL1        0.0525
     10 C          -5.6251    0.6962    1.2541 C.ar    1  UNL1       -0.0359
     11 C          -4.2589    0.9924    1.2284 C.ar    1  UNL1       -0.0387
     12 C          -3.7370    1.6526    0.1429 C.ar    1  UNL1        0.0299
     13 N          -2.3290    1.9890    0.0589 N.pl3   1  UNL1       -0.3269
     14 C          -1.5165    1.5982    1.1604 C.3     1  UNL1        0.0280
     15 C          -0.1440    2.1774    1.1006 C.3     1  UNL1        0.0280
     16 N           0.3067    2.1583   -0.2768 N.pl3   1  UNL1       -0.3269
     17 C           1.3835    1.3611   -0.7231 C.ar    1  UNL1        0.0300
     18 C           2.0808    1.5820   -1.8874 C.ar    1  UNL1       -0.0372
     19 C           3.1228    0.7897   -2.3241 C.ar    1  UNL1       -0.0182
     20 C           3.5124   -0.3134   -1.5498 C.ar    1  UNL1        0.1207
     21 O           4.5255   -1.0757   -1.9863 O.3     1  UNL1       -0.4893
     22 C           5.2117   -2.1737   -1.5807 C.3     1  UNL1        0.1179
     23 C           5.9562   -2.0095   -0.2934 C.3     1  UNL1        0.1195
     24 C           6.8971   -3.1996   -0.0490 C.3     1  UNL1        0.0808
     25 O           7.8338   -2.6502    0.8072 O.3     1  UNL1       -0.3406
     26 C           7.8891   -1.2876    0.5259 C.3     1  UNL1        0.2186
     27 C           9.2906   -1.0318    0.0016 C.3     1  UNL1        0.1018
     28 N           9.5507   -1.8127   -1.1987 N.ar    1  UNL1       -0.2465
     29 C           9.2834   -1.3612   -2.4437 C.ar    1  UNL1        0.1145
     30 N           9.6393   -2.3112   -3.2997 N.ar    1  UNL1       -0.2228
     31 C          10.1294   -3.3577   -2.5976 C.ar    1  UNL1        0.1379
     32 N          10.0614   -3.0213   -1.3165 N.ar    1  UNL1       -0.1582
     33 C           7.6732   -0.5586    1.8018 C.ar    1  UNL1        0.0313
     34 C           7.4976   -1.2585    2.9962 C.ar    1  UNL1       -0.0507
     35 C           7.3088   -0.6463    4.2045 C.ar    1  UNL1       -0.0429
     36 C           7.2841    0.7156    4.2906 C.ar    1  UNL1        0.0424
     37 CL          7.0399    1.5109    5.8396 Cl      1  UNL1       -0.0835
     38 C           7.4531    1.4422    3.1382 C.ar    1  UNL1       -0.0246
     39 C           7.6441    0.8169    1.9140 C.ar    1  UNL1        0.0507
     40 CL          7.8331    1.7901    0.4724 Cl      1  UNL1       -0.0830
     41 O           6.8966   -0.9809   -0.3631 O.3     1  UNL1       -0.3342
     42 C           2.8346   -0.5549   -0.3876 C.ar    1  UNL1       -0.0182
     43 C           1.7805    0.2647    0.0334 C.ar    1  UNL1       -0.0372
     44 C          -0.4225    2.9992   -1.1881 C.3     1  UNL1        0.0280
     45 C          -1.8824    2.6713   -1.1046 C.3     1  UNL1        0.0280
     46 C          -4.5425    2.0169   -0.9034 C.ar    1  UNL1       -0.0387
     47 C          -5.9076    1.7052   -0.8470 C.ar    1  UNL1       -0.0359
     48 C          -8.5277   -0.0553   -0.5788 C.ar    1  UNL1        0.3513
     49 O          -7.9849   -0.6240   -1.5784 O.2     1  UNL1       -0.2444
     50 H         -13.6541    0.7522   -0.6531 H       1  UNL1        0.0230
     51 H         -12.6851    1.1206    0.8007 H       1  UNL1        0.0230
     52 H         -11.9232    1.3658   -0.8331 H       1  UNL1        0.0230
     53 H         -12.9168   -1.3776   -0.7683 H       1  UNL1        0.0283
     54 H         -12.0517   -1.0939    0.8114 H       1  UNL1        0.0283
     55 H         -10.8779   -0.6489   -1.9946 H       1  UNL1        0.0544
     56 H          -9.5321   -2.6392   -1.1798 H       1  UNL1        0.0250
     57 H         -11.3407   -2.9800   -1.2719 H       1  UNL1        0.0250
     58 H         -10.5504   -2.6125    0.2840 H       1  UNL1        0.0250
     59 H          -8.5001    1.7886    2.0093 H       1  UNL1        0.1052
     60 H          -5.9851    0.1791    2.1245 H       1  UNL1        0.0639
     61 H          -3.5885    0.7228    2.0291 H       1  UNL1        0.0637
     62 H          -1.9756    1.9409    2.1352 H       1  UNL1        0.0479
     63 H          -1.4647    0.4791    1.2738 H       1  UNL1        0.0479
     64 H           0.5582    1.7605    1.8180 H       1  UNL1        0.0479
     65 H          -0.2388    3.2713    1.3627 H       1  UNL1        0.0479
     66 H           1.7834    2.4562   -2.4989 H       1  UNL1        0.0637
     67 H           3.6513    0.9978   -3.2551 H       1  UNL1        0.0655
     68 H           4.6221   -3.1269   -1.5832 H       1  UNL1        0.0723
     69 H           6.0144   -2.3799   -2.3643 H       1  UNL1        0.0723
     70 H           5.3057   -1.8351    0.5495 H       1  UNL1        0.0654
     71 H           7.3189   -3.4792   -1.0267 H       1  UNL1        0.0588
     72 H           6.3367   -4.0373    0.4183 H       1  UNL1        0.0588
     73 H          10.0436   -1.3667    0.7440 H       1  UNL1        0.0567
     74 H           9.4780    0.0401   -0.1657 H       1  UNL1        0.0567
     75 H           8.8572   -0.4014   -2.6871 H       1  UNL1        0.1044
     76 H          10.5081   -4.2989   -3.0087 H       1  UNL1        0.1065
     77 H           7.5205   -2.3464    2.9147 H       1  UNL1        0.0623
     78 H           7.1771   -1.2486    5.1029 H       1  UNL1        0.0632
     79 H           7.4356    2.5227    3.1939 H       1  UNL1        0.0647
     80 H           3.0690   -1.4006    0.2635 H       1  UNL1        0.0655
     81 H           1.2533    0.0579    0.9568 H       1  UNL1        0.0637
     82 H          -0.2416    4.0937   -0.9629 H       1  UNL1        0.0479
     83 H          -0.1107    2.9018   -2.2515 H       1  UNL1        0.0479
     84 H          -2.4885    3.5946   -1.2929 H       1  UNL1        0.0479
     85 H          -2.1081    1.9802   -1.9740 H       1  UNL1        0.0479
     86 H          -4.1613    2.5371   -1.7721 H       1  UNL1        0.0637
     87 H          -6.5678    1.9826   -1.6631 H       1  UNL1        0.0639
@<TRIPOS>BOND
     1     1     2    1
     2     2     3    1
     3     3     4    1
     4     3     5    1
     5     5     6   ar
     6     6     7   ar
     7     7     8   ar
     8     8     9    1
     9     9    10   ar
    10    10    11   ar
    11    11    12   ar
    12    12    13    1
    13    13    14    1
    14    14    15    1
    15    15    16    1
    16    16    17    1
    17    17    18   ar
    18    18    19   ar
    19    19    20   ar
    20    20    21    1
    21    21    22    1
    22    22    23    1
    23    23    24    1
    24    24    25    1
    25    25    26    1
    26    26    27    1
    27    27    28    1
    28    28    29   ar
    29    29    30   ar
    30    30    31   ar
    31    31    32   ar
    32    26    33    1
    33    33    34   ar
    34    34    35   ar
    35    35    36   ar
    36    36    37    1
    37    36    38   ar
    38    38    39   ar
    39    39    40    1
    40    26    41    1
    41    20    42   ar
    42    42    43   ar
    43    16    44    1
    44    44    45    1
    45    12    46   ar
    46    46    47   ar
    47     8    48   ar
    48    48    49    2
    49    48     5   ar
    50    47     9   ar
    51    45    13    1
    52    43    17   ar
    53    41    23    1
    54    32    28   ar
    55    39    33   ar
    56     1    50    1
    57     1    51    1
    58     1    52    1
    59     2    53    1
    60     2    54    1
    61     3    55    1
    62     4    56    1
    63     4    57    1
    64     4    58    1
    65     7    59    1
    66    10    60    1
    67    11    61    1
    68    14    62    1
    69    14    63    1
    70    15    64    1
    71    15    65    1
    72    18    66    1
    73    19    67    1
    74    22    68    1
    75    22    69    1
    76    23    70    1
    77    24    71    1
    78    24    72    1
    79    27    73    1
    80    27    74    1
    81    29    75    1
    82    31    76    1
    83    34    77    1
    84    35    78    1
    85    38    79    1
    86    42    80    1
    87    43    81    1
    88    44    82    1
    89    44    83    1
    90    45    84    1
    91    45    85    1
    92    46    86    1
    93    47    87    1
