
     RDKit          3D

 87 93  0  0  0  0  0  0  0  0999 V2000
  -12.6328    0.7200   -0.2538 C   0  0  0  0  0  0  0  0  0  0  0  0
  -12.1775   -0.7125   -0.2348 C   0  0  0  0  0  0  0  0  0  0  0  0
  -10.8558   -0.9040   -0.9233 C   0  0  0  0  0  0  0  0  0  0  0  0
  -10.5313   -2.4001   -0.8219 C   0  0  0  0  0  0  0  0  0  0  0  0
   -9.8210   -0.1393   -0.2247 N   0  0  0  0  0  0  0  0  0  0  0  0
   -9.9404    0.5974    0.8570 N   0  0  0  0  0  0  0  0  0  0  0  0
   -8.7549    1.1386    1.1863 C   0  0  0  0  0  0  0  0  0  0  0  0
   -7.8414    0.7333    0.2815 N   0  0  0  0  0  0  0  0  0  0  0  0
   -6.4572    1.0486    0.2214 C   0  0  0  0  0  0  0  0  0  0  0  0
   -5.6251    0.6962    1.2541 C   0  0  0  0  0  0  0  0  0  0  0  0
   -4.2589    0.9924    1.2284 C   0  0  0  0  0  0  0  0  0  0  0  0
   -3.7370    1.6526    0.1429 C   0  0  0  0  0  0  0  0  0  0  0  0
   -2.3290    1.9890    0.0589 N   0  0  0  0  0  0  0  0  0  0  0  0
   -1.5165    1.5982    1.1604 C   0  0  0  0  0  0  0  0  0  0  0  0
   -0.1440    2.1774    1.1006 C   0  0  0  0  0  0  0  0  0  0  0  0
    0.3067    2.1583   -0.2768 N   0  0  0  0  0  0  0  0  0  0  0  0
    1.3835    1.3611   -0.7231 C   0  0  0  0  0  0  0  0  0  0  0  0
    2.0808    1.5820   -1.8874 C   0  0  0  0  0  0  0  0  0  0  0  0
    3.1228    0.7897   -2.3241 C   0  0  0  0  0  0  0  0  0  0  0  0
    3.5124   -0.3134   -1.5498 C   0  0  0  0  0  0  0  0  0  0  0  0
    4.5255   -1.0757   -1.9863 O   0  0  0  0  0  0  0  0  0  0  0  0
    5.2117   -2.1737   -1.5807 C   0  0  0  0  0  0  0  0  0  0  0  0
    5.9562   -2.0095   -0.2934 C   0  0  1  0  0  0  0  0  0  0  0  0
    6.8971   -3.1996   -0.0490 C   0  0  0  0  0  0  0  0  0  0  0  0
    7.8338   -2.6502    0.8072 O   0  0  0  0  0  0  0  0  0  0  0  0
    7.8891   -1.2876    0.5259 C   0  0  2  0  0  0  0  0  0  0  0  0
    9.2906   -1.0318    0.0016 C   0  0  0  0  0  0  0  0  0  0  0  0
    9.5507   -1.8127   -1.1987 N   0  0  0  0  0  0  0  0  0  0  0  0
    9.2834   -1.3612   -2.4437 C   0  0  0  0  0  0  0  0  0  0  0  0
    9.6393   -2.3112   -3.2997 N   0  0  0  0  0  0  0  0  0  0  0  0
   10.1294   -3.3577   -2.5976 C   0  0  0  0  0  0  0  0  0  0  0  0
   10.0614   -3.0213   -1.3165 N   0  0  0  0  0  0  0  0  0  0  0  0
    7.6732   -0.5586    1.8018 C   0  0  0  0  0  0  0  0  0  0  0  0
    7.4976   -1.2585    2.9962 C   0  0  0  0  0  0  0  0  0  0  0  0
    7.3088   -0.6463    4.2045 C   0  0  0  0  0  0  0  0  0  0  0  0
    7.2841    0.7156    4.2906 C   0  0  0  0  0  0  0  0  0  0  0  0
    7.0399    1.5109    5.8396 Cl  0  0  0  0  0  0  0  0  0  0  0  0
    7.4531    1.4422    3.1382 C   0  0  0  0  0  0  0  0  0  0  0  0
    7.6441    0.8169    1.9140 C   0  0  0  0  0  0  0  0  0  0  0  0
    7.8331    1.7901    0.4724 Cl  0  0  0  0  0  0  0  0  0  0  0  0
    6.8966   -0.9809   -0.3631 O   0  0  0  0  0  0  0  0  0  0  0  0
    2.8346   -0.5549   -0.3876 C   0  0  0  0  0  0  0  0  0  0  0  0
    1.7805    0.2647    0.0334 C   0  0  0  0  0  0  0  0  0  0  0  0
   -0.4225    2.9992   -1.1881 C   0  0  0  0  0  0  0  0  0  0  0  0
   -1.8824    2.6713   -1.1046 C   0  0  0  0  0  0  0  0  0  0  0  0
   -4.5425    2.0169   -0.9034 C   0  0  0  0  0  0  0  0  0  0  0  0
   -5.9076    1.7052   -0.8470 C   0  0  0  0  0  0  0  0  0  0  0  0
   -8.5277   -0.0553   -0.5788 C   0  0  0  0  0  0  0  0  0  0  0  0
   -7.9849   -0.6240   -1.5784 O   0  0  0  0  0  0  0  0  0  0  0  0
  -13.6541    0.7522   -0.6531 H   0  0  0  0  0  0  0  0  0  0  0  0
  -12.6851    1.1206    0.8007 H   0  0  0  0  0  0  0  0  0  0  0  0
  -11.9232    1.3658   -0.8331 H   0  0  0  0  0  0  0  0  0  0  0  0
  -12.9168   -1.3776   -0.7683 H   0  0  0  0  0  0  0  0  0  0  0  0
  -12.0517   -1.0939    0.8114 H   0  0  0  0  0  0  0  0  0  0  0  0
  -10.8779   -0.6489   -1.9946 H   0  0  0  0  0  0  0  0  0  0  0  0
   -9.5321   -2.6392   -1.1798 H   0  0  0  0  0  0  0  0  0  0  0  0
  -11.3407   -2.9800   -1.2719 H   0  0  0  0  0  0  0  0  0  0  0  0
  -10.5504   -2.6125    0.2840 H   0  0  0  0  0  0  0  0  0  0  0  0
   -8.5001    1.7886    2.0093 H   0  0  0  0  0  0  0  0  0  0  0  0
   -5.9851    0.1791    2.1245 H   0  0  0  0  0  0  0  0  0  0  0  0
   -3.5885    0.7228    2.0291 H   0  0  0  0  0  0  0  0  0  0  0  0
   -1.9756    1.9409    2.1352 H   0  0  0  0  0  0  0  0  0  0  0  0
   -1.4647    0.4791    1.2738 H   0  0  0  0  0  0  0  0  0  0  0  0
    0.5582    1.7605    1.8180 H   0  0  0  0  0  0  0  0  0  0  0  0
   -0.2388    3.2713    1.3627 H   0  0  0  0  0  0  0  0  0  0  0  0
    1.7834    2.4562   -2.4989 H   0  0  0  0  0  0  0  0  0  0  0  0
    3.6513    0.9978   -3.2551 H   0  0  0  0  0  0  0  0  0  0  0  0
    4.6221   -3.1269   -1.5832 H   0  0  0  0  0  0  0  0  0  0  0  0
    6.0144   -2.3799   -2.3643 H   0  0  0  0  0  0  0  0  0  0  0  0
    5.3057   -1.8351    0.5495 H   0  0  0  0  0  0  0  0  0  0  0  0
    7.3189   -3.4792   -1.0267 H   0  0  0  0  0  0  0  0  0  0  0  0
    6.3367   -4.0373    0.4183 H   0  0  0  0  0  0  0  0  0  0  0  0
   10.0436   -1.3667    0.7440 H   0  0  0  0  0  0  0  0  0  0  0  0
    9.4780    0.0401   -0.1657 H   0  0  0  0  0  0  0  0  0  0  0  0
    8.8572   -0.4014   -2.6871 H   0  0  0  0  0  0  0  0  0  0  0  0
   10.5081   -4.2989   -3.0087 H   0  0  0  0  0  0  0  0  0  0  0  0
    7.5205   -2.3464    2.9147 H   0  0  0  0  0  0  0  0  0  0  0  0
    7.1771   -1.2486    5.1029 H   0  0  0  0  0  0  0  0  0  0  0  0
    7.4356    2.5227    3.1939 H   0  0  0  0  0  0  0  0  0  0  0  0
    3.0690   -1.4006    0.2635 H   0  0  0  0  0  0  0  0  0  0  0  0
    1.2533    0.0579    0.9568 H   0  0  0  0  0  0  0  0  0  0  0  0
   -0.2416    4.0937   -0.9629 H   0  0  0  0  0  0  0  0  0  0  0  0
   -0.1107    2.9018   -2.2515 H   0  0  0  0  0  0  0  0  0  0  0  0
   -2.4885    3.5946   -1.2929 H   0  0  0  0  0  0  0  0  0  0  0  0
   -2.1081    1.9802   -1.9740 H   0  0  0  0  0  0  0  0  0  0  0  0
   -4.1613    2.5371   -1.7721 H   0  0  0  0  0  0  0  0  0  0  0  0
   -6.5678    1.9826   -1.6631 H   0  0  0  0  0  0  0  0  0  0  0  0
  1  2  1  0
  2  3  1  0
  3  4  1  0
  3  5  1  0
  5  6  1  0
  6  7  2  0
  7  8  1  0
  8  9  1  0
  9 10  2  0
 10 11  1  0
 11 12  2  0
 12 13  1  0
 13 14  1  0
 14 15  1  0
 15 16  1  0
 16 17  1  0
 17 18  2  0
 18 19  1  0
 19 20  2  0
 20 21  1  0
 21 22  1  0
 22 23  1  0
 23 24  1  0
 24 25  1  0
 25 26  1  0
 26 27  1  6
 27 28  1  0
 28 29  1  0
 29 30  2  0
 30 31  1  0
 31 32  2  0
 26 33  1  0
 33 34  2  0
 34 35  1  0
 35 36  2  0
 36 37  1  0
 36 38  1  0
 38 39  2  0
 39 40  1  0
 26 41  1  0
 20 42  1  0
 42 43  2  0
 16 44  1  0
 44 45  1  0
 12 46  1  0
 46 47  2  0
  8 48  1  0
 48 49  2  0
 48  5  1  0
 47  9  1  0
 45 13  1  0
 43 17  1  0
 41 23  1  0
 32 28  1  0
 39 33  1  0
  1 50  1  0
  1 51  1  0
  1 52  1  0
  2 53  1  0
  2 54  1  0
  3 55  1  0
  4 56  1  0
  4 57  1  0
  4 58  1  0
  7 59  1  0
 10 60  1  0
 11 61  1  0
 14 62  1  0
 14 63  1  0
 15 64  1  0
 15 65  1  0
 18 66  1  0
 19 67  1  0
 22 68  1  0
 22 69  1  0
 23 70  1  1
 24 71  1  0
 24 72  1  0
 27 73  1  0
 27 74  1  0
 29 75  1  0
 31 76  1  0
 34 77  1  0
 35 78  1  0
 38 79  1  0
 42 80  1  0
 43 81  1  0
 44 82  1  0
 44 83  1  0
 45 84  1  0
 45 85  1  0
 46 86  1  0
 47 87  1  0
M  END
$$$$
