
     RDKit          3D

 46 49  0  0  0  0  0  0  0  0999 V2000
    6.5101   -2.0378    2.2946 C   0  0  0  0  0  0  0  0  0  0  0  0
    5.4396   -1.1662    1.7148 C   0  0  0  0  0  0  0  0  0  0  0  0
    5.3412   -0.2249    0.8907 O   0  0  0  0  0  0  0  0  0  0  0  0
    4.0816   -1.2654    2.0580 O   0  0  0  0  0  0  0  0  0  0  0  0
    3.2257   -0.3979    1.4417 C   0  0  0  0  0  0  0  0  0  0  0  0
    2.5273   -0.5121    0.2779 C   0  0  0  0  0  0  0  0  0  0  0  0
    1.7206    0.5190   -0.1314 C   0  0  0  0  0  0  0  0  0  0  0  0
    1.6600    1.6402    0.6768 C   0  0  0  0  0  0  0  0  0  0  0  0
    0.9119    2.8880    0.5326 C   0  0  0  0  0  0  0  0  0  0  0  0
   -0.0074    2.7354   -0.6507 C   0  0  0  0  0  0  0  0  0  0  0  0
   -0.3058    1.3900   -0.9782 N   0  0  0  0  0  0  0  0  0  0  0  0
    0.8608    0.6599   -1.3328 C   0  0  0  0  0  0  0  0  0  0  0  0
   -1.2823    0.7016   -0.2253 C   0  0  0  0  0  0  0  0  0  0  0  0
   -2.6377    1.3093   -0.2644 C   0  0  0  0  0  0  0  0  0  0  0  0
   -2.9939    2.3179   -0.8583 O   0  0  0  0  0  0  0  0  0  0  0  0
   -3.7342    0.6466    0.4975 C   0  0  0  0  0  0  0  0  0  0  0  0
   -4.6997    1.5944    1.2549 C   0  0  0  0  0  0  0  0  0  0  0  0
   -5.1466    0.8001    0.0898 C   0  0  0  0  0  0  0  0  0  0  0  0
   -1.3405   -0.6988   -0.7318 C   0  0  0  0  0  0  0  0  0  0  0  0
   -0.6912   -1.7481   -0.0719 C   0  0  0  0  0  0  0  0  0  0  0  0
   -0.7167   -3.0439   -0.4976 C   0  0  0  0  0  0  0  0  0  0  0  0
   -1.4153   -3.3674   -1.6417 C   0  0  0  0  0  0  0  0  0  0  0  0
   -2.0678   -2.3569   -2.3181 C   0  0  0  0  0  0  0  0  0  0  0  0
   -2.0427   -1.0307   -1.8839 C   0  0  0  0  0  0  0  0  0  0  0  0
   -2.7043   -0.0671   -2.5882 F   0  0  0  0  0  0  0  0  0  0  0  0
    2.7708    1.2912    2.1011 S   0  0  0  0  0  0  0  0  0  0  0  0
    7.3650   -1.9822    1.5835 H   0  0  0  0  0  0  0  0  0  0  0  0
    6.0791   -3.0737    2.2693 H   0  0  0  0  0  0  0  0  0  0  0  0
    6.7795   -1.7076    3.3093 H   0  0  0  0  0  0  0  0  0  0  0  0
    2.6341   -1.4252   -0.2922 H   0  0  0  0  0  0  0  0  0  0  0  0
    0.3548    3.1669    1.4619 H   0  0  0  0  0  0  0  0  0  0  0  0
    1.5557    3.7734    0.3420 H   0  0  0  0  0  0  0  0  0  0  0  0
   -0.9101    3.3894   -0.5626 H   0  0  0  0  0  0  0  0  0  0  0  0
    0.5276    3.1572   -1.5331 H   0  0  0  0  0  0  0  0  0  0  0  0
    0.5098   -0.3420   -1.6995 H   0  0  0  0  0  0  0  0  0  0  0  0
    1.3673    1.1262   -2.1850 H   0  0  0  0  0  0  0  0  0  0  0  0
   -0.8898    0.6365    0.8234 H   0  0  0  0  0  0  0  0  0  0  0  0
   -3.4951   -0.2754    1.0635 H   0  0  0  0  0  0  0  0  0  0  0  0
   -5.0528    1.2723    2.2406 H   0  0  0  0  0  0  0  0  0  0  0  0
   -4.5846    2.6906    1.0566 H   0  0  0  0  0  0  0  0  0  0  0  0
   -5.2825    1.3115   -0.9046 H   0  0  0  0  0  0  0  0  0  0  0  0
   -5.8529   -0.0327    0.2248 H   0  0  0  0  0  0  0  0  0  0  0  0
   -0.1424   -1.4979    0.8267 H   0  0  0  0  0  0  0  0  0  0  0  0
   -0.1801   -3.7864    0.0852 H   0  0  0  0  0  0  0  0  0  0  0  0
   -1.4228   -4.3993   -1.9618 H   0  0  0  0  0  0  0  0  0  0  0  0
   -2.6231   -2.5779   -3.2171 H   0  0  0  0  0  0  0  0  0  0  0  0
  1  2  1  0
  2  3  2  0
  2  4  1  0
  4  5  1  0
  5  6  2  0
  6  7  1  0
  7  8  2  0
  8  9  1  0
  9 10  1  0
 10 11  1  0
 11 12  1  0
 11 13  1  0
 13 14  1  0
 14 15  2  0
 14 16  1  0
 16 17  1  0
 17 18  1  0
 13 19  1  0
 19 20  2  0
 20 21  1  0
 21 22  2  0
 22 23  1  0
 23 24  2  0
 24 25  1  0
  8 26  1  0
 26  5  1  0
 12  7  1  0
 18 16  1  0
 24 19  1  0
  1 27  1  0
  1 28  1  0
  1 29  1  0
  6 30  1  0
  9 31  1  0
  9 32  1  0
 10 33  1  0
 10 34  1  0
 12 35  1  0
 12 36  1  0
 13 37  1  0
 16 38  1  0
 17 39  1  0
 17 40  1  0
 18 41  1  0
 18 42  1  0
 20 43  1  0
 21 44  1  0
 22 45  1  0
 23 46  1  0
M  END
$$$$
