
     RDKit          3D

 53 55  0  0  0  0  0  0  0  0999 V2000
   -4.7477   -1.8068    1.9491 C   0  0  0  0  0  0  0  0  0  0  0  0
   -5.0765   -2.6179    0.7270 C   0  0  0  0  0  0  0  0  0  0  0  0
   -6.2366   -2.1497    0.1129 O   0  0  0  0  0  0  0  0  0  0  0  0
   -3.9031   -2.4407   -0.2545 C   0  0  0  0  0  0  0  0  0  0  0  0
   -4.2416   -3.1946   -1.5534 C   0  0  0  0  0  0  0  0  0  0  0  0
   -3.8250   -1.0849   -0.5234 O   0  0  0  0  0  0  0  0  0  0  0  0
   -2.7263   -0.2944   -0.3514 C   0  0  0  0  0  0  0  0  0  0  0  0
   -1.5418   -0.7838    0.1240 C   0  0  0  0  0  0  0  0  0  0  0  0
   -0.3934   -0.0009    0.3131 C   0  0  0  0  0  0  0  0  0  0  0  0
    0.8069   -0.6296    0.8235 C   0  0  0  0  0  0  0  0  0  0  0  0
    0.7657   -1.8742    1.0797 O   0  0  0  0  0  0  0  0  0  0  0  0
    1.9894    0.1234    1.0297 N   0  0  0  0  0  0  0  0  0  0  0  0
    3.1849   -0.5027    1.5381 C   0  0  2  0  0  0  0  0  0  0  0  0
    3.6550    0.0920    2.8310 C   0  0  0  0  0  0  0  0  0  0  0  0
    4.2602   -0.3573    0.5248 C   0  0  0  0  0  0  0  0  0  0  0  0
    4.5104    0.8289   -0.1347 C   0  0  0  0  0  0  0  0  0  0  0  0
    5.4965    0.9319   -1.0528 N   0  0  0  0  0  0  0  0  0  0  0  0
    6.2739   -0.1221   -1.3592 C   0  0  0  0  0  0  0  0  0  0  0  0
    7.3695   -0.0095   -2.3786 C   0  0  0  0  0  0  0  0  0  0  0  0
    8.5471    0.4118   -1.8272 F   0  0  0  0  0  0  0  0  0  0  0  0
    7.5630   -1.2347   -2.9566 F   0  0  0  0  0  0  0  0  0  0  0  0
    7.0263    0.8747   -3.3782 F   0  0  0  0  0  0  0  0  0  0  0  0
    6.0291   -1.2770   -0.7161 N   0  0  0  0  0  0  0  0  0  0  0  0
    5.0627   -1.4327    0.2038 C   0  0  0  0  0  0  0  0  0  0  0  0
   -0.4805    1.3245   -0.0005 C   0  0  0  0  0  0  0  0  0  0  0  0
   -1.6703    1.8510   -0.4856 C   0  0  0  0  0  0  0  0  0  0  0  0
   -1.6807    3.2634   -0.7941 C   0  0  0  0  0  0  0  0  0  0  0  0
   -0.9811    4.2693   -0.7931 N   0  0  0  0  0  0  0  0  0  0  0  0
   -1.2596    5.4705   -1.1396 C   0  0  0  0  0  0  0  0  0  0  0  0
   -2.5570    5.6851   -1.5909 C   0  0  0  0  0  0  0  0  0  0  0  0
   -3.3883    7.1674   -2.1706 Cl  0  0  0  0  0  0  0  0  0  0  0  0
   -3.2741    4.0343   -1.4579 S   0  0  0  0  0  0  0  0  0  0  0  0
   -2.7752    1.0709   -0.6617 C   0  0  0  0  0  0  0  0  0  0  0  0
   -3.7740   -1.2976    1.9018 H   0  0  0  0  0  0  0  0  0  0  0  0
   -5.5638   -1.0921    2.1981 H   0  0  0  0  0  0  0  0  0  0  0  0
   -4.6726   -2.5356    2.8017 H   0  0  0  0  0  0  0  0  0  0  0  0
   -5.1719   -3.6975    0.9228 H   0  0  0  0  0  0  0  0  0  0  0  0
   -6.5868   -1.3796    0.6400 H   0  0  0  0  0  0  0  0  0  0  0  0
   -3.0105   -2.9199    0.1302 H   0  0  0  0  0  0  0  0  0  0  0  0
   -4.8302   -2.5662   -2.2270 H   0  0  0  0  0  0  0  0  0  0  0  0
   -4.8018   -4.0943   -1.2771 H   0  0  0  0  0  0  0  0  0  0  0  0
   -3.2715   -3.4797   -2.0442 H   0  0  0  0  0  0  0  0  0  0  0  0
   -1.4347   -1.8318    0.3838 H   0  0  0  0  0  0  0  0  0  0  0  0
    2.0451    1.1361    0.8283 H   0  0  0  0  0  0  0  0  0  0  0  0
    2.9804   -1.5717    1.7062 H   0  0  0  0  0  0  0  0  0  0  0  0
    3.8476    1.1769    2.7708 H   0  0  0  0  0  0  0  0  0  0  0  0
    2.9706   -0.0789    3.6727 H   0  0  0  0  0  0  0  0  0  0  0  0
    4.6183   -0.3944    3.0910 H   0  0  0  0  0  0  0  0  0  0  0  0
    3.8753    1.6864    0.1170 H   0  0  0  0  0  0  0  0  0  0  0  0
    4.8807   -2.3835    0.7159 H   0  0  0  0  0  0  0  0  0  0  0  0
    0.3881    1.9562    0.1340 H   0  0  0  0  0  0  0  0  0  0  0  0
   -0.5453    6.3215   -1.1007 H   0  0  0  0  0  0  0  0  0  0  0  0
   -3.7249    1.4600   -1.0422 H   0  0  0  0  0  0  0  0  0  0  0  0
  1  2  1  0
  2  3  1  0
  2  4  1  0
  4  5  1  0
  4  6  1  0
  6  7  1  0
  7  8  2  0
  8  9  1  0
  9 10  1  0
 10 11  2  0
 10 12  1  0
 12 13  1  0
 13 14  1  0
 13 15  1  0
 15 16  2  0
 16 17  1  0
 17 18  2  0
 18 19  1  0
 19 20  1  0
 19 21  1  0
 19 22  1  0
 18 23  1  0
 23 24  2  0
  9 25  2  0
 25 26  1  0
 26 27  1  0
 27 28  2  0
 28 29  1  0
 29 30  2  0
 30 31  1  0
 30 32  1  0
 26 33  2  0
 33  7  1  0
 24 15  1  0
 32 27  1  0
  1 34  1  0
  1 35  1  0
  1 36  1  0
  2 37  1  0
  3 38  1  0
  4 39  1  0
  5 40  1  0
  5 41  1  0
  5 42  1  0
  8 43  1  0
 12 44  1  0
 13 45  1  1
 14 46  1  0
 14 47  1  0
 14 48  1  0
 16 49  1  0
 24 50  1  0
 25 51  1  0
 29 52  1  0
 33 53  1  0
M  END
$$$$
