@<TRIPOS>MOLECULE
*****
 53 55 0 0 0
SMALL
GASTEIGER

@<TRIPOS>ATOM
      1 C          -4.7477   -1.8068    1.9491 C.3     1  UNL1       -0.0355
      2 C          -5.0765   -2.6179    0.7270 C.3     1  UNL1        0.0889
      3 O          -6.2366   -2.1497    0.1129 O.3     1  UNL1       -0.3884
      4 C          -3.9031   -2.4407   -0.2545 C.3     1  UNL1        0.1228
      5 C          -4.2416   -3.1946   -1.5534 C.3     1  UNL1       -0.0253
      6 O          -3.8250   -1.0849   -0.5234 O.3     1  UNL1       -0.4865
      7 C          -2.7263   -0.2944   -0.3514 C.ar    1  UNL1        0.1224
      8 C          -1.5418   -0.7838    0.1240 C.ar    1  UNL1       -0.0078
      9 C          -0.3934   -0.0009    0.3131 C.ar    1  UNL1        0.0408
     10 C           0.8069   -0.6296    0.8235 C.2     1  UNL1        0.2447
     11 O           0.7657   -1.8742    1.0797 O.2     1  UNL1       -0.2702
     12 N           1.9894    0.1234    1.0297 N.am    1  UNL1       -0.3047
     13 C           3.1849   -0.5027    1.5381 C.3     1  UNL1        0.0487
     14 C           3.6550    0.0920    2.8310 C.3     1  UNL1       -0.0423
     15 C           4.2602   -0.3573    0.5248 C.ar    1  UNL1        0.0087
     16 C           4.5104    0.8289   -0.1347 C.ar    1  UNL1        0.0363
     17 N           5.4965    0.9319   -1.0528 N.ar    1  UNL1       -0.2321
     18 C           6.2739   -0.1221   -1.3592 C.ar    1  UNL1        0.2339
     19 C           7.3695   -0.0095   -2.3786 C.3     1  UNL1        0.4522
     20 F           8.5471    0.4118   -1.8272 F       1  UNL1       -0.1632
     21 F           7.5630   -1.2347   -2.9566 F       1  UNL1       -0.1632
     22 F           7.0263    0.8747   -3.3782 F       1  UNL1       -0.1632
     23 N           6.0291   -1.2770   -0.7161 N.ar    1  UNL1       -0.2321
     24 C           5.0627   -1.4327    0.2038 C.ar    1  UNL1        0.0363
     25 C          -0.4805    1.3245   -0.0005 C.ar    1  UNL1       -0.0397
     26 C          -1.6703    1.8510   -0.4856 C.ar    1  UNL1        0.0113
     27 C          -1.6807    3.2634   -0.7941 C.ar    1  UNL1        0.1097
     28 N          -0.9811    4.2693   -0.7931 N.ar    1  UNL1       -0.2458
     29 C          -1.2596    5.4705   -1.1396 C.ar    1  UNL1        0.0539
     30 C          -2.5570    5.6851   -1.5909 C.ar    1  UNL1        0.0980
     31 CL         -3.3883    7.1674   -2.1706 Cl      1  UNL1       -0.0742
     32 S          -3.2741    4.0343   -1.4579 S.2     1  UNL1       -0.0557
     33 C          -2.7752    1.0709   -0.6617 C.ar    1  UNL1       -0.0102
     34 H          -3.7740   -1.2976    1.9018 H       1  UNL1        0.0256
     35 H          -5.5638   -1.0921    2.1981 H       1  UNL1        0.0256
     36 H          -4.6726   -2.5356    2.8017 H       1  UNL1        0.0256
     37 H          -5.1719   -3.6975    0.9228 H       1  UNL1        0.0627
     38 H          -6.5868   -1.3796    0.6400 H       1  UNL1        0.2099
     39 H          -3.0105   -2.9199    0.1302 H       1  UNL1        0.0756
     40 H          -4.8302   -2.5662   -2.2270 H       1  UNL1        0.0266
     41 H          -4.8018   -4.0943   -1.2771 H       1  UNL1        0.0266
     42 H          -3.2715   -3.4797   -2.0442 H       1  UNL1        0.0266
     43 H          -1.4347   -1.8318    0.3838 H       1  UNL1        0.0662
     44 H           2.0451    1.1361    0.8283 H       1  UNL1        0.1496
     45 H           2.9804   -1.5717    1.7062 H       1  UNL1        0.0546
     46 H           3.8476    1.1769    2.7708 H       1  UNL1        0.0251
     47 H           2.9706   -0.0789    3.6727 H       1  UNL1        0.0251
     48 H           4.6183   -0.3944    3.0910 H       1  UNL1        0.0251
     49 H           3.8753    1.6864    0.1170 H       1  UNL1        0.0834
     50 H           4.8807   -2.3835    0.7159 H       1  UNL1        0.0834
     51 H           0.3881    1.9562    0.1340 H       1  UNL1        0.0632
     52 H          -0.5453    6.3215   -1.1007 H       1  UNL1        0.0850
     53 H          -3.7249    1.4600   -1.0422 H       1  UNL1        0.0661
@<TRIPOS>BOND
     1     1     2    1
     2     2     3    1
     3     2     4    1
     4     4     5    1
     5     4     6    1
     6     6     7    1
     7     7     8   ar
     8     8     9   ar
     9     9    10    1
    10    10    11    2
    11    10    12   am
    12    12    13    1
    13    13    14    1
    14    13    15    1
    15    15    16   ar
    16    16    17   ar
    17    17    18   ar
    18    18    19    1
    19    19    20    1
    20    19    21    1
    21    19    22    1
    22    18    23   ar
    23    23    24   ar
    24     9    25   ar
    25    25    26   ar
    26    26    27    1
    27    27    28   ar
    28    28    29   ar
    29    29    30   ar
    30    30    31    1
    31    30    32   ar
    32    26    33   ar
    33    33     7   ar
    34    24    15   ar
    35    32    27   ar
    36     1    34    1
    37     1    35    1
    38     1    36    1
    39     2    37    1
    40     3    38    1
    41     4    39    1
    42     5    40    1
    43     5    41    1
    44     5    42    1
    45     8    43    1
    46    12    44    1
    47    13    45    1
    48    14    46    1
    49    14    47    1
    50    14    48    1
    51    16    49    1
    52    24    50    1
    53    25    51    1
    54    29    52    1
    55    33    53    1
