@<TRIPOS>MOLECULE
*****
 38 41 0 0 0
SMALL
GASTEIGER

@<TRIPOS>ATOM
      1 F          -4.1911   -4.0556   -0.3705 F       1  UNL1       -0.2054
      2 C          -3.5581   -2.9238    0.0265 C.ar    1  UNL1        0.1262
      3 C          -3.4183   -1.8879   -0.8696 C.ar    1  UNL1       -0.0257
      4 C          -2.7836   -0.7448   -0.4792 C.ar    1  UNL1       -0.0470
      5 C          -2.2605   -0.5463    0.7716 C.ar    1  UNL1        0.0378
      6 C          -1.5844    0.6899    1.0921 C.ar    1  UNL1        0.0995
      7 N          -2.0162    1.7316    1.8666 N.ar    1  UNL1       -0.2350
      8 C          -1.0537    2.6983    1.8810 C.ar    1  UNL1        0.0972
      9 N          -0.0225    2.2841    1.1290 N.ar    1  UNL1       -0.3241
     10 C           1.2092    2.9904    0.8372 C.3     1  UNL1        0.0852
     11 C           1.0147    3.8822   -0.3803 C.3     1  UNL1        0.2569
     12 F           0.6622    3.1401   -1.4813 F       1  UNL1       -0.2073
     13 F           0.0514    4.8370   -0.1468 F       1  UNL1       -0.2073
     14 C          -0.3296    1.0694    0.6462 C.ar    1  UNL1        0.0781
     15 C           0.5285    0.2512   -0.1997 C.ar    1  UNL1        0.0172
     16 C           0.3191   -0.0043   -1.5238 C.ar    1  UNL1       -0.0477
     17 C           1.1683   -0.8045   -2.2572 C.ar    1  UNL1       -0.0182
     18 C           2.2955   -1.4004   -1.6805 C.ar    1  UNL1        0.1375
     19 N           3.2498   -2.1993   -2.1645 N.ar    1  UNL1       -0.2361
     20 C           4.0951   -2.4741   -1.1525 C.ar    1  UNL1        0.0464
     21 C           3.6151   -1.8140   -0.0531 C.ar    1  UNL1        0.0293
     22 N           2.4839   -1.1369   -0.3794 N.ar    1  UNL1       -0.3060
     23 C           1.6714   -0.3646    0.3438 C.ar    1  UNL1        0.0204
     24 C          -2.3987   -1.5759    1.6675 C.ar    1  UNL1        0.1353
     25 F          -1.9233   -1.4879    2.9244 F       1  UNL1       -0.2047
     26 C          -3.0461   -2.7613    1.2947 C.ar    1  UNL1        0.0095
     27 H          -3.8078   -1.9815   -1.8705 H       1  UNL1        0.0646
     28 H          -2.6962    0.0551   -1.1971 H       1  UNL1        0.0626
     29 H          -1.1188    3.6394    2.4131 H       1  UNL1        0.1029
     30 H           1.6262    3.5290    1.6825 H       1  UNL1        0.0548
     31 H           2.0079    2.2572    0.4988 H       1  UNL1        0.0548
     32 H           1.9721    4.3931   -0.6203 H       1  UNL1        0.1037
     33 H          -0.5298    0.4342   -2.0199 H       1  UNL1        0.0626
     34 H           0.9685   -0.9834   -3.2998 H       1  UNL1        0.0654
     35 H           4.9898   -3.1033   -1.2096 H       1  UNL1        0.0845
     36 H           4.0797   -1.8425    0.9070 H       1  UNL1        0.0829
     37 H           1.8976   -0.2033    1.3920 H       1  UNL1        0.0820
     38 H          -3.1675   -3.5864    1.9815 H       1  UNL1        0.0675
@<TRIPOS>BOND
     1     1     2    1
     2     2     3   ar
     3     3     4   ar
     4     4     5   ar
     5     5     6    1
     6     6     7   ar
     7     7     8   ar
     8     8     9   ar
     9     9    10    1
    10    10    11    1
    11    11    12    1
    12    11    13    1
    13     9    14   ar
    14    14    15    1
    15    15    16   ar
    16    16    17   ar
    17    17    18   ar
    18    18    19   ar
    19    19    20   ar
    20    20    21   ar
    21    21    22   ar
    22    22    23   ar
    23     5    24   ar
    24    24    25    1
    25    24    26   ar
    26    26     2   ar
    27    14     6   ar
    28    23    15   ar
    29    22    18   ar
    30     3    27    1
    31     4    28    1
    32     8    29    1
    33    10    30    1
    34    10    31    1
    35    11    32    1
    36    16    33    1
    37    17    34    1
    38    20    35    1
    39    21    36    1
    40    23    37    1
    41    26    38    1
