
     RDKit          3D

 38 41  0  0  0  0  0  0  0  0999 V2000
   -4.1911   -4.0556   -0.3705 F   0  0  0  0  0  0  0  0  0  0  0  0
   -3.5581   -2.9238    0.0265 C   0  0  0  0  0  0  0  0  0  0  0  0
   -3.4183   -1.8879   -0.8696 C   0  0  0  0  0  0  0  0  0  0  0  0
   -2.7836   -0.7448   -0.4792 C   0  0  0  0  0  0  0  0  0  0  0  0
   -2.2605   -0.5463    0.7716 C   0  0  0  0  0  0  0  0  0  0  0  0
   -1.5844    0.6899    1.0921 C   0  0  0  0  0  0  0  0  0  0  0  0
   -2.0162    1.7316    1.8666 N   0  0  0  0  0  0  0  0  0  0  0  0
   -1.0537    2.6983    1.8810 C   0  0  0  0  0  0  0  0  0  0  0  0
   -0.0225    2.2841    1.1290 N   0  0  0  0  0  0  0  0  0  0  0  0
    1.2092    2.9904    0.8372 C   0  0  0  0  0  0  0  0  0  0  0  0
    1.0147    3.8822   -0.3803 C   0  0  0  0  0  0  0  0  0  0  0  0
    0.6622    3.1401   -1.4813 F   0  0  0  0  0  0  0  0  0  0  0  0
    0.0514    4.8370   -0.1468 F   0  0  0  0  0  0  0  0  0  0  0  0
   -0.3296    1.0694    0.6462 C   0  0  0  0  0  0  0  0  0  0  0  0
    0.5285    0.2512   -0.1997 C   0  0  0  0  0  0  0  0  0  0  0  0
    0.3191   -0.0043   -1.5238 C   0  0  0  0  0  0  0  0  0  0  0  0
    1.1683   -0.8045   -2.2572 C   0  0  0  0  0  0  0  0  0  0  0  0
    2.2955   -1.4004   -1.6805 C   0  0  0  0  0  0  0  0  0  0  0  0
    3.2498   -2.1993   -2.1645 N   0  0  0  0  0  0  0  0  0  0  0  0
    4.0951   -2.4741   -1.1525 C   0  0  0  0  0  0  0  0  0  0  0  0
    3.6151   -1.8140   -0.0531 C   0  0  0  0  0  0  0  0  0  0  0  0
    2.4839   -1.1369   -0.3794 N   0  0  0  0  0  0  0  0  0  0  0  0
    1.6714   -0.3646    0.3438 C   0  0  0  0  0  0  0  0  0  0  0  0
   -2.3987   -1.5759    1.6675 C   0  0  0  0  0  0  0  0  0  0  0  0
   -1.9233   -1.4879    2.9244 F   0  0  0  0  0  0  0  0  0  0  0  0
   -3.0461   -2.7613    1.2947 C   0  0  0  0  0  0  0  0  0  0  0  0
   -3.8078   -1.9815   -1.8705 H   0  0  0  0  0  0  0  0  0  0  0  0
   -2.6962    0.0551   -1.1971 H   0  0  0  0  0  0  0  0  0  0  0  0
   -1.1188    3.6394    2.4131 H   0  0  0  0  0  0  0  0  0  0  0  0
    1.6262    3.5290    1.6825 H   0  0  0  0  0  0  0  0  0  0  0  0
    2.0079    2.2572    0.4988 H   0  0  0  0  0  0  0  0  0  0  0  0
    1.9721    4.3931   -0.6203 H   0  0  0  0  0  0  0  0  0  0  0  0
   -0.5298    0.4342   -2.0199 H   0  0  0  0  0  0  0  0  0  0  0  0
    0.9685   -0.9834   -3.2998 H   0  0  0  0  0  0  0  0  0  0  0  0
    4.9898   -3.1033   -1.2096 H   0  0  0  0  0  0  0  0  0  0  0  0
    4.0797   -1.8425    0.9070 H   0  0  0  0  0  0  0  0  0  0  0  0
    1.8976   -0.2033    1.3920 H   0  0  0  0  0  0  0  0  0  0  0  0
   -3.1675   -3.5864    1.9815 H   0  0  0  0  0  0  0  0  0  0  0  0
  1  2  1  0
  2  3  2  0
  3  4  1  0
  4  5  2  0
  5  6  1  0
  6  7  1  0
  7  8  2  0
  8  9  1  0
  9 10  1  0
 10 11  1  0
 11 12  1  0
 11 13  1  0
  9 14  1  0
 14 15  1  0
 15 16  1  0
 16 17  2  0
 17 18  1  0
 18 19  2  0
 19 20  1  0
 20 21  2  0
 21 22  1  0
 22 23  1  0
  5 24  1  0
 24 25  1  0
 24 26  2  0
 26  2  1  0
 14  6  2  0
 23 15  2  0
 22 18  1  0
  3 27  1  0
  4 28  1  0
  8 29  1  0
 10 30  1  0
 10 31  1  0
 11 32  1  0
 16 33  1  0
 17 34  1  0
 20 35  1  0
 21 36  1  0
 23 37  1  0
 26 38  1  0
M  END
$$$$
