@<TRIPOS>MOLECULE
*****
 50 54 0 0 0
SMALL
GASTEIGER

@<TRIPOS>ATOM
      1 O           0.6022    6.6840   -0.8488 O.2     1  UNL1       -0.2490
      2 C           0.5592    5.4374   -1.0788 C.2     1  UNL1        0.3247
      3 O          -0.0000    4.9204   -2.2336 O.3     1  UNL1       -0.4794
      4 C           1.1303    4.5183   -0.0695 C.3     1  UNL1        0.1202
      5 N           0.9680    3.1604   -0.5422 N.ar    1  UNL1       -0.3356
      6 C           1.8181    2.4371   -1.2888 C.ar    1  UNL1        0.0099
      7 C           1.2691    1.1662   -1.5174 C.ar    1  UNL1       -0.0158
      8 C           1.9325    0.1003   -2.2614 C.3     1  UNL1        0.0233
      9 C           2.6218   -0.8106   -1.3123 C.ar    1  UNL1        0.0841
     10 N           3.5697   -1.0593   -0.7013 N.ar    1  UNL1       -0.2406
     11 C           3.8631   -2.0533    0.1086 C.ar    1  UNL1        0.1192
     12 C           5.0357   -2.3218    0.8360 C.ar    1  UNL1        0.1849
     13 F           6.1233   -1.5133    0.7926 F       1  UNL1       -0.2002
     14 C           5.0880   -3.4431    1.6186 C.ar    1  UNL1        0.1633
     15 F           6.2509   -3.6777    2.3176 F       1  UNL1       -0.2023
     16 C           4.0834   -4.3674    1.7758 C.ar    1  UNL1        0.0129
     17 C           2.9079   -4.1046    1.0506 C.ar    1  UNL1        0.1420
     18 F           1.8313   -4.9275    1.1048 F       1  UNL1       -0.2042
     19 C           2.8413   -2.9887    0.2650 C.ar    1  UNL1        0.0773
     20 S           1.5462   -2.2894   -0.8133 S.2     1  UNL1       -0.0688
     21 C           0.0595    1.1951   -0.8650 C.ar    1  UNL1        0.0052
     22 C          -0.9609    0.2828   -0.7110 C.ar    1  UNL1       -0.0312
     23 C          -2.1246    0.5339   -0.0017 C.ar    1  UNL1        0.0305
     24 N          -3.1398   -0.4848    0.1267 N.pl3   1  UNL1       -0.3255
     25 C          -4.4893   -0.1981    0.4949 C.3     1  UNL1        0.0357
     26 C          -4.9810   -1.2374    1.4853 C.3     1  UNL1        0.0634
     27 O          -4.7811   -2.5028    0.9510 O.3     1  UNL1       -0.3767
     28 C          -3.4322   -2.7748    0.9404 C.3     1  UNL1        0.0634
     29 C          -2.7970   -1.8867   -0.1226 C.3     1  UNL1        0.0357
     30 C          -2.2909    1.7563    0.5883 C.ar    1  UNL1       -0.0387
     31 C          -1.2874    2.7028    0.4555 C.ar    1  UNL1       -0.0358
     32 C          -0.1417    2.4253   -0.2550 C.ar    1  UNL1        0.0499
     33 H          -0.3371    5.5772   -2.9294 H       1  UNL1        0.2951
     34 H           0.6977    4.6395    0.9426 H       1  UNL1        0.0607
     35 H           2.2208    4.7343   -0.0294 H       1  UNL1        0.0607
     36 H           2.7896    2.7490   -1.6753 H       1  UNL1        0.0812
     37 H           1.1793   -0.4286   -2.9089 H       1  UNL1        0.0383
     38 H           2.7461    0.5353   -2.9118 H       1  UNL1        0.0383
     39 H           4.1519   -5.2356    2.3954 H       1  UNL1        0.0676
     40 H          -0.8106   -0.6622   -1.2085 H       1  UNL1        0.0643
     41 H          -4.6862    0.7872    0.9195 H       1  UNL1        0.0486
     42 H          -5.1909   -0.2852   -0.3781 H       1  UNL1        0.0486
     43 H          -6.0858   -1.0384    1.5838 H       1  UNL1        0.0575
     44 H          -4.5685   -1.1155    2.4949 H       1  UNL1        0.0575
     45 H          -2.9423   -2.5984    1.9347 H       1  UNL1        0.0575
     46 H          -3.2886   -3.8240    0.6231 H       1  UNL1        0.0575
     47 H          -1.6961   -2.0436   -0.1451 H       1  UNL1        0.0486
     48 H          -3.2313   -2.1610   -1.0935 H       1  UNL1        0.0486
     49 H          -3.1916    2.0212    1.1688 H       1  UNL1        0.0637
     50 H          -1.4318    3.6698    0.9282 H       1  UNL1        0.0639
@<TRIPOS>BOND
     1     1     2    2
     2     2     3    1
     3     2     4    1
     4     4     5    1
     5     5     6   ar
     6     6     7   ar
     7     7     8    1
     8     8     9    1
     9     9    10   ar
    10    10    11   ar
    11    11    12   ar
    12    12    13    1
    13    12    14   ar
    14    14    15    1
    15    14    16   ar
    16    16    17   ar
    17    17    18    1
    18    17    19   ar
    19    19    20   ar
    20     7    21   ar
    21    21    22   ar
    22    22    23   ar
    23    23    24    1
    24    24    25    1
    25    25    26    1
    26    26    27    1
    27    27    28    1
    28    28    29    1
    29    23    30   ar
    30    30    31   ar
    31    31    32   ar
    32    32     5   ar
    33    20     9   ar
    34    32    21   ar
    35    19    11   ar
    36    29    24    1
    37     3    33    1
    38     4    34    1
    39     4    35    1
    40     6    36    1
    41     8    37    1
    42     8    38    1
    43    16    39    1
    44    22    40    1
    45    25    41    1
    46    25    42    1
    47    26    43    1
    48    26    44    1
    49    28    45    1
    50    28    46    1
    51    29    47    1
    52    29    48    1
    53    30    49    1
    54    31    50    1
