
     RDKit          3D

 50 54  0  0  0  0  0  0  0  0999 V2000
    0.6022    6.6840   -0.8488 O   0  0  0  0  0  0  0  0  0  0  0  0
    0.5592    5.4374   -1.0788 C   0  0  0  0  0  0  0  0  0  0  0  0
   -0.0000    4.9204   -2.2336 O   0  0  0  0  0  0  0  0  0  0  0  0
    1.1303    4.5183   -0.0695 C   0  0  0  0  0  0  0  0  0  0  0  0
    0.9680    3.1604   -0.5422 N   0  0  0  0  0  0  0  0  0  0  0  0
    1.8181    2.4371   -1.2888 C   0  0  0  0  0  0  0  0  0  0  0  0
    1.2691    1.1662   -1.5174 C   0  0  0  0  0  0  0  0  0  0  0  0
    1.9325    0.1003   -2.2614 C   0  0  0  0  0  0  0  0  0  0  0  0
    2.6218   -0.8106   -1.3123 C   0  0  0  0  0  0  0  0  0  0  0  0
    3.5697   -1.0593   -0.7013 N   0  0  0  0  0  0  0  0  0  0  0  0
    3.8631   -2.0533    0.1086 C   0  0  0  0  0  0  0  0  0  0  0  0
    5.0357   -2.3218    0.8360 C   0  0  0  0  0  0  0  0  0  0  0  0
    6.1233   -1.5133    0.7926 F   0  0  0  0  0  0  0  0  0  0  0  0
    5.0880   -3.4431    1.6186 C   0  0  0  0  0  0  0  0  0  0  0  0
    6.2509   -3.6777    2.3176 F   0  0  0  0  0  0  0  0  0  0  0  0
    4.0834   -4.3674    1.7758 C   0  0  0  0  0  0  0  0  0  0  0  0
    2.9079   -4.1046    1.0506 C   0  0  0  0  0  0  0  0  0  0  0  0
    1.8313   -4.9275    1.1048 F   0  0  0  0  0  0  0  0  0  0  0  0
    2.8413   -2.9887    0.2650 C   0  0  0  0  0  0  0  0  0  0  0  0
    1.5462   -2.2894   -0.8133 S   0  0  0  0  0  0  0  0  0  0  0  0
    0.0595    1.1951   -0.8650 C   0  0  0  0  0  0  0  0  0  0  0  0
   -0.9609    0.2828   -0.7110 C   0  0  0  0  0  0  0  0  0  0  0  0
   -2.1246    0.5339   -0.0017 C   0  0  0  0  0  0  0  0  0  0  0  0
   -3.1398   -0.4848    0.1267 N   0  0  0  0  0  0  0  0  0  0  0  0
   -4.4893   -0.1981    0.4949 C   0  0  0  0  0  0  0  0  0  0  0  0
   -4.9810   -1.2374    1.4853 C   0  0  0  0  0  0  0  0  0  0  0  0
   -4.7811   -2.5028    0.9510 O   0  0  0  0  0  0  0  0  0  0  0  0
   -3.4322   -2.7748    0.9404 C   0  0  0  0  0  0  0  0  0  0  0  0
   -2.7970   -1.8867   -0.1226 C   0  0  0  0  0  0  0  0  0  0  0  0
   -2.2909    1.7563    0.5883 C   0  0  0  0  0  0  0  0  0  0  0  0
   -1.2874    2.7028    0.4555 C   0  0  0  0  0  0  0  0  0  0  0  0
   -0.1417    2.4253   -0.2550 C   0  0  0  0  0  0  0  0  0  0  0  0
   -0.3371    5.5772   -2.9294 H   0  0  0  0  0  0  0  0  0  0  0  0
    0.6977    4.6395    0.9426 H   0  0  0  0  0  0  0  0  0  0  0  0
    2.2208    4.7343   -0.0294 H   0  0  0  0  0  0  0  0  0  0  0  0
    2.7896    2.7490   -1.6753 H   0  0  0  0  0  0  0  0  0  0  0  0
    1.1793   -0.4286   -2.9089 H   0  0  0  0  0  0  0  0  0  0  0  0
    2.7461    0.5353   -2.9118 H   0  0  0  0  0  0  0  0  0  0  0  0
    4.1519   -5.2356    2.3954 H   0  0  0  0  0  0  0  0  0  0  0  0
   -0.8106   -0.6622   -1.2085 H   0  0  0  0  0  0  0  0  0  0  0  0
   -4.6862    0.7872    0.9195 H   0  0  0  0  0  0  0  0  0  0  0  0
   -5.1909   -0.2852   -0.3781 H   0  0  0  0  0  0  0  0  0  0  0  0
   -6.0858   -1.0384    1.5838 H   0  0  0  0  0  0  0  0  0  0  0  0
   -4.5685   -1.1155    2.4949 H   0  0  0  0  0  0  0  0  0  0  0  0
   -2.9423   -2.5984    1.9347 H   0  0  0  0  0  0  0  0  0  0  0  0
   -3.2886   -3.8240    0.6231 H   0  0  0  0  0  0  0  0  0  0  0  0
   -1.6961   -2.0436   -0.1451 H   0  0  0  0  0  0  0  0  0  0  0  0
   -3.2313   -2.1610   -1.0935 H   0  0  0  0  0  0  0  0  0  0  0  0
   -3.1916    2.0212    1.1688 H   0  0  0  0  0  0  0  0  0  0  0  0
   -1.4318    3.6698    0.9282 H   0  0  0  0  0  0  0  0  0  0  0  0
  1  2  2  0
  2  3  1  0
  2  4  1  0
  4  5  1  0
  5  6  1  0
  6  7  2  0
  7  8  1  0
  8  9  1  0
  9 10  2  0
 10 11  1  0
 11 12  2  0
 12 13  1  0
 12 14  1  0
 14 15  1  0
 14 16  2  0
 16 17  1  0
 17 18  1  0
 17 19  2  0
 19 20  1  0
  7 21  1  0
 21 22  2  0
 22 23  1  0
 23 24  1  0
 24 25  1  0
 25 26  1  0
 26 27  1  0
 27 28  1  0
 28 29  1  0
 23 30  2  0
 30 31  1  0
 31 32  2  0
 32  5  1  0
 20  9  1  0
 32 21  1  0
 19 11  1  0
 29 24  1  0
  3 33  1  0
  4 34  1  0
  4 35  1  0
  6 36  1  0
  8 37  1  0
  8 38  1  0
 16 39  1  0
 22 40  1  0
 25 41  1  0
 25 42  1  0
 26 43  1  0
 26 44  1  0
 28 45  1  0
 28 46  1  0
 29 47  1  0
 29 48  1  0
 30 49  1  0
 31 50  1  0
M  END
$$$$
