@<TRIPOS>MOLECULE
*****
 59 64 0 0 0
SMALL
GASTEIGER

@<TRIPOS>ATOM
      1 C          -4.8992    1.0621   -0.9893 C.3     1  UNL1       -0.0125
      2 N          -4.2985   -0.2014   -1.2579 N.3     1  UNL1       -0.3023
      3 C          -5.1848   -1.3109   -1.3726 C.3     1  UNL1       -0.0011
      4 C          -5.0286   -2.1285   -0.1190 C.3     1  UNL1       -0.0388
      5 C          -3.8700   -1.5545    0.6324 C.3     1  UNL1       -0.0361
      6 C          -3.2442   -0.5552   -0.3164 C.3     1  UNL1        0.0118
      7 C          -2.1916   -1.2525   -1.1322 C.3     1  UNL1       -0.0193
      8 C          -0.9724   -1.6808   -0.3991 C.3     1  UNL1        0.0247
      9 N          -0.3048   -0.5229    0.1581 N.ar    1  UNL1       -0.3460
     10 C           0.5539    0.2531   -0.5674 C.ar    1  UNL1        0.0136
     11 C           1.0075    1.3081    0.2082 C.ar    1  UNL1        0.0131
     12 C           1.9511    2.3535   -0.2046 C.2     1  UNL1        0.0590
     13 C           3.0925    2.1822   -0.8471 C.2     1  UNL1        0.0589
     14 C           3.6280    0.8983   -1.2633 C.ar    1  UNL1        0.0129
     15 C           4.0727    0.6018   -2.5388 C.ar    1  UNL1        0.0106
     16 N           4.5263   -0.6514   -2.5849 N.ar    1  UNL1       -0.3600
     17 C           4.3919   -1.2015   -1.3524 C.ar    1  UNL1        0.0471
     18 C           4.7161   -2.4593   -0.8695 C.ar    1  UNL1       -0.0378
     19 C           4.4987   -2.7917    0.4300 C.ar    1  UNL1       -0.0598
     20 C           3.9447   -1.8413    1.2608 C.ar    1  UNL1       -0.0611
     21 C           3.6113   -0.5769    0.8035 C.ar    1  UNL1       -0.0520
     22 C           3.8280   -0.2354   -0.5117 C.ar    1  UNL1        0.0075
     23 C           3.7255    3.5023   -1.0817 C.2     1  UNL1        0.2519
     24 O           4.8279    3.6238   -1.6763 O.2     1  UNL1       -0.2697
     25 N           2.8844    4.5056   -0.5341 N.am    1  UNL1       -0.2483
     26 C           1.7627    3.7819    0.0199 C.2     1  UNL1        0.2519
     27 O           0.8086    4.3754    0.5918 O.2     1  UNL1       -0.2697
     28 C           0.3992    1.1496    1.4310 C.ar    1  UNL1        0.0077
     29 C           0.4545    1.8496    2.6086 C.ar    1  UNL1       -0.0520
     30 C          -0.2444    1.4894    3.7407 C.ar    1  UNL1       -0.0611
     31 C          -1.0272    0.3690    3.6585 C.ar    1  UNL1       -0.0598
     32 C          -1.1218   -0.3750    2.5022 C.ar    1  UNL1       -0.0376
     33 C          -0.4119    0.0061    1.3786 C.ar    1  UNL1        0.0497
     34 H          -5.3804    1.1463    0.0007 H       1  UNL1        0.0391
     35 H          -5.6266    1.2895   -1.8058 H       1  UNL1        0.0391
     36 H          -4.0928    1.8396   -1.1189 H       1  UNL1        0.0391
     37 H          -4.7916   -1.9597   -2.2096 H       1  UNL1        0.0426
     38 H          -6.2219   -1.0406   -1.6091 H       1  UNL1        0.0426
     39 H          -4.8201   -3.2037   -0.3204 H       1  UNL1        0.0278
     40 H          -5.9494   -2.1203    0.5051 H       1  UNL1        0.0278
     41 H          -3.1552   -2.3515    0.9384 H       1  UNL1        0.0281
     42 H          -4.2128   -1.0428    1.5791 H       1  UNL1        0.0281
     43 H          -2.8564    0.2947    0.2460 H       1  UNL1        0.0463
     44 H          -2.6907   -2.1269   -1.6520 H       1  UNL1        0.0297
     45 H          -1.9124   -0.5295   -1.9503 H       1  UNL1        0.0297
     46 H          -0.3048   -2.1936   -1.1425 H       1  UNL1        0.0492
     47 H          -1.2373   -2.3879    0.3986 H       1  UNL1        0.0492
     48 H           0.8564    0.0997   -1.5861 H       1  UNL1        0.0815
     49 H           4.0731    1.2591   -3.4077 H       1  UNL1        0.0813
     50 H           4.9245   -1.1681   -3.3941 H       1  UNL1        0.1654
     51 H           5.1558   -3.2214   -1.5193 H       1  UNL1        0.0638
     52 H           4.7429   -3.7599    0.8192 H       1  UNL1        0.0618
     53 H           3.7750   -2.1129    2.2911 H       1  UNL1        0.0618
     54 H           3.1968    0.1361    1.4862 H       1  UNL1        0.0624
     55 H           3.0422    5.5201   -0.5332 H       1  UNL1        0.1581
     56 H           1.0895    2.7481    2.6976 H       1  UNL1        0.0624
     57 H          -0.1514    2.0937    4.6368 H       1  UNL1        0.0618
     58 H          -1.5840    0.0855    4.5652 H       1  UNL1        0.0618
     59 H          -1.7546   -1.2665    2.5032 H       1  UNL1        0.0638
@<TRIPOS>BOND
     1     1     2    1
     2     2     3    1
     3     3     4    1
     4     4     5    1
     5     5     6    1
     6     6     7    1
     7     7     8    1
     8     8     9    1
     9     9    10   ar
    10    10    11   ar
    11    11    12    1
    12    12    13    2
    13    13    14    1
    14    14    15   ar
    15    15    16   ar
    16    16    17   ar
    17    17    18   ar
    18    18    19   ar
    19    19    20   ar
    20    20    21   ar
    21    21    22   ar
    22    13    23    1
    23    23    24    2
    24    23    25   am
    25    25    26   am
    26    26    27    2
    27    11    28   ar
    28    28    29   ar
    29    29    30   ar
    30    30    31   ar
    31    31    32   ar
    32    32    33   ar
    33     6     2    1
    34    33     9   ar
    35    26    12    1
    36    33    28   ar
    37    22    14   ar
    38    22    17   ar
    39     1    34    1
    40     1    35    1
    41     1    36    1
    42     3    37    1
    43     3    38    1
    44     4    39    1
    45     4    40    1
    46     5    41    1
    47     5    42    1
    48     6    43    1
    49     7    44    1
    50     7    45    1
    51     8    46    1
    52     8    47    1
    53    10    48    1
    54    15    49    1
    55    16    50    1
    56    18    51    1
    57    19    52    1
    58    20    53    1
    59    21    54    1
    60    25    55    1
    61    29    56    1
    62    30    57    1
    63    31    58    1
    64    32    59    1
