@<TRIPOS>MOLECULE
*****
 63 66 0 0 0
SMALL
GASTEIGER

@<TRIPOS>ATOM
      1 C           6.2590   -2.6631    2.1166 C.3     1  UNL1       -0.0353
      2 C           6.5412   -1.2339    1.8750 C.ar    1  UNL1        0.0089
      3 C           5.7514   -0.2547    1.3628 C.ar    1  UNL1        0.1937
      4 C           4.3738   -0.3897    0.8937 C.2     1  UNL1        0.2839
      5 O           3.8315   -1.5119    0.9813 O.2     1  UNL1       -0.2665
      6 N           3.7001    0.7385    0.3608 N.am    1  UNL1       -0.2790
      7 C           2.3863    0.7138   -0.1069 C.ar    1  UNL1        0.0338
      8 C           1.8763    1.9333   -0.5674 C.ar    1  UNL1       -0.0399
      9 C           0.5634    2.0028   -1.0481 C.ar    1  UNL1       -0.0523
     10 C          -0.2417    0.8940   -1.0778 C.ar    1  UNL1       -0.0178
     11 C          -1.5992    0.9964   -1.5712 C.ar    1  UNL1       -0.0178
     12 C          -2.3569    2.1490   -1.4139 C.ar    1  UNL1       -0.0522
     13 C          -3.6490    2.2792   -1.8754 C.ar    1  UNL1       -0.0348
     14 C          -4.2533    1.2333   -2.5316 C.ar    1  UNL1        0.1053
     15 S          -5.8692    1.3925   -3.1159 S.O2    1  UNL1        0.0591
     16 O          -6.0936    2.8372   -3.5069 O.2     1  UNL1       -0.1530
     17 O          -6.0011    0.5909   -4.3840 O.2     1  UNL1       -0.1530
     18 N          -6.9726    0.9031   -1.9179 N.3     1  UNL1       -0.1759
     19 C          -6.8755   -0.4529   -1.4892 C.3     1  UNL1        0.1276
     20 C          -8.0682   -1.2347   -2.0085 C.2     1  UNL1        0.3238
     21 O          -8.1128   -2.4510   -1.7712 O.2     1  UNL1       -0.2492
     22 O          -9.0893   -0.6441   -2.7288 O.3     1  UNL1       -0.4795
     23 C          -6.7720   -0.5431   -0.0165 C.3     1  UNL1       -0.0194
     24 C          -6.6537   -1.9610    0.5248 C.3     1  UNL1       -0.0607
     25 C          -5.6506    0.3166    0.5070 C.3     1  UNL1       -0.0607
     26 C          -3.5308    0.0744   -2.7056 C.ar    1  UNL1       -0.0348
     27 C          -2.2296   -0.0355   -2.2321 C.ar    1  UNL1       -0.0522
     28 C           0.2732   -0.2871   -0.6240 C.ar    1  UNL1       -0.0523
     29 C           1.5963   -0.3773   -0.1357 C.ar    1  UNL1       -0.0399
     30 O           6.4310    0.8496    1.3554 O.2     1  UNL1       -0.4499
     31 C           7.6277    0.6955    1.8261 C.ar    1  UNL1        0.1374
     32 C           8.6330    1.6313    1.9778 C.ar    1  UNL1       -0.0187
     33 C           9.8284    1.1665    2.5195 C.ar    1  UNL1       -0.0570
     34 C          10.0137   -0.1447    2.8864 C.ar    1  UNL1       -0.0435
     35 C           8.9585   -1.0401    2.7065 C.ar    1  UNL1        0.0628
     36 C           9.1545   -2.4161    3.0670 C.1     1  UNL1        0.0999
     37 N           9.3152   -3.5199    3.3499 N.1     1  UNL1       -0.1908
     38 C           7.7690   -0.6214    2.1796 C.ar    1  UNL1        0.0412
     39 H           6.6203   -2.9462    3.1397 H       1  UNL1        0.0279
     40 H           6.7277   -3.2825    1.3196 H       1  UNL1        0.0279
     41 H           5.1801   -2.8986    2.1025 H       1  UNL1        0.0279
     42 H           4.2803    1.6418    0.3305 H       1  UNL1        0.1552
     43 H           2.4904    2.8204   -0.5606 H       1  UNL1        0.0636
     44 H           0.1636    2.9414   -1.4094 H       1  UNL1        0.0624
     45 H          -1.8596    2.9727   -0.8902 H       1  UNL1        0.0624
     46 H          -4.2060    3.2182   -1.7203 H       1  UNL1        0.0637
     47 H          -7.0087    1.6250   -1.1822 H       1  UNL1        0.1489
     48 H          -6.0054   -0.9273   -1.9760 H       1  UNL1        0.0595
     49 H          -9.5701   -1.1205   -3.4923 H       1  UNL1        0.2951
     50 H          -7.7309   -0.1510    0.4596 H       1  UNL1        0.0316
     51 H          -7.5837   -2.5496    0.4273 H       1  UNL1        0.0233
     52 H          -5.8074   -2.5199    0.0974 H       1  UNL1        0.0233
     53 H          -6.5175   -1.8284    1.6464 H       1  UNL1        0.0233
     54 H          -5.5102    0.0443    1.5956 H       1  UNL1        0.0233
     55 H          -4.6618    0.1029    0.0556 H       1  UNL1        0.0233
     56 H          -5.8491    1.3945    0.4023 H       1  UNL1        0.0233
     57 H          -4.0027   -0.7672   -3.2350 H       1  UNL1        0.0637
     58 H          -1.6645   -0.9429   -2.3654 H       1  UNL1        0.0624
     59 H          -0.3523   -1.1626   -0.6434 H       1  UNL1        0.0624
     60 H           1.9160   -1.3477    0.1970 H       1  UNL1        0.0636
     61 H           8.5282    2.6714    1.7043 H       1  UNL1        0.0654
     62 H          10.6238    1.8998    2.6427 H       1  UNL1        0.0619
     63 H          10.9351   -0.5038    3.3048 H       1  UNL1        0.0631
@<TRIPOS>BOND
     1     1     2    1
     2     2     3   ar
     3     3     4    1
     4     4     5    2
     5     4     6   am
     6     6     7    1
     7     7     8   ar
     8     8     9   ar
     9     9    10   ar
    10    10    11    1
    11    11    12   ar
    12    12    13   ar
    13    13    14   ar
    14    14    15    1
    15    15    16    2
    16    15    17    2
    17    15    18    1
    18    18    19    1
    19    19    20    1
    20    20    21    2
    21    20    22    1
    22    19    23    1
    23    23    24    1
    24    23    25    1
    25    14    26   ar
    26    26    27   ar
    27    10    28   ar
    28    28    29   ar
    29     3    30   ar
    30    30    31   ar
    31    31    32   ar
    32    32    33   ar
    33    33    34   ar
    34    34    35   ar
    35    35    36    1
    36    36    37    3
    37    35    38   ar
    38    38     2   ar
    39    29     7   ar
    40    38    31   ar
    41    27    11   ar
    42     1    39    1
    43     1    40    1
    44     1    41    1
    45     6    42    1
    46     8    43    1
    47     9    44    1
    48    12    45    1
    49    13    46    1
    50    18    47    1
    51    19    48    1
    52    22    49    1
    53    23    50    1
    54    24    51    1
    55    24    52    1
    56    24    53    1
    57    25    54    1
    58    25    55    1
    59    25    56    1
    60    26    57    1
    61    27    58    1
    62    28    59    1
    63    29    60    1
    64    32    61    1
    65    33    62    1
    66    34    63    1
