@<TRIPOS>MOLECULE
*****
 57 59 0 0 0
SMALL
GASTEIGER

@<TRIPOS>ATOM
      1 CA          6.1394   -0.3820   -0.2674 C.3     1  GLU1        0.1209
      2 CB          6.6685   -1.3497    0.7475 C.3     1  GLU1       -0.0140
      3 CG          8.1802   -1.1543    0.8523 C.3     1  GLU1        0.0470
      4 CD          8.4247    0.2547    1.2798 C.2     1  GLU1        0.3048
      5 OE1         7.8258    1.4560    1.6216 O.3     1  GLU1       -0.4806
      6 OE2         9.6663    0.5220    1.3945 O.2     1  GLU1       -0.2510
      7 N           4.6901   -0.5070   -0.4267 N.am    1  GLU1       -0.2983
      8 C           3.8112    0.5910   -0.2196 C.2     0  UNK0        0.2447
      9 O           4.2702    1.7127    0.1110 O.2     0  UNK0       -0.2702
     10 C           2.3643    0.4875   -0.3731 C.ar    0  UNK0        0.0367
     11 C           1.6082    1.6168   -0.1473 C.ar    0  UNK0       -0.0494
     12 C           0.2178    1.5422   -0.2884 C.ar    0  UNK0       -0.0579
     13 C          -0.4165    0.3709   -0.6470 C.ar    0  UNK0       -0.0473
     14 C          -1.8988    0.2804   -0.8003 C.3     0  UNK0       -0.0274
     15 C          -2.4694   -0.1009    0.5205 C.3     0  UNK0       -0.0445
     16 C          -3.9655   -0.2392    0.5529 C.3     0  UNK0       -0.0209
     17 C          -4.4386   -1.2968   -0.4116 C.3     0  UNK0        0.0135
     18 N          -5.8049   -1.6292   -0.0501 N.pl3   0  UNK0       -0.3298
     19 C          -6.6939   -0.5301    0.1211 C.ar    0  UNK0        0.1071
     20 C          -6.1560    0.7309    0.3171 C.ar    0  UNK0        0.0521
     21 C          -4.7005    1.0422    0.3651 C.3     0  UNK0       -0.0152
     22 C          -6.9751    1.8267    0.4877 C.ar    0  UNK0        0.2219
     23 O          -6.4947    3.1217    0.6890 O.3     0  UNK0       -0.4921
     24 N          -8.3174    1.6187    0.4558 N.ar    0  UNK0       -0.1774
     25 C          -8.8251    0.3765    0.2627 C.ar    0  UNK0        0.2250
     26 N         -10.1150    0.3148    0.2535 N.2     0  UNK0       -0.2664
     27 N          -8.0325   -0.6852    0.0974 N.ar    0  UNK0       -0.3126
     28 C           0.3414   -0.7646   -0.8743 C.ar    0  UNK0       -0.0579
     29 C           1.7113   -0.6738   -0.7308 C.ar    0  UNK0       -0.0494
     30 C           6.7954   -0.5692   -1.5935 C.2     1  GLU1        0.3253
     31 O           7.5296   -0.7255   -2.7720 O.3     1  GLU1       -0.4793
     32 OXT         5.7875   -0.7681   -2.3466 O.2     1  GLU1       -0.2489
     33 HA          6.3211    0.6631    0.0192 H       1  GLU1        0.0614
     34 HB1         6.4359   -2.3826    0.4305 H       1  GLU1        0.0294
     35 HB2         6.1808   -1.0822    1.7256 H       1  GLU1        0.0294
     36 HG1         8.5943   -1.3381   -0.1550 H       1  GLU1        0.0378
     37 HG2         8.6133   -1.8551    1.6060 H       1  GLU1        0.0378
     38 HE1         7.9514    2.2961    1.0553 H       1  GLU1        0.2951
     39 H           4.3107   -1.4393   -0.7013 H       1  GLU1        0.1498
     40 H           2.0348    2.5818    0.1397 H       0  UNK0        0.0625
     41 H          -0.3495    2.4370   -0.1067 H       0  UNK0        0.0620
     42 H          -2.0962   -0.4905   -1.5733 H       0  UNK0        0.0313
     43 H          -2.3011    1.2307   -1.2054 H       0  UNK0        0.0313
     44 H          -2.1089    0.5631    1.3079 H       0  UNK0        0.0272
     45 H          -2.0607   -1.1181    0.7638 H       0  UNK0        0.0272
     46 H          -4.2191   -0.6144    1.5749 H       0  UNK0        0.0319
     47 H          -4.4970   -0.8973   -1.4573 H       0  UNK0        0.0464
     48 H          -3.7646   -2.1690   -0.3358 H       0  UNK0        0.0464
     49 H          -6.1811   -2.6007    0.0922 H       0  UNK0        0.1474
     50 H          -4.4892    1.7345    1.2108 H       0  UNK0        0.0319
     51 H          -4.4429    1.5715   -0.5744 H       0  UNK0        0.0319
     52 H          -5.8886    3.5733   -0.0013 H       0  UNK0        0.2937
     53 H         -10.5332   -0.6513    0.1033 H       0  UNK0        0.1898
     54 H          -8.4481   -1.6307   -0.0496 H       0  UNK0        0.1700
     55 H          -0.1371   -1.7058   -1.1597 H       0  UNK0        0.0620
     56 H           2.2869   -1.5662   -0.9111 H       0  UNK0        0.0625
     57 H           8.0597   -1.6001   -2.8539 H       1  GLU1        0.2951
@<TRIPOS>BOND
     1     1     2    1
     2     2     3    1
     3     3     4    1
     4     4     5    1
     5     4     6    2
     6     1     7    1
     7     7     8   am
     8     8     9    2
     9     8    10    1
    10    10    11   ar
    11    11    12   ar
    12    12    13   ar
    13    13    14    1
    14    14    15    1
    15    15    16    1
    16    16    17    1
    17    17    18    1
    18    18    19    1
    19    19    20   ar
    20    20    21    1
    21    20    22   ar
    22    22    23    1
    23    22    24   ar
    24    24    25   ar
    25    25    26    2
    26    25    27   ar
    27    13    28   ar
    28    28    29   ar
    29     1    30    1
    30    30    31    1
    31    30    32    2
    32    29    10   ar
    33    21    16    1
    34    27    19   ar
    35     1    33    1
    36     2    34    1
    37     2    35    1
    38     3    36    1
    39     3    37    1
    40     5    38    1
    41     7    39    1
    42    11    40    1
    43    12    41    1
    44    14    42    1
    45    14    43    1
    46    15    44    1
    47    15    45    1
    48    16    46    1
    49    17    47    1
    50    17    48    1
    51    18    49    1
    52    21    50    1
    53    21    51    1
    54    23    52    1
    55    26    53    1
    56    27    54    1
    57    28    55    1
    58    29    56    1
    59    31    57    1
