@<TRIPOS>MOLECULE
*****
 32 33 0 0 0
SMALL
GASTEIGER

@<TRIPOS>ATOM
      1 C          -4.5050   -0.7793    2.0955 C.3     1  UNL1        0.0788
      2 O          -3.1142   -0.6045    1.8188 O.3     1  UNL1       -0.4951
      3 C          -2.7390   -0.0149    0.6201 C.ar    1  UNL1        0.1209
      4 C          -3.6490    0.4094   -0.3173 C.ar    1  UNL1       -0.0164
      5 C          -3.2554    0.9990   -1.5128 C.ar    1  UNL1       -0.0153
      6 C          -1.9074    1.1612   -1.7620 C.ar    1  UNL1        0.1353
      7 O          -1.2262    1.6733   -2.7776 O.2     1  UNL1       -0.4626
      8 C           0.0639    1.6010   -2.5444 C.ar    1  UNL1        0.0963
      9 C           0.2859    1.0131   -1.3135 C.ar    1  UNL1       -0.0003
     10 C           1.5985    0.7417   -0.6748 C.3     1  UNL1       -0.0085
     11 C           1.9740   -0.7200   -0.7776 C.3     1  UNL1        0.0157
     12 N           3.2513   -0.9811   -0.1568 N.am    1  UNL1       -0.3143
     13 C           3.5496   -0.7562    1.2120 C.2     1  UNL1        0.2235
     14 O           2.6555   -0.3013    1.9517 O.2     1  UNL1       -0.2749
     15 C           4.9150   -1.0625    1.7445 C.3     1  UNL1        0.0798
     16 BR          6.0783    0.4550    1.6244 Br      1  UNL1       -0.0819
     17 C          -0.9733    0.7368   -0.8235 C.ar    1  UNL1        0.0268
     18 C          -1.4029    0.1573    0.3488 C.ar    1  UNL1       -0.0089
     19 H          -4.9573   -1.5266    1.4191 H       1  UNL1        0.0660
     20 H          -5.0173    0.1973    1.9256 H       1  UNL1        0.0660
     21 H          -4.6676   -1.1178    3.1364 H       1  UNL1        0.0660
     22 H          -4.7030    0.2627   -0.0810 H       1  UNL1        0.0655
     23 H          -4.0008    1.3235   -2.2326 H       1  UNL1        0.0656
     24 H           0.8459    1.9495   -3.2151 H       1  UNL1        0.1032
     25 H           2.4038    1.3198   -1.1818 H       1  UNL1        0.0329
     26 H           1.6175    1.0597    0.3868 H       1  UNL1        0.0329
     27 H           1.2136   -1.2826   -0.1857 H       1  UNL1        0.0465
     28 H           2.0071   -1.0488   -1.8204 H       1  UNL1        0.0465
     29 H           4.0520   -1.3716   -0.7386 H       1  UNL1        0.1487
     30 H           4.8994   -1.4778    2.7667 H       1  UNL1        0.0477
     31 H           5.3428   -1.8640    1.0840 H       1  UNL1        0.0477
     32 H          -0.6358   -0.1515    1.0394 H       1  UNL1        0.0661
@<TRIPOS>BOND
     1     1     2    1
     2     2     3    1
     3     3     4   ar
     4     4     5   ar
     5     5     6   ar
     6     6     7   ar
     7     7     8   ar
     8     8     9   ar
     9     9    10    1
    10    10    11    1
    11    11    12    1
    12    12    13   am
    13    13    14    2
    14    13    15    1
    15    15    16    1
    16     9    17   ar
    17    17    18   ar
    18    18     3   ar
    19    17     6   ar
    20     1    19    1
    21     1    20    1
    22     1    21    1
    23     4    22    1
    24     5    23    1
    25     8    24    1
    26    10    25    1
    27    10    26    1
    28    11    27    1
    29    11    28    1
    30    12    29    1
    31    15    30    1
    32    15    31    1
    33    18    32    1
