@<TRIPOS>MOLECULE
*****
 75 78 0 0 0
SMALL
GASTEIGER

@<TRIPOS>ATOM
      1 C           6.9814    1.2754   -2.6309 C.3     1  UNL1       -0.0653
      2 C           7.9649    0.1756   -2.2910 C.3     1  UNL1       -0.0559
      3 C           7.4965   -0.4951   -0.9934 C.3     1  UNL1       -0.0533
      4 C           7.4818    0.5745    0.0501 C.3     1  UNL1       -0.0531
      5 C           7.0422    0.1058    1.4166 C.3     1  UNL1       -0.0531
      6 C           5.6550   -0.4586    1.4180 C.3     1  UNL1       -0.0530
      7 C           4.6212    0.5434    0.9680 C.3     1  UNL1       -0.0526
      8 C           3.2157   -0.0268    0.9689 C.3     1  UNL1       -0.0430
      9 C           3.0749   -1.2227    0.0479 C.3     1  UNL1        0.0449
     10 C           1.6402   -1.6603    0.1659 C.2     1  UNL1        0.3074
     11 O           1.2211   -2.6570   -0.5018 O.2     1  UNL1       -0.2508
     12 O           0.7154   -1.0316    0.9782 O.3     1  UNL1       -0.4608
     13 C          -0.6077   -1.5321    1.0087 C.3     1  UNL1        0.1087
     14 C          -1.0482   -1.8281    2.4274 C.3     1  UNL1       -0.0149
     15 C          -2.3381   -1.0390    2.6423 C.3     1  UNL1       -0.0460
     16 C          -2.8142   -0.8775    1.2400 C.3     1  UNL1       -0.0290
     17 C          -3.8279    0.1991    1.0017 C.3     1  UNL1       -0.0339
     18 C          -5.0546    0.1189    1.8411 C.3     1  UNL1       -0.0460
     19 C          -6.3243   -0.1723    1.1157 C.3     1  UNL1       -0.0308
     20 C          -6.4960    0.5667   -0.1492 C.2     1  UNL1       -0.0629
     21 C          -7.6951    0.8211   -0.6479 C.2     1  UNL1       -0.0197
     22 C          -7.7716    1.5638   -1.9138 C.2     1  UNL1        0.1561
     23 O          -8.9443    1.8156   -2.2933 O.2     1  UNL1       -0.2927
     24 C          -6.5682    1.9828   -2.6820 C.3     1  UNL1        0.0104
     25 C          -5.4674    0.9840   -2.3414 C.3     1  UNL1       -0.0392
     26 C          -5.2685    1.0258   -0.8607 C.3     1  UNL1       -0.0160
     27 C          -4.1904    0.0541   -0.4780 C.3     1  UNL1       -0.0314
     28 C          -3.0249    0.1856   -1.3832 C.3     1  UNL1       -0.0488
     29 C          -1.7695   -0.4802   -0.9462 C.3     1  UNL1       -0.0437
     30 C          -1.5483   -0.4492    0.5421 C.3     1  UNL1        0.0081
     31 C          -0.9915    0.8566    0.9920 C.3     1  UNL1       -0.0559
     32 H           7.0163    1.4441   -3.7277 H       1  UNL1        0.0230
     33 H           7.2519    2.2382   -2.1365 H       1  UNL1        0.0230
     34 H           5.9650    1.0107   -2.2811 H       1  UNL1        0.0230
     35 H           8.1260   -0.5530   -3.0861 H       1  UNL1        0.0263
     36 H           8.9182    0.6724   -2.0301 H       1  UNL1        0.0263
     37 H           6.5162   -0.9367   -1.2120 H       1  UNL1        0.0265
     38 H           8.2764   -1.2693   -0.7775 H       1  UNL1        0.0265
     39 H           8.5145    0.9668    0.1335 H       1  UNL1        0.0265
     40 H           6.8572    1.4155   -0.3083 H       1  UNL1        0.0265
     41 H           7.7402   -0.6854    1.7570 H       1  UNL1        0.0265
     42 H           7.0848    0.9901    2.0809 H       1  UNL1        0.0265
     43 H           5.4145   -0.6694    2.5006 H       1  UNL1        0.0265
     44 H           5.5796   -1.4219    0.9085 H       1  UNL1        0.0265
     45 H           4.6081    1.3567    1.7352 H       1  UNL1        0.0265
     46 H           4.8931    0.9495   -0.0141 H       1  UNL1        0.0265
     47 H           2.5558    0.7720    0.5742 H       1  UNL1        0.0270
     48 H           2.8979   -0.2731    1.9881 H       1  UNL1        0.0270
     49 H           3.7422   -2.0515    0.2859 H       1  UNL1        0.0377
     50 H           3.1944   -0.9318   -1.0156 H       1  UNL1        0.0377
     51 H          -0.7457   -2.4208    0.3360 H       1  UNL1        0.0739
     52 H          -1.2650   -2.9184    2.5432 H       1  UNL1        0.0301
     53 H          -0.2420   -1.5070    3.1066 H       1  UNL1        0.0301
     54 H          -3.0543   -1.6958    3.1951 H       1  UNL1        0.0269
     55 H          -2.2096   -0.1314    3.2263 H       1  UNL1        0.0269
     56 H          -3.0829   -1.8698    0.8536 H       1  UNL1        0.0310
     57 H          -3.2956    1.1869    1.0839 H       1  UNL1        0.0307
     58 H          -5.1764    1.1244    2.3383 H       1  UNL1        0.0271
     59 H          -4.9880   -0.6105    2.6775 H       1  UNL1        0.0271
     60 H          -7.1606    0.1819    1.7855 H       1  UNL1        0.0310
     61 H          -6.4819   -1.2658    1.0210 H       1  UNL1        0.0310
     62 H          -8.5838    0.4820   -0.1212 H       1  UNL1        0.0652
     63 H          -6.2623    2.9909   -2.3249 H       1  UNL1        0.0345
     64 H          -6.7554    1.9367   -3.7701 H       1  UNL1        0.0345
     65 H          -4.5377    1.2666   -2.8560 H       1  UNL1        0.0275
     66 H          -5.8481   -0.0020   -2.6201 H       1  UNL1        0.0275
     67 H          -5.0081    2.0538   -0.5064 H       1  UNL1        0.0349
     68 H          -4.6213   -0.9770   -0.5806 H       1  UNL1        0.0309
     69 H          -3.3152   -0.3061   -2.3578 H       1  UNL1        0.0268
     70 H          -2.8863    1.2620   -1.6580 H       1  UNL1        0.0268
     71 H          -1.6939   -1.5435   -1.2668 H       1  UNL1        0.0272
     72 H          -0.9098    0.0464   -1.4157 H       1  UNL1        0.0272
     73 H          -1.2449    1.1822    1.9978 H       1  UNL1        0.0236
     74 H          -1.2792    1.6833    0.2873 H       1  UNL1        0.0236
     75 H           0.1360    0.8402    0.9388 H       1  UNL1        0.0236
@<TRIPOS>BOND
     1     1     2    1
     2     2     3    1
     3     3     4    1
     4     4     5    1
     5     5     6    1
     6     6     7    1
     7     7     8    1
     8     8     9    1
     9     9    10    1
    10    10    11    2
    11    10    12    1
    12    12    13    1
    13    13    14    1
    14    14    15    1
    15    15    16    1
    16    16    17    1
    17    17    18    1
    18    18    19    1
    19    19    20    1
    20    20    21    2
    21    21    22    1
    22    22    23    2
    23    22    24    1
    24    24    25    1
    25    25    26    1
    26    26    27    1
    27    27    28    1
    28    28    29    1
    29    29    30    1
    30    30    31    1
    31    30    13    1
    32    30    16    1
    33    27    17    1
    34    26    20    1
    35     1    32    1
    36     1    33    1
    37     1    34    1
    38     2    35    1
    39     2    36    1
    40     3    37    1
    41     3    38    1
    42     4    39    1
    43     4    40    1
    44     5    41    1
    45     5    42    1
    46     6    43    1
    47     6    44    1
    48     7    45    1
    49     7    46    1
    50     8    47    1
    51     8    48    1
    52     9    49    1
    53     9    50    1
    54    13    51    1
    55    14    52    1
    56    14    53    1
    57    15    54    1
    58    15    55    1
    59    16    56    1
    60    17    57    1
    61    18    58    1
    62    18    59    1
    63    19    60    1
    64    19    61    1
    65    21    62    1
    66    24    63    1
    67    24    64    1
    68    25    65    1
    69    25    66    1
    70    26    67    1
    71    27    68    1
    72    28    69    1
    73    28    70    1
    74    29    71    1
    75    29    72    1
    76    31    73    1
    77    31    74    1
    78    31    75    1
