
     RDKit          3D

 75 78  0  0  0  0  0  0  0  0999 V2000
    6.9814    1.2754   -2.6309 C   0  0  0  0  0  0  0  0  0  0  0  0
    7.9649    0.1756   -2.2910 C   0  0  0  0  0  0  0  0  0  0  0  0
    7.4965   -0.4951   -0.9934 C   0  0  0  0  0  0  0  0  0  0  0  0
    7.4818    0.5745    0.0501 C   0  0  0  0  0  0  0  0  0  0  0  0
    7.0422    0.1058    1.4166 C   0  0  0  0  0  0  0  0  0  0  0  0
    5.6550   -0.4586    1.4180 C   0  0  0  0  0  0  0  0  0  0  0  0
    4.6212    0.5434    0.9680 C   0  0  0  0  0  0  0  0  0  0  0  0
    3.2157   -0.0268    0.9689 C   0  0  0  0  0  0  0  0  0  0  0  0
    3.0749   -1.2227    0.0479 C   0  0  0  0  0  0  0  0  0  0  0  0
    1.6402   -1.6603    0.1659 C   0  0  0  0  0  0  0  0  0  0  0  0
    1.2211   -2.6570   -0.5018 O   0  0  0  0  0  0  0  0  0  0  0  0
    0.7154   -1.0316    0.9782 O   0  0  0  0  0  0  0  0  0  0  0  0
   -0.6077   -1.5321    1.0087 C   0  0  1  0  0  0  0  0  0  0  0  0
   -1.0482   -1.8281    2.4274 C   0  0  0  0  0  0  0  0  0  0  0  0
   -2.3381   -1.0390    2.6423 C   0  0  0  0  0  0  0  0  0  0  0  0
   -2.8142   -0.8775    1.2400 C   0  0  1  0  0  0  0  0  0  0  0  0
   -3.8279    0.1991    1.0017 C   0  0  2  0  0  0  0  0  0  0  0  0
   -5.0546    0.1189    1.8411 C   0  0  0  0  0  0  0  0  0  0  0  0
   -6.3243   -0.1723    1.1157 C   0  0  0  0  0  0  0  0  0  0  0  0
   -6.4960    0.5667   -0.1492 C   0  0  0  0  0  0  0  0  0  0  0  0
   -7.6951    0.8211   -0.6479 C   0  0  0  0  0  0  0  0  0  0  0  0
   -7.7716    1.5638   -1.9138 C   0  0  0  0  0  0  0  0  0  0  0  0
   -8.9443    1.8156   -2.2933 O   0  0  0  0  0  0  0  0  0  0  0  0
   -6.5682    1.9828   -2.6820 C   0  0  0  0  0  0  0  0  0  0  0  0
   -5.4674    0.9840   -2.3414 C   0  0  0  0  0  0  0  0  0  0  0  0
   -5.2685    1.0258   -0.8607 C   0  0  2  0  0  0  0  0  0  0  0  0
   -4.1904    0.0541   -0.4780 C   0  0  1  0  0  0  0  0  0  0  0  0
   -3.0249    0.1856   -1.3832 C   0  0  0  0  0  0  0  0  0  0  0  0
   -1.7695   -0.4802   -0.9462 C   0  0  0  0  0  0  0  0  0  0  0  0
   -1.5483   -0.4492    0.5421 C   0  0  2  0  0  0  0  0  0  0  0  0
   -0.9915    0.8566    0.9920 C   0  0  0  0  0  0  0  0  0  0  0  0
    7.0163    1.4441   -3.7277 H   0  0  0  0  0  0  0  0  0  0  0  0
    7.2519    2.2382   -2.1365 H   0  0  0  0  0  0  0  0  0  0  0  0
    5.9650    1.0107   -2.2811 H   0  0  0  0  0  0  0  0  0  0  0  0
    8.1260   -0.5530   -3.0861 H   0  0  0  0  0  0  0  0  0  0  0  0
    8.9182    0.6724   -2.0301 H   0  0  0  0  0  0  0  0  0  0  0  0
    6.5162   -0.9367   -1.2120 H   0  0  0  0  0  0  0  0  0  0  0  0
    8.2764   -1.2693   -0.7775 H   0  0  0  0  0  0  0  0  0  0  0  0
    8.5145    0.9668    0.1335 H   0  0  0  0  0  0  0  0  0  0  0  0
    6.8572    1.4155   -0.3083 H   0  0  0  0  0  0  0  0  0  0  0  0
    7.7402   -0.6854    1.7570 H   0  0  0  0  0  0  0  0  0  0  0  0
    7.0848    0.9901    2.0809 H   0  0  0  0  0  0  0  0  0  0  0  0
    5.4145   -0.6694    2.5006 H   0  0  0  0  0  0  0  0  0  0  0  0
    5.5796   -1.4219    0.9085 H   0  0  0  0  0  0  0  0  0  0  0  0
    4.6081    1.3567    1.7352 H   0  0  0  0  0  0  0  0  0  0  0  0
    4.8931    0.9495   -0.0141 H   0  0  0  0  0  0  0  0  0  0  0  0
    2.5558    0.7720    0.5742 H   0  0  0  0  0  0  0  0  0  0  0  0
    2.8979   -0.2731    1.9881 H   0  0  0  0  0  0  0  0  0  0  0  0
    3.7422   -2.0515    0.2859 H   0  0  0  0  0  0  0  0  0  0  0  0
    3.1944   -0.9318   -1.0156 H   0  0  0  0  0  0  0  0  0  0  0  0
   -0.7457   -2.4208    0.3360 H   0  0  0  0  0  0  0  0  0  0  0  0
   -1.2650   -2.9184    2.5432 H   0  0  0  0  0  0  0  0  0  0  0  0
   -0.2420   -1.5070    3.1066 H   0  0  0  0  0  0  0  0  0  0  0  0
   -3.0543   -1.6958    3.1951 H   0  0  0  0  0  0  0  0  0  0  0  0
   -2.2096   -0.1314    3.2263 H   0  0  0  0  0  0  0  0  0  0  0  0
   -3.0829   -1.8698    0.8536 H   0  0  0  0  0  0  0  0  0  0  0  0
   -3.2956    1.1869    1.0839 H   0  0  0  0  0  0  0  0  0  0  0  0
   -5.1764    1.1244    2.3383 H   0  0  0  0  0  0  0  0  0  0  0  0
   -4.9880   -0.6105    2.6775 H   0  0  0  0  0  0  0  0  0  0  0  0
   -7.1606    0.1819    1.7855 H   0  0  0  0  0  0  0  0  0  0  0  0
   -6.4819   -1.2658    1.0210 H   0  0  0  0  0  0  0  0  0  0  0  0
   -8.5838    0.4820   -0.1212 H   0  0  0  0  0  0  0  0  0  0  0  0
   -6.2623    2.9909   -2.3249 H   0  0  0  0  0  0  0  0  0  0  0  0
   -6.7554    1.9367   -3.7701 H   0  0  0  0  0  0  0  0  0  0  0  0
   -4.5377    1.2666   -2.8560 H   0  0  0  0  0  0  0  0  0  0  0  0
   -5.8481   -0.0020   -2.6201 H   0  0  0  0  0  0  0  0  0  0  0  0
   -5.0081    2.0538   -0.5064 H   0  0  0  0  0  0  0  0  0  0  0  0
   -4.6213   -0.9770   -0.5806 H   0  0  0  0  0  0  0  0  0  0  0  0
   -3.3152   -0.3061   -2.3578 H   0  0  0  0  0  0  0  0  0  0  0  0
   -2.8863    1.2620   -1.6580 H   0  0  0  0  0  0  0  0  0  0  0  0
   -1.6939   -1.5435   -1.2668 H   0  0  0  0  0  0  0  0  0  0  0  0
   -0.9098    0.0464   -1.4157 H   0  0  0  0  0  0  0  0  0  0  0  0
   -1.2449    1.1822    1.9978 H   0  0  0  0  0  0  0  0  0  0  0  0
   -1.2792    1.6833    0.2873 H   0  0  0  0  0  0  0  0  0  0  0  0
    0.1360    0.8402    0.9388 H   0  0  0  0  0  0  0  0  0  0  0  0
  1  2  1  0
  2  3  1  0
  3  4  1  0
  4  5  1  0
  5  6  1  0
  6  7  1  0
  7  8  1  0
  8  9  1  0
  9 10  1  0
 10 11  2  0
 10 12  1  0
 12 13  1  0
 13 14  1  0
 14 15  1  0
 15 16  1  0
 16 17  1  0
 17 18  1  0
 18 19  1  0
 19 20  1  0
 20 21  2  0
 21 22  1  0
 22 23  2  0
 22 24  1  0
 24 25  1  0
 25 26  1  0
 26 27  1  0
 27 28  1  0
 28 29  1  0
 29 30  1  0
 30 31  1  1
 30 13  1  0
 30 16  1  0
 27 17  1  0
 26 20  1  0
  1 32  1  0
  1 33  1  0
  1 34  1  0
  2 35  1  0
  2 36  1  0
  3 37  1  0
  3 38  1  0
  4 39  1  0
  4 40  1  0
  5 41  1  0
  5 42  1  0
  6 43  1  0
  6 44  1  0
  7 45  1  0
  7 46  1  0
  8 47  1  0
  8 48  1  0
  9 49  1  0
  9 50  1  0
 13 51  1  6
 14 52  1  0
 14 53  1  0
 15 54  1  0
 15 55  1  0
 16 56  1  6
 17 57  1  6
 18 58  1  0
 18 59  1  0
 19 60  1  0
 19 61  1  0
 21 62  1  0
 24 63  1  0
 24 64  1  0
 25 65  1  0
 25 66  1  0
 26 67  1  1
 27 68  1  1
 28 69  1  0
 28 70  1  0
 29 71  1  0
 29 72  1  0
 31 73  1  0
 31 74  1  0
 31 75  1  0
M  END
$$$$
