
     RDKit          3D

 44 47  0  0  0  0  0  0  0  0999 V2000
   -1.0215    4.0208   -1.4477 C   0  0  0  0  0  0  0  0  0  0  0  0
   -0.6047    2.6566   -1.0541 N   0  0  0  0  0  0  0  0  0  0  0  0
    0.6144    2.3099   -0.9636 N   0  0  0  0  0  0  0  0  0  0  0  0
    1.0964    1.2567   -0.6603 C   0  0  0  0  0  0  0  0  0  0  0  0
    2.3600    0.5558   -0.4665 C   0  0  0  0  0  0  0  0  0  0  0  0
    3.5568    1.1993   -0.6653 C   0  0  0  0  0  0  0  0  0  0  0  0
    4.7707    0.5725   -0.4923 C   0  0  0  0  0  0  0  0  0  0  0  0
    4.7805   -0.7610   -0.1017 C   0  0  0  0  0  0  0  0  0  0  0  0
    5.9673   -1.4542    0.0910 C   0  0  0  0  0  0  0  0  0  0  0  0
    7.1867   -0.7472   -0.1260 N   0  0  0  0  0  0  0  0  0  0  0  0
    5.9865   -2.7443    0.4686 N   0  0  0  0  0  0  0  0  0  0  0  0
    4.8310   -3.3708    0.6621 C   0  0  0  0  0  0  0  0  0  0  0  0
    3.6801   -2.7194    0.4814 N   0  0  0  0  0  0  0  0  0  0  0  0
    3.6046   -1.4327    0.1052 C   0  0  0  0  0  0  0  0  0  0  0  0
    2.3900   -0.7609   -0.0811 C   0  0  0  0  0  0  0  0  0  0  0  0
   -0.5217    0.3310   -0.3758 S   0  0  0  0  0  0  0  0  0  0  0  0
   -1.5294    1.6847   -0.7622 C   0  0  0  0  0  0  0  0  0  0  0  0
   -2.7558    1.6249   -0.7338 N   0  0  0  0  0  0  0  0  0  0  0  0
   -3.5851    0.5061   -0.3999 C   0  0  0  0  0  0  0  0  0  0  0  0
   -4.0857    0.7014    1.0188 C   0  0  0  0  0  0  0  0  0  0  0  0
   -4.6326   -0.5966    1.5763 C   0  0  0  0  0  0  0  0  0  0  0  0
   -5.2000   -1.3968    0.4330 C   0  0  0  0  0  0  0  0  0  0  0  0
   -4.1804   -1.8345   -0.5695 C   0  0  0  0  0  0  0  0  0  0  0  0
   -3.0023   -0.8425   -0.5292 C   0  0  0  0  0  0  0  0  0  0  0  0
   -2.0359    3.9560   -1.9266 H   0  0  0  0  0  0  0  0  0  0  0  0
   -1.1573    4.6434   -0.5432 H   0  0  0  0  0  0  0  0  0  0  0  0
   -0.3346    4.4272   -2.1872 H   0  0  0  0  0  0  0  0  0  0  0  0
    3.5166    2.2335   -0.9681 H   0  0  0  0  0  0  0  0  0  0  0  0
    5.7156    1.0620   -0.6438 H   0  0  0  0  0  0  0  0  0  0  0  0
    7.6025   -0.6166   -1.0721 H   0  0  0  0  0  0  0  0  0  0  0  0
    7.6942   -0.3393    0.6819 H   0  0  0  0  0  0  0  0  0  0  0  0
    4.7664   -4.4185    0.9697 H   0  0  0  0  0  0  0  0  0  0  0  0
    1.4810   -1.3210    0.0909 H   0  0  0  0  0  0  0  0  0  0  0  0
   -4.5029    0.5559   -1.0566 H   0  0  0  0  0  0  0  0  0  0  0  0
   -4.8252    1.5013    1.1172 H   0  0  0  0  0  0  0  0  0  0  0  0
   -3.2231    0.9742    1.6919 H   0  0  0  0  0  0  0  0  0  0  0  0
   -5.4778   -0.3367    2.2437 H   0  0  0  0  0  0  0  0  0  0  0  0
   -3.8984   -1.1538    2.1763 H   0  0  0  0  0  0  0  0  0  0  0  0
   -5.9961   -0.7508   -0.0363 H   0  0  0  0  0  0  0  0  0  0  0  0
   -5.6968   -2.2929    0.8804 H   0  0  0  0  0  0  0  0  0  0  0  0
   -4.6497   -1.8177   -1.5956 H   0  0  0  0  0  0  0  0  0  0  0  0
   -3.8102   -2.8787   -0.3761 H   0  0  0  0  0  0  0  0  0  0  0  0
   -2.4476   -1.0145   -1.4561 H   0  0  0  0  0  0  0  0  0  0  0  0
   -2.4264   -1.1720    0.3864 H   0  0  0  0  0  0  0  0  0  0  0  0
  1  2  1  0
  2  3  1  0
  3  4  2  0
  4  5  1  0
  5  6  2  0
  6  7  1  0
  7  8  2  0
  8  9  1  0
  9 10  1  0
  9 11  2  0
 11 12  1  0
 12 13  2  0
 13 14  1  0
 14 15  2  0
  4 16  1  0
 16 17  1  0
 17 18  2  0
 18 19  1  0
 19 20  1  0
 20 21  1  0
 21 22  1  0
 22 23  1  0
 23 24  1  0
 17  2  1  0
 24 19  1  0
 15  5  1  0
 14  8  1  0
  1 25  1  0
  1 26  1  0
  1 27  1  0
  6 28  1  0
  7 29  1  0
 10 30  1  0
 10 31  1  0
 12 32  1  0
 15 33  1  0
 19 34  1  0
 20 35  1  0
 20 36  1  0
 21 37  1  0
 21 38  1  0
 22 39  1  0
 22 40  1  0
 23 41  1  0
 23 42  1  0
 24 43  1  0
 24 44  1  0
M  END
$$$$
