@<TRIPOS>MOLECULE
*****
 44 47 0 0 0
SMALL
GASTEIGER

@<TRIPOS>ATOM
      1 C          -1.0215    4.0208   -1.4477 C.3     1  UNL1        0.0329
      2 N          -0.6047    2.6566   -1.0541 N.ar    1  UNL1       -0.2435
      3 N           0.6144    2.3099   -0.9636 N.ar    1  UNL1       -0.1620
      4 C           1.0964    1.2567   -0.6603 C.ar    1  UNL1        0.1319
      5 C           2.3600    0.5558   -0.4665 C.ar    1  UNL1        0.0110
      6 C           3.5568    1.1993   -0.6653 C.ar    1  UNL1       -0.0512
      7 C           4.7707    0.5725   -0.4923 C.ar    1  UNL1       -0.0486
      8 C           4.7805   -0.7610   -0.1017 C.ar    1  UNL1        0.0399
      9 C           5.9673   -1.4542    0.0910 C.ar    1  UNL1        0.1271
     10 N           7.1867   -0.7472   -0.1260 N.pl3   1  UNL1       -0.3426
     11 N           5.9865   -2.7443    0.4686 N.ar    1  UNL1       -0.2205
     12 C           4.8310   -3.3708    0.6621 C.ar    1  UNL1        0.1187
     13 N           3.6801   -2.7194    0.4814 N.ar    1  UNL1       -0.2353
     14 C           3.6046   -1.4327    0.1052 C.ar    1  UNL1        0.0766
     15 C           2.3900   -0.7609   -0.0811 C.ar    1  UNL1       -0.0258
     16 S          -0.5217    0.3310   -0.3758 S.2     1  UNL1       -0.0286
     17 C          -1.5294    1.6847   -0.7622 C.ar    1  UNL1        0.1869
     18 N          -2.7558    1.6249   -0.7338 N.2     1  UNL1       -0.2564
     19 C          -3.5851    0.5061   -0.3999 C.3     1  UNL1        0.0536
     20 C          -4.0857    0.7014    1.0188 C.3     1  UNL1       -0.0305
     21 C          -4.6326   -0.5966    1.5763 C.3     1  UNL1       -0.0511
     22 C          -5.2000   -1.3968    0.4330 C.3     1  UNL1       -0.0529
     23 C          -4.1804   -1.8345   -0.5695 C.3     1  UNL1       -0.0511
     24 C          -3.0023   -0.8425   -0.5292 C.3     1  UNL1       -0.0305
     25 H          -2.0359    3.9560   -1.9266 H       1  UNL1        0.0473
     26 H          -1.1573    4.6434   -0.5432 H       1  UNL1        0.0473
     27 H          -0.3346    4.4272   -2.1872 H       1  UNL1        0.0473
     28 H           3.5166    2.2335   -0.9681 H       1  UNL1        0.0624
     29 H           5.7156    1.0620   -0.6438 H       1  UNL1        0.0625
     30 H           7.6025   -0.6166   -1.0721 H       1  UNL1        0.1437
     31 H           7.6942   -0.3393    0.6819 H       1  UNL1        0.1437
     32 H           4.7664   -4.4185    0.9697 H       1  UNL1        0.1048
     33 H           1.4810   -1.3210    0.0909 H       1  UNL1        0.0646
     34 H          -4.5029    0.5559   -1.0566 H       1  UNL1        0.0545
     35 H          -4.8252    1.5013    1.1172 H       1  UNL1        0.0286
     36 H          -3.2231    0.9742    1.6919 H       1  UNL1        0.0286
     37 H          -5.4778   -0.3367    2.2437 H       1  UNL1        0.0266
     38 H          -3.8984   -1.1538    2.1763 H       1  UNL1        0.0266
     39 H          -5.9961   -0.7508   -0.0363 H       1  UNL1        0.0265
     40 H          -5.6968   -2.2929    0.8804 H       1  UNL1        0.0265
     41 H          -4.6497   -1.8177   -1.5956 H       1  UNL1        0.0266
     42 H          -3.8102   -2.8787   -0.3761 H       1  UNL1        0.0266
     43 H          -2.4476   -1.0145   -1.4561 H       1  UNL1        0.0286
     44 H          -2.4264   -1.1720    0.3864 H       1  UNL1        0.0286
@<TRIPOS>BOND
     1     1     2    1
     2     2     3   ar
     3     3     4   ar
     4     4     5    1
     5     5     6   ar
     6     6     7   ar
     7     7     8   ar
     8     8     9   ar
     9     9    10    1
    10     9    11   ar
    11    11    12   ar
    12    12    13   ar
    13    13    14   ar
    14    14    15   ar
    15     4    16   ar
    16    16    17   ar
    17    17    18    2
    18    18    19    1
    19    19    20    1
    20    20    21    1
    21    21    22    1
    22    22    23    1
    23    23    24    1
    24    17     2   ar
    25    24    19    1
    26    15     5   ar
    27    14     8   ar
    28     1    25    1
    29     1    26    1
    30     1    27    1
    31     6    28    1
    32     7    29    1
    33    10    30    1
    34    10    31    1
    35    12    32    1
    36    15    33    1
    37    19    34    1
    38    20    35    1
    39    20    36    1
    40    21    37    1
    41    21    38    1
    42    22    39    1
    43    22    40    1
    44    23    41    1
    45    23    42    1
    46    24    43    1
    47    24    44    1
