@<TRIPOS>MOLECULE
*****
 64 68 0 0 0
SMALL
GASTEIGER

@<TRIPOS>ATOM
      1 C          -5.5921    1.7749   -0.7209 C.3     1  UNL1       -0.0558
      2 C          -5.7640    0.5591    0.1494 C.3     1  UNL1        0.0120
      3 C          -5.2176    0.7899    1.5490 C.3     1  UNL1       -0.0558
      4 C          -5.1749   -0.6632   -0.4575 C.ar    1  UNL1        0.1190
      5 N          -5.8296   -1.7920   -0.8167 N.ar    1  UNL1       -0.2300
      6 C          -4.9584   -2.6565   -1.3216 C.ar    1  UNL1        0.1086
      7 C          -5.0301   -3.9441   -1.8441 C.ar    1  UNL1       -0.0312
      8 C          -3.8957   -4.6010   -2.3067 C.ar    1  UNL1       -0.0414
      9 C          -2.6848   -3.9580   -2.2423 C.ar    1  UNL1        0.0300
     10 N          -2.6218   -2.7191   -1.7385 N.ar    1  UNL1       -0.2355
     11 C          -3.7242   -2.0575   -1.2794 C.ar    1  UNL1        0.1650
     12 N          -3.8708   -0.8321   -0.7459 N.ar    1  UNL1       -0.2805
     13 C          -2.8149    0.0997   -0.5353 C.ar    1  UNL1        0.0497
     14 C          -2.4881    1.0038   -1.5243 C.ar    1  UNL1       -0.0375
     15 C          -1.4751    1.9107   -1.3462 C.ar    1  UNL1       -0.0565
     16 C          -0.7281    1.9727   -0.1764 C.ar    1  UNL1       -0.0450
     17 C           0.3342    2.9455    0.0184 C.3     1  UNL1        0.0011
     18 CA          1.6945    2.5799   -0.4868 C.3     1  UNL1        0.1221
     19 N           2.2111    1.3812    0.1342 N.pl3   1  UNL1       -0.3328
     20 C           3.4912    0.8453   -0.1977 C.2     1  UNL1        0.0359
     21 C           4.3504    1.1174   -1.1187 C.2     1  UNL1        0.0788
     22 BR          4.3655    2.4076   -2.5561 Br      1  UNL1       -0.0451
     23 C           5.2588    0.1133   -0.6594 C.2     1  UNL1        0.1830
     24 O           6.4032   -0.2291   -1.0982 O.2     1  UNL1       -0.2905
     25 C           4.3079   -0.2031    0.3679 C.3     1  UNL1        0.0728
     26 C           3.7727   -1.6200    0.2022 C.3     1  UNL1       -0.0350
     27 C           4.2738   -2.4752    1.3369 C.3     1  UNL1       -0.0518
     28 C           5.7621   -2.2299    1.5182 C.3     1  UNL1       -0.0530
     29 C           6.0225   -0.8162    1.9937 C.3     1  UNL1       -0.0518
     30 C           4.7739    0.0208    1.7989 C.3     1  UNL1       -0.0350
     31 C           2.5675    3.7134   -0.1043 C.2     1  UNL1        0.3255
     32 O           2.3382    4.8700   -0.5114 O.2     1  UNL1       -0.2489
     33 OXT         3.6479    3.4881    0.7122 O.3     1  UNL1       -0.4793
     34 C          -1.0555    1.0720    0.8067 C.ar    1  UNL1       -0.0565
     35 C          -2.0883    0.1421    0.6336 C.ar    1  UNL1       -0.0375
     36 H          -5.3496    1.4114   -1.7513 H       1  UNL1        0.0236
     37 H          -6.5322    2.3477   -0.7715 H       1  UNL1        0.0236
     38 H          -4.7508    2.4164   -0.3902 H       1  UNL1        0.0236
     39 H          -6.8525    0.3826    0.2675 H       1  UNL1        0.0374
     40 H          -6.0035    1.1686    2.2350 H       1  UNL1        0.0236
     41 H          -4.7985   -0.1762    1.8928 H       1  UNL1        0.0236
     42 H          -4.4580    1.5918    1.4587 H       1  UNL1        0.0236
     43 H          -6.0063   -4.4000   -1.8701 H       1  UNL1        0.0640
     44 H          -3.9745   -5.6073   -2.7113 H       1  UNL1        0.0633
     45 H          -1.8039   -4.4882   -2.6096 H       1  UNL1        0.0830
     46 H          -3.0593    0.9850   -2.4671 H       1  UNL1        0.0638
     47 H          -1.2070    2.6255   -2.1109 H       1  UNL1        0.0621
     48 H          -0.0039    3.9050   -0.4696 H       1  UNL1        0.0337
     49 H           0.4394    3.1229    1.1177 H       1  UNL1        0.0337
     50 HA          1.7084    2.4854   -1.6062 H       1  UNL1        0.0617
     51 H           1.6052    0.9186    0.8423 H       1  UNL1        0.1466
     52 H           2.6763   -1.6263    0.1550 H       1  UNL1        0.0278
     53 H           4.1454   -2.0797   -0.7382 H       1  UNL1        0.0278
     54 H           4.1697   -3.5552    1.0494 H       1  UNL1        0.0266
     55 H           3.7135   -2.2835    2.2670 H       1  UNL1        0.0266
     56 H           6.2322   -2.4346    0.5375 H       1  UNL1        0.0265
     57 H           6.1569   -2.9786    2.2304 H       1  UNL1        0.0265
     58 H           6.8429   -0.3920    1.3789 H       1  UNL1        0.0266
     59 H           6.2981   -0.8840    3.0589 H       1  UNL1        0.0266
     60 H           5.0301    1.0957    1.8718 H       1  UNL1        0.0278
     61 H           3.9746   -0.2726    2.4753 H       1  UNL1        0.0278
     62 HXT         4.1324    4.2328    1.1982 H       1  UNL1        0.2951
     63 H          -0.5415    1.0456    1.7571 H       1  UNL1        0.0621
     64 H          -2.3453   -0.5672    1.4083 H       1  UNL1        0.0638
@<TRIPOS>BOND
     1     1     2    1
     2     2     3    1
     3     2     4    1
     4     4     5   ar
     5     5     6   ar
     6     6     7   ar
     7     7     8   ar
     8     8     9   ar
     9     9    10   ar
    10    10    11   ar
    11    11    12   ar
    12    12    13    1
    13    13    14   ar
    14    14    15   ar
    15    15    16   ar
    16    16    17    1
    17    17    18    1
    18    18    19    1
    19    19    20    1
    20    20    21    2
    21    21    22    1
    22    21    23    1
    23    23    24    2
    24    23    25    1
    25    25    26    1
    26    26    27    1
    27    27    28    1
    28    28    29    1
    29    29    30    1
    30    18    31    1
    31    31    32    2
    32    31    33    1
    33    16    34   ar
    34    34    35   ar
    35    12     4   ar
    36    35    13   ar
    37    11     6   ar
    38    25    20    1
    39    30    25    1
    40     1    36    1
    41     1    37    1
    42     1    38    1
    43     2    39    1
    44     3    40    1
    45     3    41    1
    46     3    42    1
    47     7    43    1
    48     8    44    1
    49     9    45    1
    50    14    46    1
    51    15    47    1
    52    17    48    1
    53    17    49    1
    54    18    50    1
    55    19    51    1
    56    26    52    1
    57    26    53    1
    58    27    54    1
    59    27    55    1
    60    28    56    1
    61    28    57    1
    62    29    58    1
    63    29    59    1
    64    30    60    1
    65    30    61    1
    66    33    62    1
    67    34    63    1
    68    35    64    1
