
     RDKit          3D

 64 68  0  0  0  0  0  0  0  0999 V2000
   -5.5921    1.7749   -0.7209 C   0  0  0  0  0  0  0  0  0  0  0  0
   -5.7640    0.5591    0.1494 C   0  0  0  0  0  0  0  0  0  0  0  0
   -5.2176    0.7899    1.5490 C   0  0  0  0  0  0  0  0  0  0  0  0
   -5.1749   -0.6632   -0.4575 C   0  0  0  0  0  0  0  0  0  0  0  0
   -5.8296   -1.7920   -0.8167 N   0  0  0  0  0  0  0  0  0  0  0  0
   -4.9584   -2.6565   -1.3216 C   0  0  0  0  0  0  0  0  0  0  0  0
   -5.0301   -3.9441   -1.8441 C   0  0  0  0  0  0  0  0  0  0  0  0
   -3.8957   -4.6010   -2.3067 C   0  0  0  0  0  0  0  0  0  0  0  0
   -2.6848   -3.9580   -2.2423 C   0  0  0  0  0  0  0  0  0  0  0  0
   -2.6218   -2.7191   -1.7385 N   0  0  0  0  0  0  0  0  0  0  0  0
   -3.7242   -2.0575   -1.2794 C   0  0  0  0  0  0  0  0  0  0  0  0
   -3.8708   -0.8321   -0.7459 N   0  0  0  0  0  0  0  0  0  0  0  0
   -2.8149    0.0997   -0.5353 C   0  0  0  0  0  0  0  0  0  0  0  0
   -2.4881    1.0038   -1.5243 C   0  0  0  0  0  0  0  0  0  0  0  0
   -1.4751    1.9107   -1.3462 C   0  0  0  0  0  0  0  0  0  0  0  0
   -0.7281    1.9727   -0.1764 C   0  0  0  0  0  0  0  0  0  0  0  0
    0.3342    2.9455    0.0184 C   0  0  0  0  0  0  0  0  0  0  0  0
    1.6945    2.5799   -0.4868 C   0  0  2  0  0  0  0  0  0  0  0  0
    2.2111    1.3812    0.1342 N   0  0  0  0  0  0  0  0  0  0  0  0
    3.4912    0.8453   -0.1977 C   0  0  0  0  0  0  0  0  0  0  0  0
    4.3504    1.1174   -1.1187 C   0  0  0  0  0  0  0  0  0  0  0  0
    4.3655    2.4076   -2.5561 Br  0  0  0  0  0  0  0  0  0  0  0  0
    5.2588    0.1133   -0.6594 C   0  0  0  0  0  0  0  0  0  0  0  0
    6.4032   -0.2291   -1.0982 O   0  0  0  0  0  0  0  0  0  0  0  0
    4.3079   -0.2031    0.3679 C   0  0  0  0  0  0  0  0  0  0  0  0
    3.7727   -1.6200    0.2022 C   0  0  0  0  0  0  0  0  0  0  0  0
    4.2738   -2.4752    1.3369 C   0  0  0  0  0  0  0  0  0  0  0  0
    5.7621   -2.2299    1.5182 C   0  0  0  0  0  0  0  0  0  0  0  0
    6.0225   -0.8162    1.9937 C   0  0  0  0  0  0  0  0  0  0  0  0
    4.7739    0.0208    1.7989 C   0  0  0  0  0  0  0  0  0  0  0  0
    2.5675    3.7134   -0.1043 C   0  0  0  0  0  0  0  0  0  0  0  0
    2.3382    4.8700   -0.5114 O   0  0  0  0  0  0  0  0  0  0  0  0
    3.6479    3.4881    0.7122 O   0  0  0  0  0  0  0  0  0  0  0  0
   -1.0555    1.0720    0.8067 C   0  0  0  0  0  0  0  0  0  0  0  0
   -2.0883    0.1421    0.6336 C   0  0  0  0  0  0  0  0  0  0  0  0
   -5.3496    1.4114   -1.7513 H   0  0  0  0  0  0  0  0  0  0  0  0
   -6.5322    2.3477   -0.7715 H   0  0  0  0  0  0  0  0  0  0  0  0
   -4.7508    2.4164   -0.3902 H   0  0  0  0  0  0  0  0  0  0  0  0
   -6.8525    0.3826    0.2675 H   0  0  0  0  0  0  0  0  0  0  0  0
   -6.0035    1.1686    2.2350 H   0  0  0  0  0  0  0  0  0  0  0  0
   -4.7985   -0.1762    1.8928 H   0  0  0  0  0  0  0  0  0  0  0  0
   -4.4580    1.5918    1.4587 H   0  0  0  0  0  0  0  0  0  0  0  0
   -6.0063   -4.4000   -1.8701 H   0  0  0  0  0  0  0  0  0  0  0  0
   -3.9745   -5.6073   -2.7113 H   0  0  0  0  0  0  0  0  0  0  0  0
   -1.8039   -4.4882   -2.6096 H   0  0  0  0  0  0  0  0  0  0  0  0
   -3.0593    0.9850   -2.4671 H   0  0  0  0  0  0  0  0  0  0  0  0
   -1.2070    2.6255   -2.1109 H   0  0  0  0  0  0  0  0  0  0  0  0
   -0.0039    3.9050   -0.4696 H   0  0  0  0  0  0  0  0  0  0  0  0
    0.4394    3.1229    1.1177 H   0  0  0  0  0  0  0  0  0  0  0  0
    1.7084    2.4854   -1.6062 H   0  0  0  0  0  0  0  0  0  0  0  0
    1.6052    0.9186    0.8423 H   0  0  0  0  0  0  0  0  0  0  0  0
    2.6763   -1.6263    0.1550 H   0  0  0  0  0  0  0  0  0  0  0  0
    4.1454   -2.0797   -0.7382 H   0  0  0  0  0  0  0  0  0  0  0  0
    4.1697   -3.5552    1.0494 H   0  0  0  0  0  0  0  0  0  0  0  0
    3.7135   -2.2835    2.2670 H   0  0  0  0  0  0  0  0  0  0  0  0
    6.2322   -2.4346    0.5375 H   0  0  0  0  0  0  0  0  0  0  0  0
    6.1569   -2.9786    2.2304 H   0  0  0  0  0  0  0  0  0  0  0  0
    6.8429   -0.3920    1.3789 H   0  0  0  0  0  0  0  0  0  0  0  0
    6.2981   -0.8840    3.0589 H   0  0  0  0  0  0  0  0  0  0  0  0
    5.0301    1.0957    1.8718 H   0  0  0  0  0  0  0  0  0  0  0  0
    3.9746   -0.2726    2.4753 H   0  0  0  0  0  0  0  0  0  0  0  0
    4.1324    4.2328    1.1982 H   0  0  0  0  0  0  0  0  0  0  0  0
   -0.5415    1.0456    1.7571 H   0  0  0  0  0  0  0  0  0  0  0  0
   -2.3453   -0.5672    1.4083 H   0  0  0  0  0  0  0  0  0  0  0  0
  1  2  1  0
  2  3  1  0
  2  4  1  0
  4  5  2  0
  5  6  1  0
  6  7  2  0
  7  8  1  0
  8  9  2  0
  9 10  1  0
 10 11  2  0
 11 12  1  0
 12 13  1  0
 13 14  2  0
 14 15  1  0
 15 16  2  0
 16 17  1  0
 17 18  1  0
 18 19  1  0
 19 20  1  0
 20 21  2  0
 21 22  1  0
 21 23  1  0
 23 24  2  0
 23 25  1  0
 25 26  1  0
 26 27  1  0
 27 28  1  0
 28 29  1  0
 29 30  1  0
 18 31  1  0
 31 32  2  0
 31 33  1  0
 16 34  1  0
 34 35  2  0
 12  4  1  0
 35 13  1  0
 11  6  1  0
 25 20  1  0
 30 25  1  0
  1 36  1  0
  1 37  1  0
  1 38  1  0
  2 39  1  0
  3 40  1  0
  3 41  1  0
  3 42  1  0
  7 43  1  0
  8 44  1  0
  9 45  1  0
 14 46  1  0
 15 47  1  0
 17 48  1  0
 17 49  1  0
 18 50  1  6
 19 51  1  0
 26 52  1  0
 26 53  1  0
 27 54  1  0
 27 55  1  0
 28 56  1  0
 28 57  1  0
 29 58  1  0
 29 59  1  0
 30 60  1  0
 30 61  1  0
 33 62  1  0
 34 63  1  0
 35 64  1  0
M  END
$$$$
