@<TRIPOS>MOLECULE
*****
 49 52 0 0 0
SMALL
GASTEIGER

@<TRIPOS>ATOM
      1 C          -2.5098    2.4155   -6.1253 C.3     1  UNL1        0.0817
      2 O          -2.8796    1.9673   -4.8537 O.3     1  UNL1       -0.4668
      3 C          -2.0410    1.2161   -4.0410 C.2     1  UNL1        0.3300
      4 O          -0.8925    0.9874   -4.5669 O.2     1  UNL1       -0.2490
      5 C          -2.3803    0.7066   -2.7007 C.3     1  UNL1        0.1937
      6 S          -4.1387    0.2955   -2.3972 S.3     1  UNL1       -0.0664
      7 C          -4.1646   -0.9060   -1.1017 C.2     1  UNL1        0.1487
      8 N          -5.3709   -1.2530   -0.4542 N.pl3   1  UNL1       -0.3380
      9 N          -3.0932   -1.4615   -0.7813 N.2     1  UNL1       -0.2519
     10 C          -1.7608   -1.3079   -1.2910 C.3     1  UNL1        0.0993
     11 C          -1.4762   -2.4378   -2.3167 C.3     1  UNL1       -0.0349
     12 C          -0.8918   -1.5884   -0.0819 C.ar    1  UNL1        0.0160
     13 C          -0.0357   -0.7063    0.4949 C.ar    1  UNL1       -0.0463
     14 C           0.7022   -1.0197    1.6283 C.ar    1  UNL1       -0.0217
     15 C           1.6175   -0.0771    2.2414 C.2     1  UNL1       -0.0172
     16 C           2.7693   -0.3685    2.8038 C.2     1  UNL1        0.1492
     17 F           3.1236   -1.6805    2.7964 F       1  UNL1       -0.2032
     18 C           3.6550    0.5694    3.4712 C.ar    1  UNL1        0.0990
     19 C           3.4522    1.9248    3.5781 C.ar    1  UNL1       -0.0322
     20 C           4.3103    2.7434    4.2938 C.ar    1  UNL1       -0.0408
     21 C           5.4171    2.2356    4.9396 C.ar    1  UNL1        0.0699
     22 C           6.3036    2.9960    5.7548 C.1     1  UNL1        0.1007
     23 N           7.0238    3.6215    6.4274 N.1     1  UNL1       -0.1908
     24 C           5.6005    0.8504    4.8107 C.ar    1  UNL1        0.0457
     25 N           4.7549    0.0814    4.1109 N.ar    1  UNL1       -0.2514
     26 C           0.5618   -2.2713    2.1871 C.ar    1  UNL1       -0.0518
     27 C          -0.2951   -3.1853    1.6249 C.ar    1  UNL1       -0.0255
     28 C          -1.0064   -2.8324    0.5024 C.ar    1  UNL1        0.1289
     29 F          -1.8495   -3.7859   -0.0222 F       1  UNL1       -0.2051
     30 C          -1.3918   -0.0565   -1.9570 C.3     1  UNL1        0.0844
     31 C          -1.7538    1.3253   -1.4694 C.3     1  UNL1        0.2816
     32 F          -0.7956    2.2850   -1.5626 F       1  UNL1       -0.2030
     33 F          -2.4518    1.2515   -0.2572 F       1  UNL1       -0.2030
     34 H          -3.3834    2.7346   -6.7511 H       1  UNL1        0.0661
     35 H          -1.6852    3.1243   -6.1761 H       1  UNL1        0.0661
     36 H          -2.1393    1.4974   -6.6915 H       1  UNL1        0.0661
     37 H          -6.2756   -0.7407   -0.5061 H       1  UNL1        0.1442
     38 H          -5.4147   -2.1243    0.1621 H       1  UNL1        0.1442
     39 H          -0.6498   -3.0401   -1.9199 H       1  UNL1        0.0256
     40 H          -2.4157   -2.9939   -2.5046 H       1  UNL1        0.0256
     41 H          -1.1196   -2.0080   -3.2830 H       1  UNL1        0.0256
     42 H           0.0567    0.2791    0.0283 H       1  UNL1        0.0628
     43 H           1.3317    0.9869    2.2290 H       1  UNL1        0.0653
     44 H           2.5822    2.3284    3.0763 H       1  UNL1        0.0640
     45 H           4.1504    3.8175    4.3809 H       1  UNL1        0.0631
     46 H           6.4805    0.4450    5.3278 H       1  UNL1        0.0843
     47 H           1.1319   -2.5398    3.0979 H       1  UNL1        0.0624
     48 H          -0.3791   -4.1602    2.0863 H       1  UNL1        0.0646
     49 H          -0.3839   -0.1408   -2.4907 H       1  UNL1        0.0407
@<TRIPOS>BOND
     1     1     2    1
     2     2     3    1
     3     3     4    2
     4     5     3    1
     5     5     6    1
     6     6     7    1
     7     7     8    1
     8     7     9    2
     9     9    10    1
    10    10    11    1
    11    10    12    1
    12    12    13   ar
    13    13    14   ar
    14    14    15    1
    15    15    16    2
    16    16    17    1
    17    16    18    1
    18    18    19   ar
    19    19    20   ar
    20    20    21   ar
    21    21    22    1
    22    22    23    3
    23    21    24   ar
    24    24    25   ar
    25    14    26   ar
    26    26    27   ar
    27    27    28   ar
    28    28    29    1
    29    10    30    1
    30    30    31    1
    31    31    32    1
    32    31    33    1
    33    30     5    1
    34    31     5    1
    35    28    12   ar
    36    25    18   ar
    37     1    34    1
    38     1    35    1
    39     1    36    1
    40     8    37    1
    41     8    38    1
    42    11    39    1
    43    11    40    1
    44    11    41    1
    45    13    42    1
    46    15    43    1
    47    19    44    1
    48    20    45    1
    49    24    46    1
    50    26    47    1
    51    27    48    1
    52    30    49    1
