
     RDKit          3D

 49 52  0  0  0  0  0  0  0  0999 V2000
   -2.5098    2.4155   -6.1253 C   0  0  0  0  0  0  0  0  0  0  0  0
   -2.8796    1.9673   -4.8537 O   0  0  0  0  0  0  0  0  0  0  0  0
   -2.0410    1.2161   -4.0410 C   0  0  0  0  0  0  0  0  0  0  0  0
   -0.8925    0.9874   -4.5669 O   0  0  0  0  0  0  0  0  0  0  0  0
   -2.3803    0.7066   -2.7007 C   0  0  1  0  0  0  0  0  0  0  0  0
   -4.1387    0.2955   -2.3972 S   0  0  0  0  0  0  0  0  0  0  0  0
   -4.1646   -0.9060   -1.1017 C   0  0  0  0  0  0  0  0  0  0  0  0
   -5.3709   -1.2530   -0.4542 N   0  0  0  0  0  0  0  0  0  0  0  0
   -3.0932   -1.4615   -0.7813 N   0  0  0  0  0  0  0  0  0  0  0  0
   -1.7608   -1.3079   -1.2910 C   0  0  2  0  0  0  0  0  0  0  0  0
   -1.4762   -2.4378   -2.3167 C   0  0  0  0  0  0  0  0  0  0  0  0
   -0.8918   -1.5884   -0.0819 C   0  0  0  0  0  0  0  0  0  0  0  0
   -0.0357   -0.7063    0.4949 C   0  0  0  0  0  0  0  0  0  0  0  0
    0.7022   -1.0197    1.6283 C   0  0  0  0  0  0  0  0  0  0  0  0
    1.6175   -0.0771    2.2414 C   0  0  0  0  0  0  0  0  0  0  0  0
    2.7693   -0.3685    2.8038 C   0  0  0  0  0  0  0  0  0  0  0  0
    3.1236   -1.6805    2.7964 F   0  0  0  0  0  0  0  0  0  0  0  0
    3.6550    0.5694    3.4712 C   0  0  0  0  0  0  0  0  0  0  0  0
    3.4522    1.9248    3.5781 C   0  0  0  0  0  0  0  0  0  0  0  0
    4.3103    2.7434    4.2938 C   0  0  0  0  0  0  0  0  0  0  0  0
    5.4171    2.2356    4.9396 C   0  0  0  0  0  0  0  0  0  0  0  0
    6.3036    2.9960    5.7548 C   0  0  0  0  0  0  0  0  0  0  0  0
    7.0238    3.6215    6.4274 N   0  0  0  0  0  0  0  0  0  0  0  0
    5.6005    0.8504    4.8107 C   0  0  0  0  0  0  0  0  0  0  0  0
    4.7549    0.0814    4.1109 N   0  0  0  0  0  0  0  0  0  0  0  0
    0.5618   -2.2713    2.1871 C   0  0  0  0  0  0  0  0  0  0  0  0
   -0.2951   -3.1853    1.6249 C   0  0  0  0  0  0  0  0  0  0  0  0
   -1.0064   -2.8324    0.5024 C   0  0  0  0  0  0  0  0  0  0  0  0
   -1.8495   -3.7859   -0.0222 F   0  0  0  0  0  0  0  0  0  0  0  0
   -1.3918   -0.0565   -1.9570 C   0  0  2  0  0  0  0  0  0  0  0  0
   -1.7538    1.3253   -1.4694 C   0  0  0  0  0  0  0  0  0  0  0  0
   -0.7956    2.2850   -1.5626 F   0  0  0  0  0  0  0  0  0  0  0  0
   -2.4518    1.2515   -0.2572 F   0  0  0  0  0  0  0  0  0  0  0  0
   -3.3834    2.7346   -6.7511 H   0  0  0  0  0  0  0  0  0  0  0  0
   -1.6852    3.1243   -6.1761 H   0  0  0  0  0  0  0  0  0  0  0  0
   -2.1393    1.4974   -6.6915 H   0  0  0  0  0  0  0  0  0  0  0  0
   -6.2756   -0.7407   -0.5061 H   0  0  0  0  0  0  0  0  0  0  0  0
   -5.4147   -2.1243    0.1621 H   0  0  0  0  0  0  0  0  0  0  0  0
   -0.6498   -3.0401   -1.9199 H   0  0  0  0  0  0  0  0  0  0  0  0
   -2.4157   -2.9939   -2.5046 H   0  0  0  0  0  0  0  0  0  0  0  0
   -1.1196   -2.0080   -3.2830 H   0  0  0  0  0  0  0  0  0  0  0  0
    0.0567    0.2791    0.0283 H   0  0  0  0  0  0  0  0  0  0  0  0
    1.3317    0.9869    2.2290 H   0  0  0  0  0  0  0  0  0  0  0  0
    2.5822    2.3284    3.0763 H   0  0  0  0  0  0  0  0  0  0  0  0
    4.1504    3.8175    4.3809 H   0  0  0  0  0  0  0  0  0  0  0  0
    6.4805    0.4450    5.3278 H   0  0  0  0  0  0  0  0  0  0  0  0
    1.1319   -2.5398    3.0979 H   0  0  0  0  0  0  0  0  0  0  0  0
   -0.3791   -4.1602    2.0863 H   0  0  0  0  0  0  0  0  0  0  0  0
   -0.3839   -0.1408   -2.4907 H   0  0  0  0  0  0  0  0  0  0  0  0
  1  2  1  0
  2  3  1  0
  3  4  2  0
  5  3  1  6
  5  6  1  0
  6  7  1  0
  7  8  1  0
  7  9  2  0
  9 10  1  0
 10 11  1  6
 10 12  1  0
 12 13  2  0
 13 14  1  0
 14 15  1  0
 15 16  2  0
 16 17  1  0
 16 18  1  0
 18 19  2  0
 19 20  1  0
 20 21  2  0
 21 22  1  0
 22 23  3  0
 21 24  1  0
 24 25  2  0
 14 26  2  0
 26 27  1  0
 27 28  2  0
 28 29  1  0
 10 30  1  0
 30 31  1  0
 31 32  1  0
 31 33  1  0
 30  5  1  0
 31  5  1  0
 28 12  1  0
 25 18  1  0
  1 34  1  0
  1 35  1  0
  1 36  1  0
  8 37  1  0
  8 38  1  0
 11 39  1  0
 11 40  1  0
 11 41  1  0
 13 42  1  0
 15 43  1  0
 19 44  1  0
 20 45  1  0
 24 46  1  0
 26 47  1  0
 27 48  1  0
 30 49  1  6
M  END
$$$$
