@<TRIPOS>MOLECULE
*****
 69 73 0 0 0
SMALL
GASTEIGER

@<TRIPOS>ATOM
      1 C           5.1226   -2.7413    1.5170 C.3     1  UNL1       -0.0220
      2 C           3.7299   -3.1603    1.7081 C.ar    1  UNL1        0.0471
      3 C           2.5974   -2.4479    1.3426 C.ar    1  UNL1        0.0643
      4 C           2.3895   -1.2051    0.7261 C.ar    1  UNL1        0.1324
      5 O           3.3856   -0.4745    0.3755 O.3     1  UNL1       -0.4880
      6 C           4.3940    0.2646    0.0207 C.3     1  UNL1        0.1021
      7 C           4.5369    1.6030    0.7878 C.3     1  UNL1       -0.0275
      8 C           4.5108    0.5692   -1.4798 C.3     1  UNL1        0.0195
      9 C           3.3186    1.2960   -2.0131 C.3     1  UNL1        0.0182
     10 N           3.6447    2.7200   -1.9338 N.am    1  UNL1       -0.3149
     11 C           5.0424    2.8632   -1.6975 C.2     1  UNL1        0.2135
     12 O           5.6092    3.9458   -1.4758 O.2     1  UNL1       -0.2758
     13 C           5.6485    1.4981   -1.7702 C.3     1  UNL1        0.0315
     14 C           1.0382   -0.8526    0.5379 C.ar    1  UNL1       -0.0113
     15 C          -0.0289   -1.6158    0.9038 C.ar    1  UNL1       -0.0094
     16 C          -1.4137   -1.1874    0.6796 C.ar    1  UNL1        0.0198
     17 C          -2.4670   -1.5287    1.4908 C.ar    1  UNL1        0.0571
     18 N          -3.5837   -0.9423    0.9594 N.ar    1  UNL1       -0.1787
     19 N          -3.2823   -0.2677   -0.1194 N.ar    1  UNL1       -0.2650
     20 C          -4.1577    0.5079   -0.9948 C.3     1  UNL1        0.0836
     21 C          -5.5982    0.1535   -0.7976 C.3     1  UNL1        0.0009
     22 C          -6.2255    1.3853   -0.2468 C.3     1  UNL1        0.0668
     23 C          -6.6775    1.1409    1.1876 C.3     1  UNL1       -0.0360
     24 C          -7.4817    1.7820   -1.0356 C.3     1  UNL1       -0.0360
     25 O          -5.3464    2.4228   -0.3522 O.3     1  UNL1       -0.3659
     26 C          -4.0979    1.9770   -0.6696 C.3     1  UNL1        0.0869
     27 C          -3.1302    2.2686    0.4563 C.3     1  UNL1       -0.0340
     28 C          -3.6139    2.7122   -1.9019 C.3     1  UNL1       -0.0340
     29 C          -1.9356   -0.4035   -0.3170 C.ar    1  UNL1        0.0336
     30 C           0.2557   -2.8242    1.5039 C.ar    1  UNL1       -0.0259
     31 C           1.5482   -3.2428    1.7244 C.ar    1  UNL1        0.0971
     32 N           2.0509   -4.3848    2.2955 N.ar    1  UNL1       -0.1711
     33 N           3.3642   -4.3195    2.2780 N.ar    1  UNL1       -0.2704
     34 C           4.2922   -5.3338    2.7911 C.3     1  UNL1        0.0305
     35 H           5.8365   -3.4187    2.0481 H       1  UNL1        0.0293
     36 H           5.2374   -1.7614    2.0574 H       1  UNL1        0.0293
     37 H           5.3713   -2.6042    0.4664 H       1  UNL1        0.0293
     38 H           5.4013   -0.2209    0.2404 H       1  UNL1        0.0733
     39 H           4.3031    1.4373    1.8588 H       1  UNL1        0.0265
     40 H           3.8478    2.3551    0.4092 H       1  UNL1        0.0265
     41 H           5.5826    1.9691    0.7405 H       1  UNL1        0.0265
     42 H           4.6498   -0.3654   -2.0534 H       1  UNL1        0.0356
     43 H           3.2052    1.0868   -3.1096 H       1  UNL1        0.0466
     44 H           2.3679    1.0580   -1.5373 H       1  UNL1        0.0466
     45 H           2.9396    3.4652   -2.0386 H       1  UNL1        0.1487
     46 H           6.5119    1.3841   -1.0900 H       1  UNL1        0.0363
     47 H           6.0027    1.3733   -2.8142 H       1  UNL1        0.0363
     48 H           0.8432    0.1187    0.0561 H       1  UNL1        0.0660
     49 H          -2.4557   -2.1403    2.3844 H       1  UNL1        0.0854
     50 H          -3.8907    0.3136   -2.0356 H       1  UNL1        0.0574
     51 H          -5.7576   -0.7315   -0.1531 H       1  UNL1        0.0314
     52 H          -6.1023   -0.0640   -1.7808 H       1  UNL1        0.0314
     53 H          -5.8796    0.6754    1.7727 H       1  UNL1        0.0257
     54 H          -6.9812    2.1129    1.6684 H       1  UNL1        0.0257
     55 H          -7.5956    0.5189    1.2145 H       1  UNL1        0.0257
     56 H          -7.1969    2.1774   -2.0358 H       1  UNL1        0.0257
     57 H          -7.9849    2.6234   -0.5169 H       1  UNL1        0.0257
     58 H          -8.1425    0.9245   -1.2121 H       1  UNL1        0.0257
     59 H          -3.4815    1.7007    1.3508 H       1  UNL1        0.0258
     60 H          -2.0915    2.0208    0.1675 H       1  UNL1        0.0258
     61 H          -3.2270    3.3425    0.7048 H       1  UNL1        0.0258
     62 H          -3.4023    3.7710   -1.6941 H       1  UNL1        0.0258
     63 H          -2.6618    2.2495   -2.2770 H       1  UNL1        0.0258
     64 H          -4.3258    2.6323   -2.7478 H       1  UNL1        0.0258
     65 H          -1.3505    0.0229   -1.1159 H       1  UNL1        0.0832
     66 H          -0.5706   -3.4445    1.8014 H       1  UNL1        0.0646
     67 H           4.9918   -4.8426    3.5001 H       1  UNL1        0.0473
     68 H           3.7306   -6.0957    3.3286 H       1  UNL1        0.0473
     69 H           4.8360   -5.8220    1.9377 H       1  UNL1        0.0473
@<TRIPOS>BOND
     1     1     2    1
     2     2     3   ar
     3     3     4   ar
     4     4     5    1
     5     5     6    1
     6     6     7    1
     7     6     8    1
     8     8     9    1
     9     9    10    1
    10    10    11   am
    11    11    12    2
    12    11    13    1
    13     4    14   ar
    14    14    15   ar
    15    15    16    1
    16    16    17   ar
    17    17    18   ar
    18    18    19   ar
    19    19    20    1
    20    20    21    1
    21    21    22    1
    22    22    23    1
    23    22    24    1
    24    22    25    1
    25    25    26    1
    26    26    27    1
    27    26    28    1
    28    19    29   ar
    29    15    30   ar
    30    30    31   ar
    31    31    32   ar
    32    32    33   ar
    33    33    34    1
    34    33     2   ar
    35    31     3   ar
    36    13     8    1
    37    29    16   ar
    38    26    20    1
    39     1    35    1
    40     1    36    1
    41     1    37    1
    42     6    38    1
    43     7    39    1
    44     7    40    1
    45     7    41    1
    46     8    42    1
    47     9    43    1
    48     9    44    1
    49    10    45    1
    50    13    46    1
    51    13    47    1
    52    14    48    1
    53    17    49    1
    54    20    50    1
    55    21    51    1
    56    21    52    1
    57    23    53    1
    58    23    54    1
    59    23    55    1
    60    24    56    1
    61    24    57    1
    62    24    58    1
    63    27    59    1
    64    27    60    1
    65    27    61    1
    66    28    62    1
    67    28    63    1
    68    28    64    1
    69    29    65    1
    70    30    66    1
    71    34    67    1
    72    34    68    1
    73    34    69    1
