@<TRIPOS>MOLECULE
*****
 42 43 0 0 0
SMALL
GASTEIGER

@<TRIPOS>ATOM
      1 C          -3.4940   -0.6122   -1.6121 C.3     1  UNL1       -0.0607
      2 C          -2.6727    0.1813   -0.6416 C.3     1  UNL1       -0.0194
      3 C          -2.7744    1.6857   -0.9168 C.3     1  UNL1       -0.0607
      4 C          -3.0520   -0.1149    0.8117 C.3     1  UNL1        0.1276
      5 N          -2.8387   -1.4860    1.0504 N.3     1  UNL1       -0.1759
      6 S          -1.6049   -1.8687    2.1614 S.O2    1  UNL1        0.0591
      7 O          -1.8441   -1.1678    3.4645 O.2     1  UNL1       -0.1530
      8 O          -1.4260   -3.3465    2.3432 O.2     1  UNL1       -0.1530
      9 C          -0.0958   -1.2513    1.5120 C.ar    1  UNL1        0.1053
     10 C           0.3688    0.0208    1.8122 C.ar    1  UNL1       -0.0348
     11 C           1.5574    0.4927    1.2916 C.ar    1  UNL1       -0.0522
     12 C           2.3170   -0.2913    0.4563 C.ar    1  UNL1       -0.0177
     13 C           3.5710    0.2100   -0.0917 C.ar    1  UNL1       -0.0152
     14 C           3.9882   -0.2233   -1.3427 C.ar    1  UNL1       -0.0539
     15 C           5.1694    0.2363   -1.8818 C.ar    1  UNL1       -0.0585
     16 C           5.9349    1.1334   -1.1642 C.ar    1  UNL1       -0.0264
     17 C           5.5368    1.5670    0.0654 C.ar    1  UNL1        0.1240
     18 F           6.2708    2.4536    0.8005 F       1  UNL1       -0.2055
     19 C           4.3677    1.1078    0.5914 C.ar    1  UNL1       -0.0187
     20 C           1.8648   -1.5666    0.1471 C.ar    1  UNL1       -0.0522
     21 C           0.6905   -2.0110    0.6715 C.ar    1  UNL1       -0.0348
     22 C          -4.4094    0.3747    1.1218 C.2     1  UNL1        0.3238
     23 O          -5.3374   -0.3502    1.5685 O.2     1  UNL1       -0.2492
     24 O          -4.7185    1.7139    0.9206 O.3     1  UNL1       -0.4795
     25 H          -3.3924   -0.1146   -2.6077 H       1  UNL1        0.0233
     26 H          -3.0622   -1.6156   -1.7124 H       1  UNL1        0.0233
     27 H          -4.5567   -0.6152   -1.2724 H       1  UNL1        0.0233
     28 H          -1.6073   -0.0825   -0.7982 H       1  UNL1        0.0316
     29 H          -1.9916    2.0244   -1.6003 H       1  UNL1        0.0233
     30 H          -3.7945    1.9011   -1.2335 H       1  UNL1        0.0233
     31 H          -2.6002    2.1906    0.0553 H       1  UNL1        0.0233
     32 H          -2.3434    0.4802    1.4230 H       1  UNL1        0.0595
     33 H          -2.9028   -2.1260    0.2566 H       1  UNL1        0.1489
     34 H          -0.1995    0.6692    2.4673 H       1  UNL1        0.0637
     35 H           1.8660    1.4910    1.5621 H       1  UNL1        0.0624
     36 H           3.3863   -0.9337   -1.9157 H       1  UNL1        0.0624
     37 H           5.5067   -0.0883   -2.8473 H       1  UNL1        0.0619
     38 H           6.8696    1.4916   -1.6005 H       1  UNL1        0.0646
     39 H           4.0478    1.4539    1.5753 H       1  UNL1        0.0652
     40 H           2.4256   -2.2141   -0.5012 H       1  UNL1        0.0624
     41 H           0.3442   -3.0238    0.4180 H       1  UNL1        0.0637
     42 H          -5.3650    2.2247    1.5107 H       1  UNL1        0.2951
@<TRIPOS>BOND
     1     1     2    1
     2     2     3    1
     3     2     4    1
     4     4     5    1
     5     5     6    1
     6     6     7    2
     7     6     8    2
     8     6     9    1
     9     9    10   ar
    10    10    11   ar
    11    11    12   ar
    12    12    13    1
    13    13    14   ar
    14    14    15   ar
    15    15    16   ar
    16    16    17   ar
    17    17    18    1
    18    17    19   ar
    19    12    20   ar
    20    20    21   ar
    21     4    22    1
    22    22    23    2
    23    22    24    1
    24    21     9   ar
    25    19    13   ar
    26     1    25    1
    27     1    26    1
    28     1    27    1
    29     2    28    1
    30     3    29    1
    31     3    30    1
    32     3    31    1
    33     4    32    1
    34     5    33    1
    35    10    34    1
    36    11    35    1
    37    14    36    1
    38    15    37    1
    39    16    38    1
    40    19    39    1
    41    20    40    1
    42    21    41    1
    43    24    42    1
