
     RDKit          3D

 42 43  0  0  0  0  0  0  0  0999 V2000
   -3.4940   -0.6122   -1.6121 C   0  0  0  0  0  0  0  0  0  0  0  0
   -2.6727    0.1813   -0.6416 C   0  0  0  0  0  0  0  0  0  0  0  0
   -2.7744    1.6857   -0.9168 C   0  0  0  0  0  0  0  0  0  0  0  0
   -3.0520   -0.1149    0.8117 C   0  0  2  0  0  0  0  0  0  0  0  0
   -2.8387   -1.4860    1.0504 N   0  0  0  0  0  0  0  0  0  0  0  0
   -1.6049   -1.8687    2.1614 S   0  0  0  0  0  6  0  0  0  0  0  0
   -1.8441   -1.1678    3.4645 O   0  0  0  0  0  0  0  0  0  0  0  0
   -1.4260   -3.3465    2.3432 O   0  0  0  0  0  0  0  0  0  0  0  0
   -0.0958   -1.2513    1.5120 C   0  0  0  0  0  0  0  0  0  0  0  0
    0.3688    0.0208    1.8122 C   0  0  0  0  0  0  0  0  0  0  0  0
    1.5574    0.4927    1.2916 C   0  0  0  0  0  0  0  0  0  0  0  0
    2.3170   -0.2913    0.4563 C   0  0  0  0  0  0  0  0  0  0  0  0
    3.5710    0.2100   -0.0917 C   0  0  0  0  0  0  0  0  0  0  0  0
    3.9882   -0.2233   -1.3427 C   0  0  0  0  0  0  0  0  0  0  0  0
    5.1694    0.2363   -1.8818 C   0  0  0  0  0  0  0  0  0  0  0  0
    5.9349    1.1334   -1.1642 C   0  0  0  0  0  0  0  0  0  0  0  0
    5.5368    1.5670    0.0654 C   0  0  0  0  0  0  0  0  0  0  0  0
    6.2708    2.4536    0.8005 F   0  0  0  0  0  0  0  0  0  0  0  0
    4.3677    1.1078    0.5914 C   0  0  0  0  0  0  0  0  0  0  0  0
    1.8648   -1.5666    0.1471 C   0  0  0  0  0  0  0  0  0  0  0  0
    0.6905   -2.0110    0.6715 C   0  0  0  0  0  0  0  0  0  0  0  0
   -4.4094    0.3747    1.1218 C   0  0  0  0  0  0  0  0  0  0  0  0
   -5.3374   -0.3502    1.5685 O   0  0  0  0  0  0  0  0  0  0  0  0
   -4.7185    1.7139    0.9206 O   0  0  0  0  0  0  0  0  0  0  0  0
   -3.3924   -0.1146   -2.6077 H   0  0  0  0  0  0  0  0  0  0  0  0
   -3.0622   -1.6156   -1.7124 H   0  0  0  0  0  0  0  0  0  0  0  0
   -4.5567   -0.6152   -1.2724 H   0  0  0  0  0  0  0  0  0  0  0  0
   -1.6073   -0.0825   -0.7982 H   0  0  0  0  0  0  0  0  0  0  0  0
   -1.9916    2.0244   -1.6003 H   0  0  0  0  0  0  0  0  0  0  0  0
   -3.7945    1.9011   -1.2335 H   0  0  0  0  0  0  0  0  0  0  0  0
   -2.6002    2.1906    0.0553 H   0  0  0  0  0  0  0  0  0  0  0  0
   -2.3434    0.4802    1.4230 H   0  0  0  0  0  0  0  0  0  0  0  0
   -2.9028   -2.1260    0.2566 H   0  0  0  0  0  0  0  0  0  0  0  0
   -0.1995    0.6692    2.4673 H   0  0  0  0  0  0  0  0  0  0  0  0
    1.8660    1.4910    1.5621 H   0  0  0  0  0  0  0  0  0  0  0  0
    3.3863   -0.9337   -1.9157 H   0  0  0  0  0  0  0  0  0  0  0  0
    5.5067   -0.0883   -2.8473 H   0  0  0  0  0  0  0  0  0  0  0  0
    6.8696    1.4916   -1.6005 H   0  0  0  0  0  0  0  0  0  0  0  0
    4.0478    1.4539    1.5753 H   0  0  0  0  0  0  0  0  0  0  0  0
    2.4256   -2.2141   -0.5012 H   0  0  0  0  0  0  0  0  0  0  0  0
    0.3442   -3.0238    0.4180 H   0  0  0  0  0  0  0  0  0  0  0  0
   -5.3650    2.2247    1.5107 H   0  0  0  0  0  0  0  0  0  0  0  0
  1  2  1  0
  2  3  1  0
  2  4  1  0
  4  5  1  0
  5  6  1  0
  6  7  2  0
  6  8  2  0
  6  9  1  0
  9 10  2  0
 10 11  1  0
 11 12  2  0
 12 13  1  0
 13 14  2  0
 14 15  1  0
 15 16  2  0
 16 17  1  0
 17 18  1  0
 17 19  2  0
 12 20  1  0
 20 21  2  0
  4 22  1  0
 22 23  2  0
 22 24  1  0
 21  9  1  0
 19 13  1  0
  1 25  1  0
  1 26  1  0
  1 27  1  0
  2 28  1  0
  3 29  1  0
  3 30  1  0
  3 31  1  0
  4 32  1  1
  5 33  1  0
 10 34  1  0
 11 35  1  0
 14 36  1  0
 15 37  1  0
 16 38  1  0
 19 39  1  0
 20 40  1  0
 21 41  1  0
 24 42  1  0
M  END
$$$$
