@<TRIPOS>MOLECULE
*****
 61 63 0 0 0
SMALL
GASTEIGER

@<TRIPOS>ATOM
      1 C          -9.1662   -2.5910    0.7549 C.3     1  UNL1        0.0788
      2 O          -7.9603   -2.7161    0.0676 O.3     1  UNL1       -0.4948
      3 C          -7.0826   -1.6838   -0.1806 C.ar    1  UNL1        0.1230
      4 C          -7.3577   -0.4054    0.2562 C.ar    1  UNL1       -0.0190
      5 C          -6.4959    0.6396    0.0193 C.ar    1  UNL1       -0.0462
      6 C          -5.2962    0.4553   -0.6783 C.ar    1  UNL1        0.0372
      7 C          -4.4467    1.6117   -0.8880 C.2     1  UNL1        0.2443
      8 O          -4.7976    2.7471   -0.4774 O.2     1  UNL1       -0.2702
      9 N          -3.2074    1.5107   -1.5530 N.am    1  UNL1       -0.3072
     10 C          -2.2864    2.5729   -1.8176 C.3     1  UNL1        0.0372
     11 C          -1.4887    2.9786   -0.6309 C.ar    1  UNL1       -0.0296
     12 C          -1.9411    4.0122    0.1514 C.ar    1  UNL1       -0.0570
     13 C          -1.1657    4.3532    1.2606 C.ar    1  UNL1       -0.0607
     14 C          -0.0042    3.6675    1.5336 C.ar    1  UNL1       -0.0496
     15 C           0.4575    2.6279    0.7518 C.ar    1  UNL1        0.0373
     16 C           1.7160    1.9386    1.1114 C.2     1  UNL1        0.2483
     17 O           2.2700    2.2993    2.1644 O.2     1  UNL1       -0.2699
     18 N           2.3041    0.9252    0.3470 N.am    1  UNL1       -0.2815
     19 C           3.4902    0.2067    0.5974 C.ar    1  UNL1        0.0337
     20 C           4.2546    0.3602    1.7162 C.ar    1  UNL1       -0.0402
     21 C           5.4331   -0.3922    1.8697 C.ar    1  UNL1       -0.0556
     22 C           5.8355   -1.2873    0.9087 C.ar    1  UNL1       -0.0333
     23 C           7.0745   -2.0754    1.0895 C.3     1  UNL1        0.0235
     24 N           8.1822   -1.3089    0.5747 N.3     1  UNL1       -0.3042
     25 C           9.4462   -1.9707    0.6763 C.3     1  UNL1       -0.0127
     26 C           7.8644   -0.8202   -0.7301 C.3     1  UNL1       -0.0127
     27 C           5.0506   -1.4296   -0.2146 C.ar    1  UNL1       -0.0556
     28 C           3.8931   -0.7103   -0.3971 C.ar    1  UNL1       -0.0402
     29 C          -0.3009    2.2890   -0.3387 C.ar    1  UNL1       -0.0449
     30 C          -5.0322   -0.8187   -1.1082 C.ar    1  UNL1       -0.0433
     31 C          -5.9079   -1.8826   -0.8676 C.ar    1  UNL1       -0.0081
     32 C          -5.5337   -3.2303   -1.3763 C.3     1  UNL1       -0.0362
     33 H          -9.1270   -1.8339    1.5695 H       1  UNL1        0.0660
     34 H         -10.0414   -2.3798    0.1389 H       1  UNL1        0.0660
     35 H          -9.3640   -3.5675    1.2817 H       1  UNL1        0.0660
     36 H          -8.2672   -0.1481    0.8098 H       1  UNL1        0.0654
     37 H          -6.7376    1.6486    0.3784 H       1  UNL1        0.0626
     38 H          -2.9029    0.5526   -1.9043 H       1  UNL1        0.1493
     39 H          -1.5427    2.2955   -2.5985 H       1  UNL1        0.0512
     40 H          -2.8160    3.4574   -2.2454 H       1  UNL1        0.0512
     41 H          -2.8500    4.5629   -0.0600 H       1  UNL1        0.0621
     42 H          -1.4978    5.1534    1.8830 H       1  UNL1        0.0618
     43 H           0.5789    3.9588    2.4093 H       1  UNL1        0.0625
     44 H           1.7516    0.6865   -0.5465 H       1  UNL1        0.1551
     45 H           3.9629    1.0471    2.4818 H       1  UNL1        0.0636
     46 H           5.9969   -0.2207    2.7881 H       1  UNL1        0.0621
     47 H           6.9628   -3.0452    0.5519 H       1  UNL1        0.0475
     48 H           7.1973   -2.3239    2.1791 H       1  UNL1        0.0475
     49 H           9.5109   -2.7972   -0.0816 H       1  UNL1        0.0391
     50 H           9.5186   -2.4482    1.6748 H       1  UNL1        0.0391
     51 H          10.2441   -1.2087    0.5249 H       1  UNL1        0.0391
     52 H           8.7734   -0.2926   -1.1199 H       1  UNL1        0.0391
     53 H           7.0307   -0.0873   -0.7037 H       1  UNL1        0.0391
     54 H           7.6406   -1.6308   -1.4490 H       1  UNL1        0.0391
     55 H           5.3431   -2.1407   -1.0097 H       1  UNL1        0.0621
     56 H           3.2962   -0.8467   -1.2953 H       1  UNL1        0.0636
     57 H           0.0021    1.4873   -0.9866 H       1  UNL1        0.0628
     58 H          -4.1204   -1.0163   -1.6515 H       1  UNL1        0.0629
     59 H          -6.3635   -3.9386   -1.1221 H       1  UNL1        0.0279
     60 H          -4.6219   -3.5685   -0.8277 H       1  UNL1        0.0279
     61 H          -5.3586   -3.2286   -2.4848 H       1  UNL1        0.0279
@<TRIPOS>BOND
     1     1     2    1
     2     2     3    1
     3     3     4   ar
     4     4     5   ar
     5     5     6   ar
     6     6     7    1
     7     7     8    2
     8     7     9   am
     9     9    10    1
    10    10    11    1
    11    11    12   ar
    12    12    13   ar
    13    13    14   ar
    14    14    15   ar
    15    15    16    1
    16    16    17    2
    17    16    18   am
    18    18    19    1
    19    19    20   ar
    20    20    21   ar
    21    21    22   ar
    22    22    23    1
    23    23    24    1
    24    24    25    1
    25    24    26    1
    26    22    27   ar
    27    27    28   ar
    28    15    29   ar
    29     6    30   ar
    30    30    31   ar
    31    31    32    1
    32    31     3   ar
    33    29    11   ar
    34    28    19   ar
    35     1    33    1
    36     1    34    1
    37     1    35    1
    38     4    36    1
    39     5    37    1
    40     9    38    1
    41    10    39    1
    42    10    40    1
    43    12    41    1
    44    13    42    1
    45    14    43    1
    46    18    44    1
    47    20    45    1
    48    21    46    1
    49    23    47    1
    50    23    48    1
    51    25    49    1
    52    25    50    1
    53    25    51    1
    54    26    52    1
    55    26    53    1
    56    26    54    1
    57    27    55    1
    58    28    56    1
    59    29    57    1
    60    30    58    1
    61    32    59    1
    62    32    60    1
    63    32    61    1
