
     RDKit          3D

 30 32  0  0  0  0  0  0  0  0999 V2000
   -0.3789    1.5096   -3.0899 C   0  0  0  0  0  0  0  0  0  0  0  0
    0.5857    0.9849   -2.1192 C   0  0  0  0  0  0  0  0  0  0  0  0
    2.2122    1.7064   -1.7860 S   0  0  0  0  0  0  0  0  0  0  0  0
    2.6755    0.5173   -0.5602 C   0  0  0  0  0  0  0  0  0  0  0  0
    3.8155    0.3841    0.1805 N   0  0  0  0  0  0  0  0  0  0  0  0
    3.9236   -0.6343    1.0540 C   0  0  0  0  0  0  0  0  0  0  0  0
    5.0859   -0.7940    1.8287 N   0  0  0  0  0  0  0  0  0  0  0  0
    2.9092   -1.4898    1.1723 N   0  0  0  0  0  0  0  0  0  0  0  0
    1.7891   -1.3719    0.4552 C   0  0  0  0  0  0  0  0  0  0  0  0
    0.8870   -2.2217    0.6281 O   0  0  0  0  0  0  0  0  0  0  0  0
    1.6082   -0.3208   -0.4832 C   0  0  0  0  0  0  0  0  0  0  0  0
    0.5413   -0.0830   -1.2773 C   0  0  0  0  0  0  0  0  0  0  0  0
   -0.9905   -1.1081   -1.3205 S   0  0  0  0  0  0  0  0  0  0  0  0
   -2.2142   -0.4465   -0.2248 C   0  0  0  0  0  0  0  0  0  0  0  0
   -2.3097   -0.8858    1.0624 C   0  0  0  0  0  0  0  0  0  0  0  0
   -3.2417   -0.3939    1.9532 C   0  0  0  0  0  0  0  0  0  0  0  0
   -4.1250    0.5789    1.5589 C   0  0  0  0  0  0  0  0  0  0  0  0
   -5.0618    1.0811    2.4356 F   0  0  0  0  0  0  0  0  0  0  0  0
   -4.0520    1.0418    0.2637 C   0  0  0  0  0  0  0  0  0  0  0  0
   -3.1145    0.5404   -0.6158 C   0  0  0  0  0  0  0  0  0  0  0  0
   -0.8767    0.7371   -3.6759 H   0  0  0  0  0  0  0  0  0  0  0  0
   -1.1506    2.0909   -2.5443 H   0  0  0  0  0  0  0  0  0  0  0  0
    0.1622    2.2575   -3.7248 H   0  0  0  0  0  0  0  0  0  0  0  0
    5.1243   -1.3773    2.6938 H   0  0  0  0  0  0  0  0  0  0  0  0
    5.9751   -0.3179    1.5524 H   0  0  0  0  0  0  0  0  0  0  0  0
    2.9817   -2.2889    1.8503 H   0  0  0  0  0  0  0  0  0  0  0  0
   -1.6123   -1.6710    1.3925 H   0  0  0  0  0  0  0  0  0  0  0  0
   -3.2947   -0.7633    2.9756 H   0  0  0  0  0  0  0  0  0  0  0  0
   -4.7635    1.8095   -0.0154 H   0  0  0  0  0  0  0  0  0  0  0  0
   -3.0903    0.9288   -1.6198 H   0  0  0  0  0  0  0  0  0  0  0  0
  1  2  1  0
  2  3  1  0
  3  4  1  0
  4  5  1  0
  5  6  2  0
  6  7  1  0
  6  8  1  0
  8  9  1  0
  9 10  2  0
  9 11  1  0
 11 12  1  0
 12 13  1  0
 13 14  1  0
 14 15  2  0
 15 16  1  0
 16 17  2  0
 17 18  1  0
 17 19  1  0
 19 20  2  0
 12  2  2  0
 20 14  1  0
 11  4  2  0
  1 21  1  0
  1 22  1  0
  1 23  1  0
  7 24  1  0
  7 25  1  0
  8 26  1  0
 15 27  1  0
 16 28  1  0
 19 29  1  0
 20 30  1  0
M  END
$$$$
