@<TRIPOS>MOLECULE
*****
 30 32 0 0 0
SMALL
GASTEIGER

@<TRIPOS>ATOM
      1 C          -0.3789    1.5096   -3.0899 C.3     1  UNL1       -0.0323
      2 C           0.5857    0.9849   -2.1192 C.ar    1  UNL1        0.0032
      3 S           2.2122    1.7064   -1.7860 S.2     1  UNL1       -0.0725
      4 C           2.6755    0.5173   -0.5602 C.ar    1  UNL1        0.1183
      5 N           3.8155    0.3841    0.1805 N.ar    1  UNL1       -0.2087
      6 C           3.9236   -0.6343    1.0540 C.ar    1  UNL1        0.1940
      7 N           5.0859   -0.7940    1.8287 N.pl3   1  UNL1       -0.3289
      8 N           2.9092   -1.4898    1.1723 N.ar    1  UNL1       -0.2947
      9 C           1.7891   -1.3719    0.4552 C.ar    1  UNL1        0.2620
     10 O           0.8870   -2.2217    0.6281 O.2     1  UNL1       -0.2671
     11 C           1.6082   -0.3208   -0.4832 C.ar    1  UNL1        0.0860
     12 C           0.5413   -0.0830   -1.2773 C.ar    1  UNL1        0.0371
     13 S          -0.9905   -1.1081   -1.3205 S.3     1  UNL1       -0.0878
     14 C          -2.2142   -0.4465   -0.2248 C.ar    1  UNL1        0.0129
     15 C          -2.3097   -0.8858    1.0624 C.ar    1  UNL1       -0.0453
     16 C          -3.2417   -0.3939    1.9532 C.ar    1  UNL1       -0.0254
     17 C          -4.1250    0.5789    1.5589 C.ar    1  UNL1        0.1235
     18 F          -5.0618    1.0811    2.4356 F       1  UNL1       -0.2055
     19 C          -4.0520    1.0418    0.2637 C.ar    1  UNL1       -0.0254
     20 C          -3.1145    0.5404   -0.6158 C.ar    1  UNL1       -0.0453
     21 H          -0.8767    0.7371   -3.6759 H       1  UNL1        0.0283
     22 H          -1.1506    2.0909   -2.5443 H       1  UNL1        0.0283
     23 H           0.1622    2.2575   -3.7248 H       1  UNL1        0.0283
     24 H           5.1243   -1.3773    2.6938 H       1  UNL1        0.1451
     25 H           5.9751   -0.3179    1.5524 H       1  UNL1        0.1451
     26 H           2.9817   -2.2889    1.8503 H       1  UNL1        0.1716
     27 H          -1.6123   -1.6710    1.3925 H       1  UNL1        0.0629
     28 H          -3.2947   -0.7633    2.9756 H       1  UNL1        0.0646
     29 H          -4.7635    1.8095   -0.0154 H       1  UNL1        0.0646
     30 H          -3.0903    0.9288   -1.6198 H       1  UNL1        0.0629
@<TRIPOS>BOND
     1     1     2    1
     2     2     3   ar
     3     3     4   ar
     4     4     5   ar
     5     5     6   ar
     6     6     7    1
     7     6     8   ar
     8     8     9   ar
     9     9    10    2
    10     9    11   ar
    11    11    12   ar
    12    12    13    1
    13    13    14    1
    14    14    15   ar
    15    15    16   ar
    16    16    17   ar
    17    17    18    1
    18    17    19   ar
    19    19    20   ar
    20    12     2   ar
    21    20    14   ar
    22    11     4   ar
    23     1    21    1
    24     1    22    1
    25     1    23    1
    26     7    24    1
    27     7    25    1
    28     8    26    1
    29    15    27    1
    30    16    28    1
    31    19    29    1
    32    20    30    1
