@<TRIPOS>MOLECULE
*****
 12 11 0 0 0
SMALL
GASTEIGER

@<TRIPOS>ATOM
      1 F          -2.3901    1.3715   -1.1104 F       1  UNL1       -0.1782
      2 C          -1.7281    0.4326   -0.3511 C.3     1  UNL1        0.3491
      3 F          -2.4332   -0.7624   -0.3422 F       1  UNL1       -0.1782
      4 O          -0.4495    0.2124   -0.8433 O.3     1  UNL1       -0.2800
      5 C           0.5697    0.4172    0.0452 C.3     1  UNL1        0.2999
      6 F           1.4644    1.3667   -0.4117 F       1  UNL1       -0.2047
      7 C           1.3859   -0.8623    0.2558 C.3     1  UNL1        0.4461
      8 F           1.9219   -1.2624   -0.9448 F       1  UNL1       -0.1654
      9 F           0.6314   -1.8539    0.8503 F       1  UNL1       -0.1654
     10 F           2.4548   -0.5417    1.0820 F       1  UNL1       -0.1654
     11 H          -1.6662    0.7471    0.7199 H       1  UNL1        0.1361
     12 H           0.2390    0.7351    1.0503 H       1  UNL1        0.1061
@<TRIPOS>BOND
     1     1     2    1
     2     2     3    1
     3     2     4    1
     4     4     5    1
     5     5     6    1
     6     5     7    1
     7     7     8    1
     8     7     9    1
     9     7    10    1
    10     2    11    1
    11     5    12    1
