@<TRIPOS>MOLECULE
*****
 44 46 0 0 0
SMALL
GASTEIGER

@<TRIPOS>ATOM
      1 CA         -2.3837    0.0063   -0.6224 C.3     1  VAL1        0.0474
      2 C          -1.5289    0.7422   -1.6218 C.3     1  VAL1        0.0628
      3 O          -1.6646    0.0661   -2.8551 O.3     1  VAL1       -0.3932
      4 N          -2.3709    0.5547    0.6989 N.pl3   1  VAL1       -0.3224
      5 C          -1.1500    0.6460    1.4218 C.ar    0  UNK0        0.1400
      6 N           0.0144    0.2255    0.8942 N.ar    0  UNK0       -0.1496
      7 N           1.1418    0.3157    1.5757 N.ar    0  UNK0       -0.2110
      8 C           1.2030    0.8272    2.8277 C.ar    0  UNK0        0.1548
      9 C           0.0577    1.2882    3.4604 C.ar    0  UNK0       -0.0142
     10 C          -1.1023    1.1700    2.6980 C.ar    0  UNK0       -0.0167
     11 N           2.4628    0.8005    3.2838 N.ar    0  UNK0       -0.2340
     12 C           3.2705    0.2687    2.3419 C.ar    0  UNK0        0.0560
     13 C           2.4261   -0.0330    1.2699 C.ar    0  UNK0        0.0930
     14 C           2.8668   -0.6330    0.0130 C.ar    0  UNK0        0.0037
     15 C           4.0284   -0.0646   -0.5157 C.ar    0  UNK0       -0.0318
     16 C           4.5815   -0.5176   -1.7046 C.ar    0  UNK0        0.0252
     17 N           5.7765    0.0967   -2.2099 N.pl3   0  UNK0       -0.3579
     18 C           3.9655   -1.5575   -2.3806 C.ar    0  UNK0       -0.0410
     19 C           2.8193   -2.1079   -1.8455 C.ar    0  UNK0       -0.0594
     20 C           2.2560   -1.6703   -0.6656 C.ar    0  UNK0       -0.0524
     21 CB         -3.7840   -0.1781   -1.1421 C.3     1  VAL1       -0.0262
     22 CG1        -4.6725   -0.9189   -0.1541 C.3     1  VAL1       -0.0609
     23 CG2        -4.4121    1.1462   -1.5063 C.3     1  VAL1       -0.0609
     24 HA         -1.9507   -1.0295   -0.5659 H       1  VAL1        0.0523
     25 H1         -1.8396    1.7834   -1.8044 H       1  VAL1        0.0576
     26 H2         -0.4663    0.7298   -1.3812 H       1  VAL1        0.0576
     27 H          -1.7337   -0.9144   -2.7315 H       1  VAL1        0.2095
     28 H          -3.2423    0.8968    1.1602 H       1  VAL1        0.1479
     29 H           0.0173    1.7071    4.4482 H       0  UNK0        0.0656
     30 H          -2.0351    1.5071    3.1214 H       0  UNK0        0.0653
     31 H           4.3191    0.0860    2.3365 H       0  UNK0        0.0852
     32 H           4.5584    0.7625   -0.0215 H       0  UNK0        0.0642
     33 H           5.9123    0.8600   -2.9307 H       0  UNK0        0.1423
     34 H           6.7023   -0.2125   -1.8504 H       0  UNK0        0.1423
     35 H           4.3818   -1.9359   -3.3239 H       0  UNK0        0.0636
     36 H           2.2956   -2.9281   -2.3376 H       0  UNK0        0.0618
     37 H           1.3632   -2.0663   -0.2064 H       0  UNK0        0.0624
     38 HB         -3.7184   -0.8428   -2.0454 H       1  VAL1        0.0314
     39 HG11       -5.6110   -1.1644   -0.6907 H       1  VAL1        0.0233
     40 HG12       -4.1768   -1.8314    0.1954 H       1  VAL1        0.0233
     41 HG13       -4.9067   -0.2770    0.7339 H       1  VAL1        0.0233
     42 HG21       -5.4917    1.0331   -1.6732 H       1  VAL1        0.0233
     43 HG22       -4.2740    1.8375   -0.6666 H       1  VAL1        0.0233
     44 HG23       -3.9047    1.5261   -2.4191 H       1  VAL1        0.0233
@<TRIPOS>BOND
     1     1     2    1
     2     2     3    1
     3     1     4    1
     4     4     5    1
     5     5     6   ar
     6     6     7   ar
     7     7     8   ar
     8     8     9   ar
     9     9    10   ar
    10     8    11   ar
    11    11    12   ar
    12    12    13   ar
    13    13    14    1
    14    14    15   ar
    15    15    16   ar
    16    16    17    1
    17    16    18   ar
    18    18    19   ar
    19    19    20   ar
    20     1    21    1
    21    21    22    1
    22    21    23    1
    23    10     5   ar
    24    20    14   ar
    25    13     7   ar
    26     1    24    1
    27     2    25    1
    28     2    26    1
    29     3    27    1
    30     4    28    1
    31     9    29    1
    32    10    30    1
    33    12    31    1
    34    15    32    1
    35    17    33    1
    36    17    34    1
    37    18    35    1
    38    19    36    1
    39    20    37    1
    40    21    38    1
    41    22    39    1
    42    22    40    1
    43    22    41    1
    44    23    42    1
    45    23    43    1
    46    23    44    1
