@<TRIPOS>MOLECULE
*****
 70 72 0 0 0
SMALL
GASTEIGER

@<TRIPOS>ATOM
      1 C           8.0694   -1.4900   -1.8536 C.2     1  UNL1       -0.0938
      2 C           7.2028   -2.4255   -1.4728 C.2     1  UNL1       -0.0070
      3 C           6.5544   -2.2944   -0.1772 C.2     1  UNL1        0.2363
      4 O           6.8127   -1.3036    0.5794 O.2     1  UNL1       -0.2709
      5 N           5.6338   -3.2843    0.2307 N.am    1  UNL1       -0.3118
      6 C           4.9772   -3.1960    1.5035 C.3     1  UNL1        0.0119
      7 C           4.1954   -1.9229    1.5799 C.3     1  UNL1       -0.0373
      8 C           3.1726   -1.9429    0.4211 C.3     1  UNL1       -0.0495
      9 C           2.4174   -0.6723    0.5500 C.3     1  UNL1       -0.0258
     10 C           1.3616   -0.3874   -0.4720 C.3     1  UNL1        0.1027
     11 N           0.8006    0.8954   -0.1057 N.am    1  UNL1       -0.2698
     12 C           0.7775    1.9524   -1.0625 C.2     1  UNL1        0.4012
     13 O           1.2369    1.7405   -2.1915 O.2     1  UNL1       -0.2265
     14 O           0.2617    3.2255   -0.7926 O.3     1  UNL1       -0.4456
     15 C           0.3133    4.1835   -1.8599 C.3     1  UNL1        0.1191
     16 C          -0.2558    5.4734   -1.4117 C.ar    1  UNL1       -0.0103
     17 C           0.6192    6.3817   -0.8615 C.ar    1  UNL1       -0.0554
     18 C           0.1455    7.6190   -0.4163 C.ar    1  UNL1       -0.0614
     19 C          -1.2081    7.8259   -0.5745 C.ar    1  UNL1       -0.0617
     20 C          -2.0855    6.9346   -1.1174 C.ar    1  UNL1       -0.0614
     21 C          -1.6059    5.7120   -1.5556 C.ar    1  UNL1       -0.0554
     22 C           0.3403   -1.4362   -0.4745 C.2     1  UNL1        0.2360
     23 O           0.7077   -2.6396   -0.8440 O.2     1  UNL1       -0.2736
     24 N          -1.0135   -1.3355   -0.1313 N.am    1  UNL1       -0.2999
     25 C          -1.7424   -0.1990    0.3398 C.3     1  UNL1        0.0153
     26 C          -3.2440   -0.5789    0.2881 C.3     1  UNL1       -0.0303
     27 C          -3.4834   -1.7023    1.2714 C.3     1  UNL1       -0.0130
     28 C          -4.9177   -1.9758    1.3002 C.ar    1  UNL1       -0.0442
     29 C          -5.5486   -2.0647    2.5203 C.ar    1  UNL1       -0.0583
     30 C          -6.8899   -2.3094    2.6612 C.ar    1  UNL1       -0.0615
     31 C          -7.6694   -2.4792    1.5275 C.ar    1  UNL1       -0.0617
     32 C          -7.0543   -2.3927    0.3093 C.ar    1  UNL1       -0.0615
     33 C          -5.7073   -2.1467    0.1855 C.ar    1  UNL1       -0.0583
     34 C          -2.6090   -2.8685    0.9739 C.3     1  UNL1       -0.0303
     35 C          -1.8336   -2.5568   -0.2843 C.3     1  UNL1        0.0153
     36 H           8.5264   -1.6443   -2.8403 H       1  UNL1        0.0536
     37 H           8.2958   -0.6445   -1.2276 H       1  UNL1        0.0536
     38 H           6.9647   -3.2759   -2.0920 H       1  UNL1        0.0663
     39 H           5.4424   -4.0806   -0.4106 H       1  UNL1        0.1490
     40 H           5.6887   -3.2870    2.3597 H       1  UNL1        0.0462
     41 H           4.2051   -4.0258    1.5731 H       1  UNL1        0.0462
     42 H           4.7672   -1.0020    1.6141 H       1  UNL1        0.0280
     43 H           3.6226   -1.9645    2.5518 H       1  UNL1        0.0280
     44 H           3.7390   -1.9253   -0.5279 H       1  UNL1        0.0266
     45 H           2.5159   -2.8222    0.5295 H       1  UNL1        0.0266
     46 H           1.8843   -0.6367    1.5472 H       1  UNL1        0.0288
     47 H           3.0877    0.2310    0.5900 H       1  UNL1        0.0288
     48 H           1.8232   -0.2819   -1.5059 H       1  UNL1        0.0596
     49 H           0.4350    1.0795    0.8462 H       1  UNL1        0.1528
     50 H          -0.2493    3.7598   -2.7171 H       1  UNL1        0.0749
     51 H           1.3690    4.2674   -2.2136 H       1  UNL1        0.0749
     52 H           1.6737    6.1741   -0.7598 H       1  UNL1        0.0621
     53 H           0.8320    8.3285    0.0129 H       1  UNL1        0.0618
     54 H          -1.5819    8.7833   -0.2333 H       1  UNL1        0.0618
     55 H          -3.1457    7.1190   -1.2255 H       1  UNL1        0.0618
     56 H          -2.2949    4.9948   -1.9909 H       1  UNL1        0.0621
     57 H          -1.6183    0.7317   -0.2080 H       1  UNL1        0.0465
     58 H          -1.5046   -0.0562    1.4190 H       1  UNL1        0.0465
     59 H          -3.7416    0.3286    0.7301 H       1  UNL1        0.0286
     60 H          -3.5471   -0.7862   -0.7342 H       1  UNL1        0.0286
     61 H          -3.1762   -1.3259    2.2668 H       1  UNL1        0.0350
     62 H          -4.9880   -1.9398    3.4559 H       1  UNL1        0.0620
     63 H          -7.4052   -2.3818    3.6084 H       1  UNL1        0.0618
     64 H          -8.7317   -2.6735    1.6115 H       1  UNL1        0.0618
     65 H          -7.6467   -2.5199   -0.6072 H       1  UNL1        0.0618
     66 H          -5.2746   -2.0856   -0.7698 H       1  UNL1        0.0620
     67 H          -3.1408   -3.8079    0.7771 H       1  UNL1        0.0286
     68 H          -1.8702   -3.0695    1.7751 H       1  UNL1        0.0286
     69 H          -1.1885   -3.4324   -0.4878 H       1  UNL1        0.0465
     70 H          -2.4992   -2.4675   -1.1806 H       1  UNL1        0.0465
@<TRIPOS>BOND
     1     1     2    2
     2     2     3    1
     3     3     4    2
     4     3     5   am
     5     5     6    1
     6     6     7    1
     7     7     8    1
     8     8     9    1
     9     9    10    1
    10    10    11    1
    11    11    12   am
    12    12    13    2
    13    12    14    1
    14    14    15    1
    15    15    16    1
    16    16    17   ar
    17    17    18   ar
    18    18    19   ar
    19    19    20   ar
    20    20    21   ar
    21    10    22    1
    22    22    23    2
    23    22    24   am
    24    24    25    1
    25    25    26    1
    26    26    27    1
    27    27    28    1
    28    28    29   ar
    29    29    30   ar
    30    30    31   ar
    31    31    32   ar
    32    32    33   ar
    33    27    34    1
    34    34    35    1
    35    21    16   ar
    36    35    24    1
    37    33    28   ar
    38     1    36    1
    39     1    37    1
    40     2    38    1
    41     5    39    1
    42     6    40    1
    43     6    41    1
    44     7    42    1
    45     7    43    1
    46     8    44    1
    47     8    45    1
    48     9    46    1
    49     9    47    1
    50    10    48    1
    51    11    49    1
    52    15    50    1
    53    15    51    1
    54    17    52    1
    55    18    53    1
    56    19    54    1
    57    20    55    1
    58    21    56    1
    59    25    57    1
    60    25    58    1
    61    26    59    1
    62    26    60    1
    63    27    61    1
    64    29    62    1
    65    30    63    1
    66    31    64    1
    67    32    65    1
    68    33    66    1
    69    34    67    1
    70    34    68    1
    71    35    69    1
    72    35    70    1
