@<TRIPOS>MOLECULE
*****
 32 31 0 0 0
SMALL
GASTEIGER

@<TRIPOS>ATOM
      1 C           4.2969   -0.3003   -0.7203 C.3     1  UNL1       -0.0649
      2 C           4.1520   -0.9218    0.6455 C.3     1  UNL1       -0.0484
      3 C           3.3360    0.0460    1.5002 C.3     1  UNL1        0.0160
      4 C           2.0196    0.2050    0.8150 C.2     1  UNL1        0.1895
      5 O           1.2933    0.9570    1.4095 O.2     1  UNL1       -0.2852
      6 S           1.3722   -0.5087   -0.6814 S.3     1  UNL1       -0.0829
      7 C          -0.3072    0.0370   -1.0510 C.3     1  UNL1        0.0411
      8 C          -1.2116   -0.5051    0.0205 C.3     1  UNL1       -0.0212
      9 N          -2.5962   -0.1390   -0.1547 N.4     1  UNL1        0.2375
     10 C          -2.7611    1.2859   -0.1122 C.3     1  UNL1       -0.0418
     11 C          -3.3393   -0.7427    0.9393 C.3     1  UNL1       -0.0418
     12 C          -3.1608   -0.6591   -1.3810 C.3     1  UNL1       -0.0418
     13 H           5.3754   -0.2748   -1.0487 H       1  UNL1        0.0230
     14 H           3.7622   -0.9001   -1.4922 H       1  UNL1        0.0230
     15 H           3.9483    0.7571   -0.7297 H       1  UNL1        0.0230
     16 H           3.5814   -1.8729    0.5591 H       1  UNL1        0.0267
     17 H           5.1096   -1.1716    1.1102 H       1  UNL1        0.0267
     18 H           3.2105   -0.3404    2.5359 H       1  UNL1        0.0350
     19 H           3.8772    1.0157    1.5535 H       1  UNL1        0.0350
     20 H          -0.3916    1.1350   -1.1857 H       1  UNL1        0.0433
     21 H          -0.5781   -0.4705   -2.0180 H       1  UNL1        0.0433
     22 H          -1.0719   -1.5875    0.0765 H       1  UNL1        0.0823
     23 H          -0.9044   -0.0445    1.0014 H       1  UNL1        0.0823
     24 H          -2.1545    1.6424    0.7630 H       1  UNL1        0.0778
     25 H          -2.3807    1.7616   -1.0455 H       1  UNL1        0.0778
     26 H          -3.8280    1.5373    0.0057 H       1  UNL1        0.0778
     27 H          -2.7632   -1.5967    1.3680 H       1  UNL1        0.0778
     28 H          -4.3305   -1.1248    0.5859 H       1  UNL1        0.0778
     29 H          -3.4541   -0.0019    1.7719 H       1  UNL1        0.0778
     30 H          -2.7877   -0.1301   -2.2767 H       1  UNL1        0.0778
     31 H          -3.0625   -1.7641   -1.4368 H       1  UNL1        0.0778
     32 H          -4.2512   -0.4586   -1.3272 H       1  UNL1        0.0778
@<TRIPOS>UNITY_ATOM_ATTR
9 1
charge 1
@<TRIPOS>BOND
     1     1     2    1
     2     2     3    1
     3     3     4    1
     4     4     5    2
     5     4     6    1
     6     6     7    1
     7     7     8    1
     8     8     9    1
     9     9    10    1
    10     9    11    1
    11     9    12    1
    12     1    13    1
    13     1    14    1
    14     1    15    1
    15     2    16    1
    16     2    17    1
    17     3    18    1
    18     3    19    1
    19     7    20    1
    20     7    21    1
    21     8    22    1
    22     8    23    1
    23    10    24    1
    24    10    25    1
    25    10    26    1
    26    11    27    1
    27    11    28    1
    28    11    29    1
    29    12    30    1
    30    12    31    1
    31    12    32    1
