@<TRIPOS>MOLECULE
*****
 52 57 0 0 0
SMALL
GASTEIGER

@<TRIPOS>ATOM
      1 C           2.8084   -3.1359    0.2375 C.3     1  UNL1       -0.0116
      2 C           3.7404   -2.0214   -0.1660 C.3     1  UNL1        0.2142
      3 C           3.2846   -0.7275    0.4498 C.ar    1  UNL1        0.0049
      4 C           3.6186   -0.4254    1.7480 C.ar    1  UNL1       -0.0543
      5 C           3.1921    0.7770    2.3129 C.ar    1  UNL1       -0.0611
      6 C           2.4276    1.6661    1.5533 C.ar    1  UNL1       -0.0568
      7 C           2.0856    1.3848    0.2631 C.ar    1  UNL1       -0.0272
      8 C           1.2703    2.2831   -0.6132 C.3     1  UNL1        0.0532
      9 N          -0.1233    1.9911   -0.5147 N.ar    1  UNL1       -0.2874
     10 C          -0.7944    1.1211   -1.2619 C.ar    1  UNL1        0.3362
     11 O          -0.3207    0.4089   -2.1774 O.2     1  UNL1       -0.2459
     12 N          -2.0970    1.0823   -0.9174 N.ar    1  UNL1       -0.2413
     13 C          -3.1427    0.2980   -1.4605 C.ar    1  UNL1        0.1922
     14 N          -3.7110    0.4630   -2.6635 N.ar    1  UNL1       -0.0587
     15 O          -4.6425   -0.4335   -2.8433 O.2     1  UNL1       -0.3525
     16 C          -4.7544   -1.2290   -1.8085 C.ar    1  UNL1        0.1707
     17 C          -5.5658   -2.3037   -1.5140 C.ar    1  UNL1        0.0023
     18 C          -5.4538   -2.9665   -0.3088 C.ar    1  UNL1        0.0446
     19 CL         -6.4806   -4.3393    0.0839 Cl      1  UNL1       -0.0834
     20 C          -4.5102   -2.5229    0.5868 C.ar    1  UNL1       -0.0425
     21 C          -3.6897   -1.4400    0.2948 C.ar    1  UNL1       -0.0460
     22 C          -3.7931   -0.7773   -0.8958 C.ar    1  UNL1        0.0661
     23 C          -2.2672    1.9706    0.0995 C.ar    1  UNL1        0.0765
     24 C          -3.3204    2.3815    0.8582 C.ar    1  UNL1       -0.0356
     25 C          -3.1173    3.3386    1.8378 C.ar    1  UNL1       -0.0597
     26 C          -1.8803    3.8896    2.0697 C.ar    1  UNL1       -0.0597
     27 C          -0.8131    3.4782    1.3065 C.ar    1  UNL1       -0.0360
     28 C          -1.0110    2.5270    0.3318 C.ar    1  UNL1        0.0706
     29 C           2.5332    0.1711   -0.2621 C.ar    1  UNL1       -0.0494
     30 O           3.7479   -1.8036   -1.5629 O.2     1  UNL1       -0.4308
     31 C           5.0509   -1.5877   -1.9777 C.2     1  UNL1        0.3808
     32 O           5.4825   -1.1299   -3.2377 O.2     1  UNL1       -0.4673
     33 N           5.8709   -1.8720   -1.0179 N.am    1  UNL1       -0.1074
     34 C           5.1424   -2.3043    0.1199 C.2     1  UNL1        0.2899
     35 O           5.6565   -2.8179    1.1352 O.2     1  UNL1       -0.2687
     36 H           2.3001   -3.5795   -0.6414 H       1  UNL1        0.0276
     37 H           2.0063   -2.7194    0.8805 H       1  UNL1        0.0276
     38 H           3.3309   -3.8954    0.8521 H       1  UNL1        0.0276
     39 H           4.1998   -1.0870    2.3456 H       1  UNL1        0.0622
     40 H           3.4655    0.9863    3.3227 H       1  UNL1        0.0618
     41 H           2.1037    2.5847    1.9880 H       1  UNL1        0.0621
     42 H           1.5143    3.3446   -0.3684 H       1  UNL1        0.0543
     43 H           1.6585    2.1301   -1.6500 H       1  UNL1        0.0543
     44 H          -6.3162   -2.6641   -2.2146 H       1  UNL1        0.0670
     45 H          -4.4099   -3.0396    1.5482 H       1  UNL1        0.0632
     46 H          -2.9416   -1.0834    0.9972 H       1  UNL1        0.0626
     47 H          -4.3016    1.9563    0.6870 H       1  UNL1        0.0639
     48 H          -3.9663    3.6464    2.4239 H       1  UNL1        0.0618
     49 H          -1.7489    4.6376    2.8433 H       1  UNL1        0.0618
     50 H           0.1756    3.8990    1.4686 H       1  UNL1        0.0639
     51 H           2.2816   -0.0800   -1.2731 H       1  UNL1        0.0625
     52 H           6.2247   -0.4311   -3.2948 H       1  UNL1        0.2967
@<TRIPOS>BOND
     1     2     1    1
     2     2     3    1
     3     3     4   ar
     4     4     5   ar
     5     5     6   ar
     6     6     7   ar
     7     7     8    1
     8     8     9    1
     9     9    10   ar
    10    10    11    2
    11    10    12   ar
    12    12    13    1
    13    13    14   ar
    14    14    15   ar
    15    15    16   ar
    16    16    17   ar
    17    17    18   ar
    18    18    19    1
    19    18    20   ar
    20    20    21   ar
    21    21    22   ar
    22    12    23   ar
    23    23    24   ar
    24    24    25   ar
    25    25    26   ar
    26    26    27   ar
    27    27    28   ar
    28     7    29   ar
    29     2    30    1
    30    30    31    1
    31    31    32    1
    32    31    33    2
    33    33    34    1
    34    34    35    2
    35    34     2    1
    36    29     3   ar
    37    28     9   ar
    38    22    13   ar
    39    28    23   ar
    40    22    16   ar
    41     1    36    1
    42     1    37    1
    43     1    38    1
    44     4    39    1
    45     5    40    1
    46     6    41    1
    47     8    42    1
    48     8    43    1
    49    17    44    1
    50    20    45    1
    51    21    46    1
    52    24    47    1
    53    25    48    1
    54    26    49    1
    55    27    50    1
    56    29    51    1
    57    32    52    1
