@<TRIPOS>MOLECULE
*****
 50 52 0 0 0
SMALL
GASTEIGER

@<TRIPOS>ATOM
      1 C          -2.5493   -4.5510   -0.9599 C.3     1  UNL1        0.0788
      2 O          -2.6112   -3.6484    0.1599 O.3     1  UNL1       -0.4948
      3 C          -1.8901   -2.4479    0.0033 C.ar    1  UNL1        0.1236
      4 C          -1.2222   -2.1797   -1.1667 C.ar    1  UNL1       -0.0185
      5 C          -0.4888   -0.9764   -1.3671 C.ar    1  UNL1       -0.0429
      6 C          -0.5142   -0.1383   -0.2912 C.ar    1  UNL1        0.0255
      7 C           0.4545    0.9915   -0.4148 C.1     1  UNL1       -0.0629
      8 C           1.2427    1.8862   -0.5104 C.1     1  UNL1       -0.0562
      9 C           2.2398    3.0021   -0.6099 C.3     1  UNL1        0.1502
     10 O           3.4269    2.6270   -0.9418 O.3     1  UNL1       -0.4795
     11 C           4.6280    2.2719   -1.2731 C.ar    1  UNL1        0.1227
     12 C           4.8746    0.9136   -1.6210 C.ar    1  UNL1       -0.0199
     13 C           6.1338    0.5285   -1.9650 C.ar    1  UNL1       -0.0575
     14 C           7.1857    1.4464   -1.9804 C.ar    1  UNL1       -0.0475
     15 C           7.0057    2.7750   -1.6533 C.ar    1  UNL1        0.0623
     16 C           8.1241    3.6957   -1.6610 C.2     1  UNL1        0.3369
     17 O           9.2751    3.4036   -1.9800 O.2     1  UNL1       -0.2451
     18 O           7.9156    5.0430   -1.2659 O.3     1  UNL1       -0.4771
     19 C           5.7210    3.1168   -1.3142 C.ar    1  UNL1       -0.0059
     20 C          -1.1538   -0.3483    0.8876 C.ar    1  UNL1       -0.0394
     21 C          -1.8677   -1.5456    1.0298 C.ar    1  UNL1       -0.0001
     22 C          -2.6938   -1.6971    2.2701 C.3     1  UNL1        0.0058
     23 C          -4.0785   -1.2462    1.9506 C.ar    1  UNL1        0.0148
     24 C          -4.3520   -0.6606    0.7180 C.ar    1  UNL1        0.0379
     25 N          -5.5885   -0.2114    0.4135 N.ar    1  UNL1       -0.2227
     26 C          -6.6192   -0.3243    1.3258 C.ar    1  UNL1        0.2142
     27 N          -7.9073    0.1799    0.9459 N.pl3   1  UNL1       -0.3274
     28 N          -6.2816   -0.8762    2.4335 N.ar    1  UNL1       -0.1999
     29 C          -5.1419   -1.3540    2.8661 C.ar    1  UNL1        0.1247
     30 N          -4.9398   -1.9492    4.1384 N.pl3   1  UNL1       -0.3428
     31 H          -1.5296   -4.5843   -1.3765 H       1  UNL1        0.0660
     32 H          -3.2813   -4.2500   -1.7420 H       1  UNL1        0.0660
     33 H          -2.8019   -5.5759   -0.6518 H       1  UNL1        0.0660
     34 H          -1.1976   -2.8176   -2.0306 H       1  UNL1        0.0654
     35 H           0.0260   -0.7544   -2.2635 H       1  UNL1        0.0631
     36 H           2.2388    3.5300    0.4091 H       1  UNL1        0.0837
     37 H           1.7831    3.7986   -1.2625 H       1  UNL1        0.0837
     38 H           4.0328    0.2353   -1.5947 H       1  UNL1        0.0654
     39 H           6.3735   -0.4958   -2.2389 H       1  UNL1        0.0619
     40 H           8.1603    1.0983   -2.2499 H       1  UNL1        0.0626
     41 H           8.5020    5.4155   -0.4907 H       1  UNL1        0.2954
     42 H           5.5386    4.1468   -1.0609 H       1  UNL1        0.0662
     43 H          -1.1202    0.3792    1.6822 H       1  UNL1        0.0634
     44 H          -2.6654   -2.7413    2.5961 H       1  UNL1        0.0364
     45 H          -2.2782   -1.0519    3.0647 H       1  UNL1        0.0364
     46 H          -3.5816   -0.5554   -0.0345 H       1  UNL1        0.0834
     47 H          -8.0476    1.2089    0.8866 H       1  UNL1        0.1452
     48 H          -8.6945   -0.4655    0.7299 H       1  UNL1        0.1452
     49 H          -4.4671   -2.8388    4.2632 H       1  UNL1        0.1437
     50 H          -5.3179   -1.4084    4.9779 H       1  UNL1        0.1437
@<TRIPOS>BOND
     1     1     2    1
     2     2     3    1
     3     3     4   ar
     4     4     5   ar
     5     5     6   ar
     6     6     7    1
     7     7     8    3
     8     8     9    1
     9     9    10    1
    10    10    11    1
    11    11    12   ar
    12    12    13   ar
    13    13    14   ar
    14    14    15   ar
    15    15    16    1
    16    16    17    2
    17    16    18    1
    18    15    19   ar
    19     6    20   ar
    20    20    21   ar
    21    21    22    1
    22    22    23    1
    23    23    24   ar
    24    24    25   ar
    25    25    26   ar
    26    26    27    1
    27    26    28   ar
    28    28    29   ar
    29    29    30    1
    30    21     3   ar
    31    29    23   ar
    32    19    11   ar
    33     1    31    1
    34     1    32    1
    35     1    33    1
    36     4    34    1
    37     5    35    1
    38     9    36    1
    39     9    37    1
    40    12    38    1
    41    13    39    1
    42    14    40    1
    43    18    41    1
    44    19    42    1
    45    20    43    1
    46    22    44    1
    47    22    45    1
    48    24    46    1
    49    27    47    1
    50    27    48    1
    51    30    49    1
    52    30    50    1
