
     RDKit          3D

 50 52  0  0  0  0  0  0  0  0999 V2000
   -2.5493   -4.5510   -0.9599 C   0  0  0  0  0  0  0  0  0  0  0  0
   -2.6112   -3.6484    0.1599 O   0  0  0  0  0  0  0  0  0  0  0  0
   -1.8901   -2.4479    0.0033 C   0  0  0  0  0  0  0  0  0  0  0  0
   -1.2222   -2.1797   -1.1667 C   0  0  0  0  0  0  0  0  0  0  0  0
   -0.4888   -0.9764   -1.3671 C   0  0  0  0  0  0  0  0  0  0  0  0
   -0.5142   -0.1383   -0.2912 C   0  0  0  0  0  0  0  0  0  0  0  0
    0.4545    0.9915   -0.4148 C   0  0  0  0  0  0  0  0  0  0  0  0
    1.2427    1.8862   -0.5104 C   0  0  0  0  0  0  0  0  0  0  0  0
    2.2398    3.0021   -0.6099 C   0  0  0  0  0  0  0  0  0  0  0  0
    3.4269    2.6270   -0.9418 O   0  0  0  0  0  0  0  0  0  0  0  0
    4.6280    2.2719   -1.2731 C   0  0  0  0  0  0  0  0  0  0  0  0
    4.8746    0.9136   -1.6210 C   0  0  0  0  0  0  0  0  0  0  0  0
    6.1338    0.5285   -1.9650 C   0  0  0  0  0  0  0  0  0  0  0  0
    7.1857    1.4464   -1.9804 C   0  0  0  0  0  0  0  0  0  0  0  0
    7.0057    2.7750   -1.6533 C   0  0  0  0  0  0  0  0  0  0  0  0
    8.1241    3.6957   -1.6610 C   0  0  0  0  0  0  0  0  0  0  0  0
    9.2751    3.4036   -1.9800 O   0  0  0  0  0  0  0  0  0  0  0  0
    7.9156    5.0430   -1.2659 O   0  0  0  0  0  0  0  0  0  0  0  0
    5.7210    3.1168   -1.3142 C   0  0  0  0  0  0  0  0  0  0  0  0
   -1.1538   -0.3483    0.8876 C   0  0  0  0  0  0  0  0  0  0  0  0
   -1.8677   -1.5456    1.0298 C   0  0  0  0  0  0  0  0  0  0  0  0
   -2.6938   -1.6971    2.2701 C   0  0  0  0  0  0  0  0  0  0  0  0
   -4.0785   -1.2462    1.9506 C   0  0  0  0  0  0  0  0  0  0  0  0
   -4.3520   -0.6606    0.7180 C   0  0  0  0  0  0  0  0  0  0  0  0
   -5.5885   -0.2114    0.4135 N   0  0  0  0  0  0  0  0  0  0  0  0
   -6.6192   -0.3243    1.3258 C   0  0  0  0  0  0  0  0  0  0  0  0
   -7.9073    0.1799    0.9459 N   0  0  0  0  0  0  0  0  0  0  0  0
   -6.2816   -0.8762    2.4335 N   0  0  0  0  0  0  0  0  0  0  0  0
   -5.1419   -1.3540    2.8661 C   0  0  0  0  0  0  0  0  0  0  0  0
   -4.9398   -1.9492    4.1384 N   0  0  0  0  0  0  0  0  0  0  0  0
   -1.5296   -4.5843   -1.3765 H   0  0  0  0  0  0  0  0  0  0  0  0
   -3.2813   -4.2500   -1.7420 H   0  0  0  0  0  0  0  0  0  0  0  0
   -2.8019   -5.5759   -0.6518 H   0  0  0  0  0  0  0  0  0  0  0  0
   -1.1976   -2.8176   -2.0306 H   0  0  0  0  0  0  0  0  0  0  0  0
    0.0260   -0.7544   -2.2635 H   0  0  0  0  0  0  0  0  0  0  0  0
    2.2388    3.5300    0.4091 H   0  0  0  0  0  0  0  0  0  0  0  0
    1.7831    3.7986   -1.2625 H   0  0  0  0  0  0  0  0  0  0  0  0
    4.0328    0.2353   -1.5947 H   0  0  0  0  0  0  0  0  0  0  0  0
    6.3735   -0.4958   -2.2389 H   0  0  0  0  0  0  0  0  0  0  0  0
    8.1603    1.0983   -2.2499 H   0  0  0  0  0  0  0  0  0  0  0  0
    8.5020    5.4155   -0.4907 H   0  0  0  0  0  0  0  0  0  0  0  0
    5.5386    4.1468   -1.0609 H   0  0  0  0  0  0  0  0  0  0  0  0
   -1.1202    0.3792    1.6822 H   0  0  0  0  0  0  0  0  0  0  0  0
   -2.6654   -2.7413    2.5961 H   0  0  0  0  0  0  0  0  0  0  0  0
   -2.2782   -1.0519    3.0647 H   0  0  0  0  0  0  0  0  0  0  0  0
   -3.5816   -0.5554   -0.0345 H   0  0  0  0  0  0  0  0  0  0  0  0
   -8.0476    1.2089    0.8866 H   0  0  0  0  0  0  0  0  0  0  0  0
   -8.6945   -0.4655    0.7299 H   0  0  0  0  0  0  0  0  0  0  0  0
   -4.4671   -2.8388    4.2632 H   0  0  0  0  0  0  0  0  0  0  0  0
   -5.3179   -1.4084    4.9779 H   0  0  0  0  0  0  0  0  0  0  0  0
  1  2  1  0
  2  3  1  0
  3  4  2  0
  4  5  1  0
  5  6  2  0
  6  7  1  0
  7  8  3  0
  8  9  1  0
  9 10  1  0
 10 11  1  0
 11 12  2  0
 12 13  1  0
 13 14  2  0
 14 15  1  0
 15 16  1  0
 16 17  2  0
 16 18  1  0
 15 19  2  0
  6 20  1  0
 20 21  2  0
 21 22  1  0
 22 23  1  0
 23 24  2  0
 24 25  1  0
 25 26  2  0
 26 27  1  0
 26 28  1  0
 28 29  2  0
 29 30  1  0
 21  3  1  0
 29 23  1  0
 19 11  1  0
  1 31  1  0
  1 32  1  0
  1 33  1  0
  4 34  1  0
  5 35  1  0
  9 36  1  0
  9 37  1  0
 12 38  1  0
 13 39  1  0
 14 40  1  0
 18 41  1  0
 19 42  1  0
 20 43  1  0
 22 44  1  0
 22 45  1  0
 24 46  1  0
 27 47  1  0
 27 48  1  0
 30 49  1  0
 30 50  1  0
M  END
$$$$
