
     RDKit          3D

 27 26  0  0  0  0  0  0  0  0999 V2000
    3.3553    0.0419   -0.9265 N   0  0  0  0  0  0  0  0  0  0  0  0
    2.9616    0.4630    0.4247 C   0  0  0  0  0  0  0  0  0  0  0  0
    1.4933    0.8311    0.4751 C   0  0  0  0  0  0  0  0  0  0  0  0
    0.6417   -0.3331    0.0891 C   0  0  0  0  0  0  0  0  0  0  0  0
   -0.8284   -0.0528    0.1130 C   0  0  0  0  0  0  0  0  0  0  0  0
   -1.2138    0.3288    1.4197 O   0  0  0  0  0  0  0  0  0  0  0  0
   -1.7800   -1.5528   -0.2539 P   0  0  0  0  0  5  0  0  0  0  0  0
   -1.9721   -1.5957   -1.7603 O   0  0  0  0  0  0  0  0  0  0  0  0
   -3.3189   -1.3511    0.4242 O   0  0  0  0  0  0  0  0  0  0  0  0
   -0.9992   -2.9157    0.3271 O   0  0  0  0  0  0  0  0  0  0  0  0
   -1.3557    1.2316   -1.0083 P   0  0  0  0  0  5  0  0  0  0  0  0
   -0.7561    0.9953   -2.3666 O   0  0  0  0  0  0  0  0  0  0  0  0
   -1.0186    2.7853   -0.4237 O   0  0  0  0  0  0  0  0  0  0  0  0
   -3.0394    1.1306   -1.1824 O   0  0  0  0  0  0  0  0  0  0  0  0
    4.3345    0.3680   -1.1362 H   0  0  0  0  0  0  0  0  0  0  0  0
    3.3674   -1.0174   -0.8993 H   0  0  0  0  0  0  0  0  0  0  0  0
    3.6060    1.3280    0.6731 H   0  0  0  0  0  0  0  0  0  0  0  0
    3.1934   -0.3441    1.1608 H   0  0  0  0  0  0  0  0  0  0  0  0
    1.3620    1.6687   -0.2709 H   0  0  0  0  0  0  0  0  0  0  0  0
    1.2854    1.2479    1.4535 H   0  0  0  0  0  0  0  0  0  0  0  0
    0.8443   -1.1663    0.7874 H   0  0  0  0  0  0  0  0  0  0  0  0
    0.9147   -0.6772   -0.9272 H   0  0  0  0  0  0  0  0  0  0  0  0
   -1.0958   -0.4992    1.9640 H   0  0  0  0  0  0  0  0  0  0  0  0
   -4.0167   -1.7185   -0.1734 H   0  0  0  0  0  0  0  0  0  0  0  0
   -1.1634   -3.6658   -0.3037 H   0  0  0  0  0  0  0  0  0  0  0  0
   -1.4049    3.4198   -1.0960 H   0  0  0  0  0  0  0  0  0  0  0  0
   -3.3966    1.0497   -0.2422 H   0  0  0  0  0  0  0  0  0  0  0  0
  1  2  1  0
  2  3  1  0
  3  4  1  0
  4  5  1  0
  5  6  1  0
  5  7  1  0
  7  8  2  0
  7  9  1  0
  7 10  1  0
  5 11  1  0
 11 12  2  0
 11 13  1  0
 11 14  1  0
  1 15  1  0
  1 16  1  0
  2 17  1  0
  2 18  1  0
  3 19  1  0
  3 20  1  0
  4 21  1  0
  4 22  1  0
  6 23  1  0
  9 24  1  0
 10 25  1  0
 13 26  1  0
 14 27  1  0
M  END
$$$$
