@<TRIPOS>MOLECULE
*****
 70 72 0 0 0
SMALL
GASTEIGER

@<TRIPOS>ATOM
      1 C          -6.0097    1.4582   -1.3322 C.3     1  UNL1       -0.0554
      2 C          -5.7971    0.2748   -0.4736 C.3     1  UNL1        0.0182
      3 C          -4.4064   -0.1646   -0.1993 C.3     1  UNL1       -0.0183
      4 C          -3.5519   -0.5617   -1.3338 C.3     1  UNL1        0.0821
      5 C          -3.3347    0.6037   -2.3237 C.3     1  UNL1       -0.0396
      6 C          -2.2001   -1.0175   -0.8821 C.3     1  UNL1        0.1053
      7 S          -1.2278    0.1338   -0.0056 S.O2    1  UNL1        0.0339
      8 O          -1.0238    1.4245   -0.6892 O.2     1  UNL1       -0.1580
      9 O          -1.9073    0.4250    1.3282 O.2     1  UNL1       -0.1580
     10 N           0.3195   -0.5053    0.4226 N.3     1  UNL1       -0.1810
     11 C           1.1331   -0.8732   -0.6833 C.3     1  UNL1        0.0204
     12 C           2.0571    0.2619   -1.0184 C.3     1  UNL1       -0.0357
     13 C           2.9663    0.5771    0.1411 C.3     1  UNL1       -0.0383
     14 C           4.3491    0.0347   -0.2175 C.3     1  UNL1       -0.0461
     15 C           5.3358    0.2939    0.8736 C.3     1  UNL1       -0.0269
     16 C           6.6989   -0.1691    0.6508 C.ar    1  UNL1       -0.0356
     17 C           7.0611   -1.4311    1.1737 C.ar    1  UNL1       -0.0553
     18 C           8.2950   -1.9552    1.0023 C.ar    1  UNL1       -0.0262
     19 C           9.2231   -1.2302    0.2944 C.ar    1  UNL1        0.1240
     20 F          10.4544   -1.7741    0.1336 F       1  UNL1       -0.2055
     21 C           8.8774   -0.0111   -0.2117 C.ar    1  UNL1       -0.0146
     22 C           7.6108    0.5676   -0.0564 C.ar    1  UNL1        0.0607
     23 C           7.3056    1.8760   -0.6049 C.3     1  UNL1        0.4178
     24 F           6.8813    2.7939    0.3409 F       1  UNL1       -0.1659
     25 F           6.5848    1.9006   -1.7710 F       1  UNL1       -0.1659
     26 F           8.5657    2.4233   -0.9972 F       1  UNL1       -0.1659
     27 C           2.4669   -0.0705    1.3957 C.3     1  UNL1       -0.0357
     28 C           0.9611    0.1885    1.4843 C.3     1  UNL1        0.0204
     29 N          -4.1193   -1.6760   -2.0947 N.am    1  UNL1       -0.1788
     30 O          -4.3567   -1.5166   -3.4057 O.3     1  UNL1       -0.2921
     31 C          -4.4087   -2.8931   -1.4537 C.2     1  UNL1        0.2256
     32 O          -4.2315   -3.1271   -0.2449 O.2     1  UNL1       -0.2772
     33 C          -6.4236    0.5727    0.8609 C.ar    1  UNL1        0.1320
     34 N          -7.4985   -0.0668    1.3297 N.ar    1  UNL1       -0.2372
     35 C          -8.0085    0.2589    2.5503 C.ar    1  UNL1        0.0663
     36 C          -7.4367    1.2450    3.3259 C.ar    1  UNL1        0.1594
     37 F          -7.9534    1.5678    4.5518 F       1  UNL1       -0.2023
     38 C          -6.3255    1.8928    2.8197 C.ar    1  UNL1        0.0663
     39 N          -5.8653    1.5303    1.6095 N.ar    1  UNL1       -0.2372
     40 H          -5.8641    1.3469   -2.4034 H       1  UNL1        0.0236
     41 H          -5.5466    2.3931   -0.8951 H       1  UNL1        0.0236
     42 H          -7.1200    1.7024   -1.2382 H       1  UNL1        0.0236
     43 H          -6.4299   -0.5569   -0.9069 H       1  UNL1        0.0377
     44 H          -3.8770    0.6806    0.3196 H       1  UNL1        0.0294
     45 H          -4.4383   -0.9687    0.5587 H       1  UNL1        0.0294
     46 H          -3.5479    1.5643   -1.8583 H       1  UNL1        0.0252
     47 H          -3.8783    0.3877   -3.2619 H       1  UNL1        0.0252
     48 H          -2.2600    0.6432   -2.6228 H       1  UNL1        0.0252
     49 H          -1.6299   -1.2649   -1.8345 H       1  UNL1        0.0538
     50 H          -2.2555   -2.0073   -0.3476 H       1  UNL1        0.0538
     51 H           0.4479   -0.9916   -1.5731 H       1  UNL1        0.0444
     52 H           1.6605   -1.8407   -0.5621 H       1  UNL1        0.0444
     53 H           2.6183    0.0390   -1.9487 H       1  UNL1        0.0281
     54 H           1.4130    1.1603   -1.1887 H       1  UNL1        0.0281
     55 H           3.0970    1.6551    0.3096 H       1  UNL1        0.0302
     56 H           4.1593   -1.0802   -0.3411 H       1  UNL1        0.0271
     57 H           4.5997    0.3773   -1.2181 H       1  UNL1        0.0271
     58 H           5.2905    1.3610    1.2306 H       1  UNL1        0.0313
     59 H           4.9296   -0.2597    1.7757 H       1  UNL1        0.0313
     60 H           6.2974   -1.9787    1.7307 H       1  UNL1        0.0621
     61 H           8.4998   -2.9314    1.4337 H       1  UNL1        0.0646
     62 H           9.6169    0.5471   -0.7657 H       1  UNL1        0.0652
     63 H           2.6560   -1.1520    1.4019 H       1  UNL1        0.0281
     64 H           2.9155    0.3682    2.2888 H       1  UNL1        0.0281
     65 H           0.8325    1.2835    1.3398 H       1  UNL1        0.0444
     66 H           0.5799   -0.0779    2.4888 H       1  UNL1        0.0444
     67 H          -4.2531   -2.3400   -3.9389 H       1  UNL1        0.2417
     68 H          -4.8305   -3.7514   -2.0168 H       1  UNL1        0.1274
     69 H          -8.8790   -0.2448    2.9528 H       1  UNL1        0.0860
     70 H          -5.8639    2.6743    3.4225 H       1  UNL1        0.0860
@<TRIPOS>BOND
     1     1     2    1
     2     2     3    1
     3     3     4    1
     4     4     5    1
     5     4     6    1
     6     6     7    1
     7     7     8    2
     8     7     9    2
     9     7    10    1
    10    10    11    1
    11    11    12    1
    12    12    13    1
    13    13    14    1
    14    14    15    1
    15    15    16    1
    16    16    17   ar
    17    17    18   ar
    18    18    19   ar
    19    19    20    1
    20    19    21   ar
    21    21    22   ar
    22    22    23    1
    23    23    24    1
    24    23    25    1
    25    23    26    1
    26    13    27    1
    27    27    28    1
    28     4    29    1
    29    29    30    1
    30    29    31   am
    31    31    32    2
    32     2    33    1
    33    33    34   ar
    34    34    35   ar
    35    35    36   ar
    36    36    37    1
    37    36    38   ar
    38    38    39   ar
    39    28    10    1
    40    39    33   ar
    41    22    16   ar
    42     1    40    1
    43     1    41    1
    44     1    42    1
    45     2    43    1
    46     3    44    1
    47     3    45    1
    48     5    46    1
    49     5    47    1
    50     5    48    1
    51     6    49    1
    52     6    50    1
    53    11    51    1
    54    11    52    1
    55    12    53    1
    56    12    54    1
    57    13    55    1
    58    14    56    1
    59    14    57    1
    60    15    58    1
    61    15    59    1
    62    17    60    1
    63    18    61    1
    64    21    62    1
    65    27    63    1
    66    27    64    1
    67    28    65    1
    68    28    66    1
    69    30    67    1
    70    31    68    1
    71    35    69    1
    72    38    70    1
