
     RDKit          3D

 52 55  0  0  0  0  0  0  0  0999 V2000
    5.3631    4.6610    1.9412 N   0  0  0  0  0  0  0  0  0  0  0  0
    4.5722    3.8505    2.1450 C   0  0  0  0  0  0  0  0  0  0  0  0
    3.3656    2.5825    2.4813 S   0  0  0  0  0  0  0  0  0  0  0  0
    2.1673    2.6506    1.1117 C   0  0  0  0  0  0  0  0  0  0  0  0
    1.0795    1.5875    1.3126 C   0  0  2  0  0  0  0  0  0  0  0  0
    1.6439    0.2112    1.3573 C   0  0  0  0  0  0  0  0  0  0  0  0
    1.0348   -0.7835    0.4314 C   0  0  2  0  0  0  0  0  0  0  0  0
    1.0642   -2.0211    1.1372 O   0  0  0  0  0  0  0  0  0  0  0  0
    1.9135   -0.9704   -0.7379 C   0  0  0  0  0  0  0  0  0  0  0  0
    2.9598   -1.8958   -0.6094 C   0  0  0  0  0  0  0  0  0  0  0  0
    3.8228   -2.1328   -1.6584 C   0  0  0  0  0  0  0  0  0  0  0  0
    3.6398   -1.4443   -2.8362 C   0  0  0  0  0  0  0  0  0  0  0  0
    2.6066   -0.5374   -2.9481 C   0  0  0  0  0  0  0  0  0  0  0  0
    1.7294   -0.2817   -1.9151 C   0  0  0  0  0  0  0  0  0  0  0  0
   -0.4013   -0.5630    0.0788 C   0  0  1  0  0  0  0  0  0  0  0  0
   -1.2972   -1.5498    0.7910 C   0  0  0  0  0  0  0  0  0  0  0  0
   -1.5336   -1.4433    2.1543 C   0  0  0  0  0  0  0  0  0  0  0  0
   -2.3494   -2.3463    2.8190 C   0  0  0  0  0  0  0  0  0  0  0  0
   -2.9480   -3.3795    2.1288 C   0  0  0  0  0  0  0  0  0  0  0  0
   -2.7245   -3.5010    0.7740 C   0  0  0  0  0  0  0  0  0  0  0  0
   -1.9179   -2.5979    0.1492 C   0  0  0  0  0  0  0  0  0  0  0  0
   -0.8307    0.8239    0.3075 C   0  0  2  0  0  0  0  0  0  0  0  0
   -1.9174    1.3378   -0.5420 C   0  0  0  0  0  0  0  0  0  0  0  0
   -2.2816    2.6596   -0.3763 C   0  0  0  0  0  0  0  0  0  0  0  0
   -3.3011    3.2258   -1.1453 C   0  0  0  0  0  0  0  0  0  0  0  0
   -3.9702    2.4757   -2.0912 C   0  0  0  0  0  0  0  0  0  0  0  0
   -5.2633    3.2051   -3.0619 Cl  0  0  0  0  0  0  0  0  0  0  0  0
   -3.6134    1.1699   -2.2579 C   0  0  0  0  0  0  0  0  0  0  0  0
   -2.6052    0.6245   -1.4918 C   0  0  0  0  0  0  0  0  0  0  0  0
    0.1906    1.7359    0.2806 O   0  0  0  0  0  0  0  0  0  0  0  0
    2.6730    2.4331    0.1531 H   0  0  0  0  0  0  0  0  0  0  0  0
    1.6607    3.6283    1.1084 H   0  0  0  0  0  0  0  0  0  0  0  0
    0.6090    1.8681    2.3007 H   0  0  0  0  0  0  0  0  0  0  0  0
    1.6507   -0.1231    2.4196 H   0  0  0  0  0  0  0  0  0  0  0  0
    2.7438    0.3061    1.1108 H   0  0  0  0  0  0  0  0  0  0  0  0
    0.7730   -2.7090    0.4891 H   0  0  0  0  0  0  0  0  0  0  0  0
    3.1185   -2.4423    0.3010 H   0  0  0  0  0  0  0  0  0  0  0  0
    4.6280   -2.8396   -1.5712 H   0  0  0  0  0  0  0  0  0  0  0  0
    4.3083   -1.6147   -3.6773 H   0  0  0  0  0  0  0  0  0  0  0  0
    2.4619    0.0022   -3.8690 H   0  0  0  0  0  0  0  0  0  0  0  0
    0.9111    0.4125   -1.9635 H   0  0  0  0  0  0  0  0  0  0  0  0
   -0.4753   -0.8701   -1.0073 H   0  0  0  0  0  0  0  0  0  0  0  0
   -1.0851   -0.6583    2.7066 H   0  0  0  0  0  0  0  0  0  0  0  0
   -2.5374   -2.2715    3.8716 H   0  0  0  0  0  0  0  0  0  0  0  0
   -3.5905   -4.1033    2.6129 H   0  0  0  0  0  0  0  0  0  0  0  0
   -3.1707   -4.2995    0.1696 H   0  0  0  0  0  0  0  0  0  0  0  0
   -1.7455   -2.7009   -0.9255 H   0  0  0  0  0  0  0  0  0  0  0  0
   -1.2465    0.8683    1.3658 H   0  0  0  0  0  0  0  0  0  0  0  0
   -1.8188    3.3263    0.3362 H   0  0  0  0  0  0  0  0  0  0  0  0
   -3.6024    4.2586   -1.0320 H   0  0  0  0  0  0  0  0  0  0  0  0
   -4.1188    0.5687   -2.9860 H   0  0  0  0  0  0  0  0  0  0  0  0
   -2.3452   -0.3934   -1.6429 H   0  0  0  0  0  0  0  0  0  0  0  0
  1  2  3  0
  2  3  1  0
  3  4  1  0
  4  5  1  0
  5  6  1  0
  6  7  1  0
  7  8  1  1
  7  9  1  0
  9 10  2  0
 10 11  1  0
 11 12  2  0
 12 13  1  0
 13 14  2  0
  7 15  1  0
 15 16  1  0
 16 17  2  0
 17 18  1  0
 18 19  2  0
 19 20  1  0
 20 21  2  0
 15 22  1  0
 22 23  1  0
 23 24  2  0
 24 25  1  0
 25 26  2  0
 26 27  1  0
 26 28  1  0
 28 29  2  0
 22 30  1  0
 30  5  1  0
 14  9  1  0
 21 16  1  0
 29 23  1  0
  4 31  1  0
  4 32  1  0
  5 33  1  1
  6 34  1  0
  6 35  1  0
  8 36  1  0
 10 37  1  0
 11 38  1  0
 12 39  1  0
 13 40  1  0
 14 41  1  0
 15 42  1  6
 17 43  1  0
 18 44  1  0
 19 45  1  0
 20 46  1  0
 21 47  1  0
 22 48  1  1
 24 49  1  0
 25 50  1  0
 28 51  1  0
 29 52  1  0
M  END
$$$$
