@<TRIPOS>MOLECULE
*****
 52 55 0 0 0
SMALL
GASTEIGER

@<TRIPOS>ATOM
      1 N           5.3631    4.6610    1.9412 N.1     1  UNL1       -0.1838
      2 C           4.5722    3.8505    2.1450 C.1     1  UNL1        0.1330
      3 S           3.3656    2.5825    2.4813 S.3     1  UNL1       -0.0440
      4 C           2.1673    2.6506    1.1117 C.3     1  UNL1        0.0341
      5 C           1.0795    1.5875    1.3126 C.3     1  UNL1        0.0723
      6 C           1.6439    0.2112    1.3573 C.3     1  UNL1        0.0080
      7 C           1.0348   -0.7835    0.4314 C.3     1  UNL1        0.1027
      8 O           1.0642   -2.0211    1.1372 O.3     1  UNL1       -0.3832
      9 C           1.9135   -0.9704   -0.7379 C.ar    1  UNL1       -0.0154
     10 C           2.9598   -1.8958   -0.6094 C.ar    1  UNL1       -0.0558
     11 C           3.8228   -2.1328   -1.6584 C.ar    1  UNL1       -0.0614
     12 C           3.6398   -1.4443   -2.8362 C.ar    1  UNL1       -0.0617
     13 C           2.6066   -0.5374   -2.9481 C.ar    1  UNL1       -0.0614
     14 C           1.7294   -0.2817   -1.9151 C.ar    1  UNL1       -0.0558
     15 C          -0.4013   -0.5630    0.0788 C.3     1  UNL1        0.0475
     16 C          -1.2972   -1.5498    0.7910 C.ar    1  UNL1       -0.0384
     17 C          -1.5336   -1.4433    2.1543 C.ar    1  UNL1       -0.0581
     18 C          -2.3494   -2.3463    2.8190 C.ar    1  UNL1       -0.0615
     19 C          -2.9480   -3.3795    2.1288 C.ar    1  UNL1       -0.0617
     20 C          -2.7245   -3.5010    0.7740 C.ar    1  UNL1       -0.0615
     21 C          -1.9179   -2.5979    0.1492 C.ar    1  UNL1       -0.0581
     22 C          -0.8307    0.8239    0.3075 C.3     1  UNL1        0.0937
     23 C          -1.9174    1.3378   -0.5420 C.ar    1  UNL1       -0.0181
     24 C          -2.2816    2.6596   -0.3763 C.ar    1  UNL1       -0.0547
     25 C          -3.3011    3.2258   -1.1453 C.ar    1  UNL1       -0.0431
     26 C          -3.9702    2.4757   -2.0912 C.ar    1  UNL1        0.0410
     27 CL         -5.2633    3.2051   -3.0619 Cl      1  UNL1       -0.0835
     28 C          -3.6134    1.1699   -2.2579 C.ar    1  UNL1       -0.0431
     29 C          -2.6052    0.6245   -1.4918 C.ar    1  UNL1       -0.0547
     30 O           0.1906    1.7359    0.2806 O.3     1  UNL1       -0.3671
     31 H           2.6730    2.4331    0.1531 H       1  UNL1        0.0412
     32 H           1.6607    3.6283    1.1084 H       1  UNL1        0.0412
     33 H           0.6090    1.8681    2.3007 H       1  UNL1        0.0606
     34 H           1.6507   -0.1231    2.4196 H       1  UNL1        0.0322
     35 H           2.7438    0.3061    1.1108 H       1  UNL1        0.0322
     36 H           0.7730   -2.7090    0.4891 H       1  UNL1        0.2106
     37 H           3.1185   -2.4423    0.3010 H       1  UNL1        0.0621
     38 H           4.6280   -2.8396   -1.5712 H       1  UNL1        0.0618
     39 H           4.3083   -1.6147   -3.6773 H       1  UNL1        0.0618
     40 H           2.4619    0.0022   -3.8690 H       1  UNL1        0.0618
     41 H           0.9111    0.4125   -1.9635 H       1  UNL1        0.0621
     42 H          -0.4753   -0.8701   -1.0073 H       1  UNL1        0.0409
     43 H          -1.0851   -0.6583    2.7066 H       1  UNL1        0.0620
     44 H          -2.5374   -2.2715    3.8716 H       1  UNL1        0.0618
     45 H          -3.5905   -4.1033    2.6129 H       1  UNL1        0.0618
     46 H          -3.1707   -4.2995    0.1696 H       1  UNL1        0.0618
     47 H          -1.7455   -2.7009   -0.9255 H       1  UNL1        0.0620
     48 H          -1.2465    0.8683    1.3658 H       1  UNL1        0.0653
     49 H          -1.8188    3.3263    0.3362 H       1  UNL1        0.0622
     50 H          -3.6024    4.2586   -1.0320 H       1  UNL1        0.0632
     51 H          -4.1188    0.5687   -2.9860 H       1  UNL1        0.0632
     52 H          -2.3452   -0.3934   -1.6429 H       1  UNL1        0.0622
@<TRIPOS>BOND
     1     1     2    3
     2     2     3    1
     3     3     4    1
     4     4     5    1
     5     5     6    1
     6     6     7    1
     7     7     8    1
     8     7     9    1
     9     9    10   ar
    10    10    11   ar
    11    11    12   ar
    12    12    13   ar
    13    13    14   ar
    14     7    15    1
    15    15    16    1
    16    16    17   ar
    17    17    18   ar
    18    18    19   ar
    19    19    20   ar
    20    20    21   ar
    21    15    22    1
    22    22    23    1
    23    23    24   ar
    24    24    25   ar
    25    25    26   ar
    26    26    27    1
    27    26    28   ar
    28    28    29   ar
    29    22    30    1
    30    30     5    1
    31    14     9   ar
    32    21    16   ar
    33    29    23   ar
    34     4    31    1
    35     4    32    1
    36     5    33    1
    37     6    34    1
    38     6    35    1
    39     8    36    1
    40    10    37    1
    41    11    38    1
    42    12    39    1
    43    13    40    1
    44    14    41    1
    45    15    42    1
    46    17    43    1
    47    18    44    1
    48    19    45    1
    49    20    46    1
    50    21    47    1
    51    22    48    1
    52    24    49    1
    53    25    50    1
    54    28    51    1
    55    29    52    1
