@<TRIPOS>MOLECULE
*****
 33 34 0 0 0
SMALL
GASTEIGER

@<TRIPOS>ATOM
      1 C          -5.8038    0.3205   -0.1855 C.3     1  UNL1        0.0788
      2 O          -4.8695   -0.4946    0.4908 O.3     1  UNL1       -0.4949
      3 C          -3.5214   -0.1110    0.5345 C.ar    1  UNL1        0.1267
      4 C          -3.1024    1.0500   -0.0750 C.ar    1  UNL1       -0.0178
      5 C          -1.7675    1.4207   -0.0264 C.ar    1  UNL1       -0.0304
      6 C          -0.8376    0.6400    0.6289 C.ar    1  UNL1        0.1097
      7 N           0.5035    1.0575    0.6554 N.pl3   1  UNL1       -0.3092
      8 C           1.5569    0.2981    0.0905 C.ar    1  UNL1        0.0322
      9 C           1.3104   -0.8497   -0.6434 C.ar    1  UNL1       -0.0405
     10 C           2.3356   -1.5870   -1.1885 C.ar    1  UNL1       -0.0592
     11 C           3.6494   -1.2026   -1.0194 C.ar    1  UNL1       -0.0477
     12 C           3.9120   -0.0456   -0.2808 C.ar    1  UNL1        0.0606
     13 C           5.2889    0.3849   -0.0856 C.2     1  UNL1        0.3369
     14 O           6.2193   -0.2764   -0.5735 O.2     1  UNL1       -0.2451
     15 O           5.5566    1.5214    0.6376 O.3     1  UNL1       -0.4771
     16 C           2.8762    0.6843    0.2602 C.ar    1  UNL1       -0.0266
     17 C          -1.2457   -0.5244    1.2433 C.ar    1  UNL1        0.2975
     18 N          -0.3596   -1.3802    1.9456 N.pl3   1  UNL1        0.0817
     19 O          -0.6156   -2.5938    2.0331 O.2     1  UNL1        0.0415
     20 O           0.7786   -0.9152    2.5366 O.co2   1  UNL1       -0.5760
     21 C          -2.5952   -0.8935    1.1904 C.ar    1  UNL1        0.0591
     22 H          -5.9712    1.2828    0.3318 H       1  UNL1        0.0660
     23 H          -6.7232   -0.2812   -0.3133 H       1  UNL1        0.0660
     24 H          -5.4020    0.4756   -1.2286 H       1  UNL1        0.0660
     25 H          -3.8551    1.6407   -0.5809 H       1  UNL1        0.0655
     26 H          -1.5100    2.3441   -0.5263 H       1  UNL1        0.0639
     27 H           0.7380    1.9624    1.1080 H       1  UNL1        0.1523
     28 H           0.2612   -1.1283   -0.7622 H       1  UNL1        0.0636
     29 H           2.0933   -2.4809   -1.7567 H       1  UNL1        0.0618
     30 H           4.4649   -1.7641   -1.4368 H       1  UNL1        0.0626
     31 H           6.4586    1.6697    1.0604 H       1  UNL1        0.2954
     32 H           3.0746    1.5969    0.8436 H       1  UNL1        0.0644
     33 H          -2.8983   -1.8211    1.6833 H       1  UNL1        0.0723
@<TRIPOS>UNITY_ATOM_ATTR
18 1
charge 1
20 1
charge -1
@<TRIPOS>BOND
     1     1     2    1
     2     2     3    1
     3     3     4   ar
     4     4     5   ar
     5     5     6   ar
     6     6     7    1
     7     7     8    1
     8     8     9   ar
     9     9    10   ar
    10    10    11   ar
    11    11    12   ar
    12    12    13    1
    13    13    14    2
    14    13    15    1
    15    12    16   ar
    16     6    17   ar
    17    17    18    1
    18    18    19    2
    19    18    20    1
    20    17    21   ar
    21    21     3   ar
    22    16     8   ar
    23     1    22    1
    24     1    23    1
    25     1    24    1
    26     4    25    1
    27     5    26    1
    28     7    27    1
    29     9    28    1
    30    10    29    1
    31    11    30    1
    32    15    31    1
    33    16    32    1
    34    21    33    1
