
     RDKit          3D

 33 34  0  0  0  0  0  0  0  0999 V2000
   -5.8038    0.3205   -0.1855 C   0  0  0  0  0  0  0  0  0  0  0  0
   -4.8695   -0.4946    0.4908 O   0  0  0  0  0  0  0  0  0  0  0  0
   -3.5214   -0.1110    0.5345 C   0  0  0  0  0  0  0  0  0  0  0  0
   -3.1024    1.0500   -0.0750 C   0  0  0  0  0  0  0  0  0  0  0  0
   -1.7675    1.4207   -0.0264 C   0  0  0  0  0  0  0  0  0  0  0  0
   -0.8376    0.6400    0.6289 C   0  0  0  0  0  0  0  0  0  0  0  0
    0.5035    1.0575    0.6554 N   0  0  0  0  0  0  0  0  0  0  0  0
    1.5569    0.2981    0.0905 C   0  0  0  0  0  0  0  0  0  0  0  0
    1.3104   -0.8497   -0.6434 C   0  0  0  0  0  0  0  0  0  0  0  0
    2.3356   -1.5870   -1.1885 C   0  0  0  0  0  0  0  0  0  0  0  0
    3.6494   -1.2026   -1.0194 C   0  0  0  0  0  0  0  0  0  0  0  0
    3.9120   -0.0456   -0.2808 C   0  0  0  0  0  0  0  0  0  0  0  0
    5.2889    0.3849   -0.0856 C   0  0  0  0  0  0  0  0  0  0  0  0
    6.2193   -0.2764   -0.5735 O   0  0  0  0  0  0  0  0  0  0  0  0
    5.5566    1.5214    0.6376 O   0  0  0  0  0  0  0  0  0  0  0  0
    2.8762    0.6843    0.2602 C   0  0  0  0  0  0  0  0  0  0  0  0
   -1.2457   -0.5244    1.2433 C   0  0  0  0  0  0  0  0  0  0  0  0
   -0.3596   -1.3802    1.9456 N   0  0  0  0  0  4  0  0  0  0  0  0
   -0.6156   -2.5938    2.0331 O   0  0  0  0  0  0  0  0  0  0  0  0
    0.7786   -0.9152    2.5366 O   0  0  0  0  0  1  0  0  0  0  0  0
   -2.5952   -0.8935    1.1904 C   0  0  0  0  0  0  0  0  0  0  0  0
   -5.9712    1.2828    0.3318 H   0  0  0  0  0  0  0  0  0  0  0  0
   -6.7232   -0.2812   -0.3133 H   0  0  0  0  0  0  0  0  0  0  0  0
   -5.4020    0.4756   -1.2286 H   0  0  0  0  0  0  0  0  0  0  0  0
   -3.8551    1.6407   -0.5809 H   0  0  0  0  0  0  0  0  0  0  0  0
   -1.5100    2.3441   -0.5263 H   0  0  0  0  0  0  0  0  0  0  0  0
    0.7380    1.9624    1.1080 H   0  0  0  0  0  0  0  0  0  0  0  0
    0.2612   -1.1283   -0.7622 H   0  0  0  0  0  0  0  0  0  0  0  0
    2.0933   -2.4809   -1.7567 H   0  0  0  0  0  0  0  0  0  0  0  0
    4.4649   -1.7641   -1.4368 H   0  0  0  0  0  0  0  0  0  0  0  0
    6.4586    1.6697    1.0604 H   0  0  0  0  0  0  0  0  0  0  0  0
    3.0746    1.5969    0.8436 H   0  0  0  0  0  0  0  0  0  0  0  0
   -2.8983   -1.8211    1.6833 H   0  0  0  0  0  0  0  0  0  0  0  0
  1  2  1  0
  2  3  1  0
  3  4  2  0
  4  5  1  0
  5  6  2  0
  6  7  1  0
  7  8  1  0
  8  9  2  0
  9 10  1  0
 10 11  2  0
 11 12  1  0
 12 13  1  0
 13 14  2  0
 13 15  1  0
 12 16  2  0
  6 17  1  0
 17 18  1  0
 18 19  2  0
 18 20  1  0
 17 21  2  0
 21  3  1  0
 16  8  1  0
  1 22  1  0
  1 23  1  0
  1 24  1  0
  4 25  1  0
  5 26  1  0
  7 27  1  0
  9 28  1  0
 10 29  1  0
 11 30  1  0
 15 31  1  0
 16 32  1  0
 21 33  1  0
M  CHG  2  18   1  20  -1
M  END
$$$$
