@<TRIPOS>MOLECULE
*****
 39 41 0 0 0
SMALL
GASTEIGER

@<TRIPOS>ATOM
      1 CL          4.8550   -1.0606    3.0021 Cl      1  UNL1       -0.0835
      2 C           3.2714   -0.3677    2.8600 C.ar    1  UNL1        0.0424
      3 C           3.1019    0.9284    2.4294 C.ar    1  UNL1       -0.0247
      4 C           1.8723    1.5250    2.2960 C.ar    1  UNL1        0.0488
      5 CL          1.6322    3.1728    1.7767 Cl      1  UNL1       -0.0831
      6 C           0.7275    0.8385    2.5936 C.ar    1  UNL1        0.0106
      7 C          -0.7130    1.2623    2.4945 C.3     1  UNL1        0.1443
      8 O          -1.1156    1.1939    1.1074 O.2     1  UNL1       -0.3887
      9 N          -0.9676   -0.0710    0.5133 N.2     1  UNL1       -0.0868
     10 C          -1.3745   -0.1710   -0.7379 C.2     1  UNL1        0.1081
     11 C          -1.9025    1.0212   -1.2756 C.3     1  UNL1        0.0700
     12 N          -1.0570    1.9495   -1.9711 N.ar    1  UNL1       -0.3309
     13 C          -0.4460    3.0041   -1.3434 C.ar    1  UNL1        0.0244
     14 C           0.3207    3.7715   -2.1966 C.ar    1  UNL1        0.0454
     15 N           0.2002    3.2028   -3.3900 N.ar    1  UNL1       -0.2441
     16 C          -0.6221    2.1258   -3.2310 C.ar    1  UNL1        0.0962
     17 C          -0.9018   -1.4690   -0.5367 C.ar    1  UNL1        0.0196
     18 C          -0.4528   -2.7022   -0.3459 C.ar    1  UNL1       -0.0499
     19 C          -0.2596   -3.9554   -0.7924 C.ar    1  UNL1       -0.0427
     20 C          -0.7457   -4.0947   -2.0703 C.ar    1  UNL1        0.0424
     21 CL         -0.4302   -5.7683   -2.5480 Cl      1  UNL1       -0.0835
     22 C          -1.3375   -2.9709   -2.6879 C.ar    1  UNL1       -0.0244
     23 C          -1.3940   -1.7462   -1.9305 C.ar    1  UNL1        0.0514
     24 CL         -2.2317   -0.9446   -3.3150 Cl      1  UNL1       -0.0828
     25 C           0.8722   -0.4832    3.0348 C.ar    1  UNL1       -0.0525
     26 C           2.1390   -1.0737    3.1641 C.ar    1  UNL1       -0.0429
     27 H           3.9627    1.5561    2.1610 H       1  UNL1        0.0647
     28 H          -0.8013    2.3323    2.7656 H       1  UNL1        0.0775
     29 H          -1.3643    0.6273    3.1100 H       1  UNL1        0.0775
     30 H          -2.4073    1.5944   -0.4099 H       1  UNL1        0.0558
     31 H          -2.8432    0.8050   -1.8920 H       1  UNL1        0.0558
     32 H          -0.4494    3.3695   -0.3088 H       1  UNL1        0.0825
     33 H           0.9295    4.6532   -2.0698 H       1  UNL1        0.0845
     34 H          -0.8727    1.5038   -4.0726 H       1  UNL1        0.1029
     35 H          -0.1394   -2.3316    0.6823 H       1  UNL1        0.0625
     36 H           0.2298   -4.5290   -0.0262 H       1  UNL1        0.0632
     37 H          -1.5756   -3.4840   -3.6456 H       1  UNL1        0.0647
     38 H           0.0280   -1.1270    3.3050 H       1  UNL1        0.0622
     39 H           2.2625   -2.0874    3.5012 H       1  UNL1        0.0632
@<TRIPOS>BOND
     1     1     2    1
     2     2     3   ar
     3     3     4   ar
     4     4     5    1
     5     4     6   ar
     6     6     7    1
     7     7     8    1
     8     8     9    1
     9     9    10    2
    10    10    11    1
    11    11    12    1
    12    12    13   ar
    13    13    14   ar
    14    14    15   ar
    15    15    16   ar
    16    10    17    1
    17    17    18   ar
    18    18    19   ar
    19    19    20   ar
    20    20    21    1
    21    20    22   ar
    22    22    23   ar
    23    23    24    1
    24     6    25   ar
    25    25    26   ar
    26    26     2   ar
    27    16    12   ar
    28    23    17   ar
    29     3    27    1
    30     7    28    1
    31     7    29    1
    32    11    30    1
    33    11    31    1
    34    13    32    1
    35    14    33    1
    36    16    34    1
    37    18    35    1
    38    19    36    1
    39    22    37    1
    40    25    38    1
    41    26    39    1
