@<TRIPOS>MOLECULE
*****
 49 50 0 0 0
SMALL
GASTEIGER

@<TRIPOS>ATOM
      1 C           5.5726   -0.9022    1.0423 C.3     1  UNL1       -0.0473
      2 C           4.9214    0.1661    0.2305 C.3     1  UNL1        0.0108
      3 C           5.2420   -0.0528   -1.2235 C.3     1  UNL1       -0.0473
      4 C           5.4638    1.5031    0.7095 C.3     1  UNL1       -0.0473
      5 N           3.4799    0.2268    0.4382 N.3     1  UNL1       -0.3088
      6 C           2.8214   -0.9839    0.0938 C.3     1  UNL1        0.0256
      7 C           1.3453   -0.8808    0.3675 C.3     1  UNL1        0.1015
      8 O           1.1516   -0.6063    1.7342 O.3     1  UNL1       -0.3872
      9 C           0.7060    0.1863   -0.4517 C.3     1  UNL1        0.1166
     10 O          -0.6607    0.2363   -0.2297 O.3     1  UNL1       -0.4891
     11 C          -1.6419   -0.6549   -0.4452 C.ar    1  UNL1        0.1241
     12 C          -1.7634   -1.9205   -0.9532 C.ar    1  UNL1       -0.0196
     13 C          -2.9095   -2.6401   -1.0725 C.ar    1  UNL1       -0.0580
     14 C          -4.0889   -2.0693   -0.6499 C.ar    1  UNL1       -0.0580
     15 C          -4.0735   -0.7967   -0.1230 C.ar    1  UNL1       -0.0381
     16 C          -2.8576   -0.1084   -0.0273 C.ar    1  UNL1        0.0001
     17 C          -3.0894    1.2521    0.5760 C.3     1  UNL1        0.0046
     18 C          -4.2094    1.9946   -0.0758 C.3     1  UNL1        0.0854
     19 O          -4.6305    3.0034    0.8096 O.3     1  UNL1       -0.3889
     20 C          -5.4091    1.1717   -0.4129 C.3     1  UNL1        0.0853
     21 O          -6.5985    1.7893   -0.1077 O.3     1  UNL1       -0.3889
     22 C          -5.3580   -0.1562    0.3414 C.3     1  UNL1        0.0013
     23 H           5.5667   -0.7431    2.1274 H       1  UNL1        0.0247
     24 H           5.2198   -1.9184    0.7577 H       1  UNL1        0.0247
     25 H           6.6620   -0.8933    0.7549 H       1  UNL1        0.0247
     26 H           4.3648    0.3343   -1.8003 H       1  UNL1        0.0247
     27 H           6.1679    0.4848   -1.5499 H       1  UNL1        0.0247
     28 H           5.3979   -1.1243   -1.4474 H       1  UNL1        0.0247
     29 H           6.3948    1.7249    0.1419 H       1  UNL1        0.0247
     30 H           4.6924    2.3120    0.5629 H       1  UNL1        0.0247
     31 H           5.7377    1.4155    1.7836 H       1  UNL1        0.0247
     32 H           3.0616    1.0501   -0.0007 H       1  UNL1        0.1225
     33 H           2.9833   -1.1970   -1.0022 H       1  UNL1        0.0451
     34 H           3.1858   -1.8614    0.6686 H       1  UNL1        0.0451
     35 H           0.8456   -1.8672    0.1929 H       1  UNL1        0.0640
     36 H           1.5772    0.2802    1.9107 H       1  UNL1        0.2100
     37 H           0.9392    0.0334   -1.5465 H       1  UNL1        0.0723
     38 H           1.1196    1.1949   -0.1423 H       1  UNL1        0.0723
     39 H          -0.8422   -2.3360   -1.2875 H       1  UNL1        0.0654
     40 H          -2.8469   -3.6306   -1.4938 H       1  UNL1        0.0619
     41 H          -4.9932   -2.6464   -0.7479 H       1  UNL1        0.0620
     42 H          -2.1355    1.7881    0.4729 H       1  UNL1        0.0340
     43 H          -3.3054    1.1016    1.6540 H       1  UNL1        0.0340
     44 H          -3.8715    2.5084   -1.0172 H       1  UNL1        0.0622
     45 H          -5.1396    2.5931    1.5575 H       1  UNL1        0.2099
     46 H          -5.3725    0.9031   -1.5094 H       1  UNL1        0.0622
     47 H          -7.3481    1.4864   -0.6832 H       1  UNL1        0.2099
     48 H          -6.2115   -0.7955    0.1256 H       1  UNL1        0.0339
     49 H          -5.2639    0.0444    1.4269 H       1  UNL1        0.0339
@<TRIPOS>BOND
     1     1     2    1
     2     2     3    1
     3     2     4    1
     4     2     5    1
     5     5     6    1
     6     6     7    1
     7     7     8    1
     8     7     9    1
     9     9    10    1
    10    10    11    1
    11    11    12   ar
    12    12    13   ar
    13    13    14   ar
    14    14    15   ar
    15    15    16   ar
    16    16    17    1
    17    17    18    1
    18    18    19    1
    19    18    20    1
    20    20    21    1
    21    20    22    1
    22    16    11   ar
    23    22    15    1
    24     1    23    1
    25     1    24    1
    26     1    25    1
    27     3    26    1
    28     3    27    1
    29     3    28    1
    30     4    29    1
    31     4    30    1
    32     4    31    1
    33     5    32    1
    34     6    33    1
    35     6    34    1
    36     7    35    1
    37     8    36    1
    38     9    37    1
    39     9    38    1
    40    12    39    1
    41    13    40    1
    42    14    41    1
    43    17    42    1
    44    17    43    1
    45    18    44    1
    46    19    45    1
    47    20    46    1
    48    21    47    1
    49    22    48    1
    50    22    49    1
