@<TRIPOS>MOLECULE
*****
 53 57 0 0 0
SMALL
GASTEIGER

@<TRIPOS>ATOM
      1 C          -5.7400    2.2907    0.7062 C.3     1  UNL1       -0.0391
      2 C          -5.6677    1.2916   -0.3799 C.ar    1  UNL1       -0.0412
      3 C          -6.3646    1.5641   -1.5433 C.ar    1  UNL1       -0.0582
      4 C          -6.4155    0.7572   -2.6763 C.ar    1  UNL1       -0.0615
      5 C          -5.7047   -0.4010   -2.6053 C.ar    1  UNL1       -0.0611
      6 C          -4.9877   -0.7384   -1.4808 C.ar    1  UNL1       -0.0522
      7 C          -4.9672    0.1029   -0.3702 C.ar    1  UNL1        0.0056
      8 C          -4.2348   -0.2194    0.8477 C.ar    1  UNL1        0.1012
      9 N          -4.7655   -0.3260    2.0781 N.ar    1  UNL1       -0.1486
     10 N          -4.1009   -0.6074    3.1745 N.ar    1  UNL1       -0.1565
     11 C          -2.7737   -0.8245    3.1736 C.ar    1  UNL1        0.0577
     12 C          -2.1224   -0.7415    1.9719 C.ar    1  UNL1        0.0046
     13 C          -2.8731   -0.4410    0.8432 C.ar    1  UNL1        0.0114
     14 C          -2.1422   -0.3697   -0.3230 C.ar    1  UNL1       -0.0513
     15 C          -0.7835   -0.5654   -0.4488 C.ar    1  UNL1       -0.0534
     16 C          -0.0727   -0.8663    0.7210 C.ar    1  UNL1       -0.0170
     17 C          -0.7599   -0.9530    1.9407 C.ar    1  UNL1       -0.0447
     18 C           1.3464   -1.0844    0.7569 C.ar    1  UNL1       -0.0142
     19 C           1.9747   -2.1390    1.3869 C.ar    1  UNL1       -0.0427
     20 C           1.1372   -3.1654    2.0703 C.3     1  UNL1       -0.0391
     21 C           3.3528   -2.2559    1.3829 C.ar    1  UNL1       -0.0575
     22 C           4.0684   -1.2714    0.7209 C.ar    1  UNL1       -0.0494
     23 C           3.4946   -0.1959    0.0741 C.ar    1  UNL1        0.0373
     24 C           2.1174   -0.1201    0.1039 C.ar    1  UNL1       -0.0417
     25 C           4.2549    0.8390   -0.6131 C.2     1  UNL1        0.2443
     26 O           3.6427    1.7533   -1.2565 O.2     1  UNL1       -0.2702
     27 N           5.6707    0.9058   -0.6174 N.am    1  UNL1       -0.3085
     28 C           6.4844    1.9018   -1.2797 C.3     1  UNL1        0.0235
     29 C           7.8812    1.5365   -1.7325 C.3     1  UNL1       -0.0328
     30 C           7.6646    2.3437   -0.4828 C.3     1  UNL1       -0.0328
     31 H          -5.5313    1.8717    1.6971 H       1  UNL1        0.0278
     32 H          -5.0028    3.1135    0.4616 H       1  UNL1        0.0278
     33 H          -6.7380    2.7794    0.7544 H       1  UNL1        0.0278
     34 H          -6.9403    2.4915   -1.6162 H       1  UNL1        0.0620
     35 H          -6.9847    1.0516   -3.5357 H       1  UNL1        0.0618
     36 H          -5.7207   -1.0656   -3.4838 H       1  UNL1        0.0618
     37 H          -4.4365   -1.6723   -1.4622 H       1  UNL1        0.0624
     38 H          -2.2326   -1.0568    4.0875 H       1  UNL1        0.0854
     39 H          -2.6209   -0.1418   -1.2435 H       1  UNL1        0.0624
     40 H          -0.2523   -0.5027   -1.3670 H       1  UNL1        0.0624
     41 H          -0.2517   -1.1801    2.8591 H       1  UNL1        0.0630
     42 H           1.5375   -4.2071    1.8731 H       1  UNL1        0.0278
     43 H           0.1077   -3.2198    1.6617 H       1  UNL1        0.0278
     44 H           1.1947   -3.0724    3.1687 H       1  UNL1        0.0278
     45 H           3.8689   -3.0679    1.8669 H       1  UNL1        0.0621
     46 H           5.1444   -1.3770    0.7263 H       1  UNL1        0.0625
     47 H           1.6608    0.7191   -0.4011 H       1  UNL1        0.0631
     48 H           6.1889    0.1593   -0.0885 H       1  UNL1        0.1493
     49 H           5.9788    2.6525   -1.9306 H       1  UNL1        0.0498
     50 H           8.3215    1.9855   -2.6314 H       1  UNL1        0.0284
     51 H           8.2215    0.4759   -1.5582 H       1  UNL1        0.0284
     52 H           7.8750    1.8692    0.4776 H       1  UNL1        0.0284
     53 H           7.9983    3.3940   -0.5284 H       1  UNL1        0.0284
@<TRIPOS>BOND
     1     1     2    1
     2     2     3   ar
     3     3     4   ar
     4     4     5   ar
     5     5     6   ar
     6     6     7   ar
     7     7     8    1
     8     8     9   ar
     9     9    10   ar
    10    10    11   ar
    11    11    12   ar
    12    12    13   ar
    13    13    14   ar
    14    14    15   ar
    15    15    16   ar
    16    16    17   ar
    17    16    18    1
    18    18    19   ar
    19    19    20    1
    20    19    21   ar
    21    21    22   ar
    22    22    23   ar
    23    23    24   ar
    24    23    25    1
    25    25    26    2
    26    25    27   am
    27    27    28    1
    28    28    29    1
    29    29    30    1
    30     7     2   ar
    31    13     8   ar
    32    24    18   ar
    33    30    28    1
    34    17    12   ar
    35     1    31    1
    36     1    32    1
    37     1    33    1
    38     3    34    1
    39     4    35    1
    40     5    36    1
    41     6    37    1
    42    11    38    1
    43    14    39    1
    44    15    40    1
    45    17    41    1
    46    20    42    1
    47    20    43    1
    48    20    44    1
    49    21    45    1
    50    22    46    1
    51    24    47    1
    52    27    48    1
    53    28    49    1
    54    29    50    1
    55    29    51    1
    56    30    52    1
    57    30    53    1
