
     RDKit          3D

 53 57  0  0  0  0  0  0  0  0999 V2000
   -5.7400    2.2907    0.7062 C   0  0  0  0  0  0  0  0  0  0  0  0
   -5.6677    1.2916   -0.3799 C   0  0  0  0  0  0  0  0  0  0  0  0
   -6.3646    1.5641   -1.5433 C   0  0  0  0  0  0  0  0  0  0  0  0
   -6.4155    0.7572   -2.6763 C   0  0  0  0  0  0  0  0  0  0  0  0
   -5.7047   -0.4010   -2.6053 C   0  0  0  0  0  0  0  0  0  0  0  0
   -4.9877   -0.7384   -1.4808 C   0  0  0  0  0  0  0  0  0  0  0  0
   -4.9672    0.1029   -0.3702 C   0  0  0  0  0  0  0  0  0  0  0  0
   -4.2348   -0.2194    0.8477 C   0  0  0  0  0  0  0  0  0  0  0  0
   -4.7655   -0.3260    2.0781 N   0  0  0  0  0  0  0  0  0  0  0  0
   -4.1009   -0.6074    3.1745 N   0  0  0  0  0  0  0  0  0  0  0  0
   -2.7737   -0.8245    3.1736 C   0  0  0  0  0  0  0  0  0  0  0  0
   -2.1224   -0.7415    1.9719 C   0  0  0  0  0  0  0  0  0  0  0  0
   -2.8731   -0.4410    0.8432 C   0  0  0  0  0  0  0  0  0  0  0  0
   -2.1422   -0.3697   -0.3230 C   0  0  0  0  0  0  0  0  0  0  0  0
   -0.7835   -0.5654   -0.4488 C   0  0  0  0  0  0  0  0  0  0  0  0
   -0.0727   -0.8663    0.7210 C   0  0  0  0  0  0  0  0  0  0  0  0
   -0.7599   -0.9530    1.9407 C   0  0  0  0  0  0  0  0  0  0  0  0
    1.3464   -1.0844    0.7569 C   0  0  0  0  0  0  0  0  0  0  0  0
    1.9747   -2.1390    1.3869 C   0  0  0  0  0  0  0  0  0  0  0  0
    1.1372   -3.1654    2.0703 C   0  0  0  0  0  0  0  0  0  0  0  0
    3.3528   -2.2559    1.3829 C   0  0  0  0  0  0  0  0  0  0  0  0
    4.0684   -1.2714    0.7209 C   0  0  0  0  0  0  0  0  0  0  0  0
    3.4946   -0.1959    0.0741 C   0  0  0  0  0  0  0  0  0  0  0  0
    2.1174   -0.1201    0.1039 C   0  0  0  0  0  0  0  0  0  0  0  0
    4.2549    0.8390   -0.6131 C   0  0  0  0  0  0  0  0  0  0  0  0
    3.6427    1.7533   -1.2565 O   0  0  0  0  0  0  0  0  0  0  0  0
    5.6707    0.9058   -0.6174 N   0  0  0  0  0  0  0  0  0  0  0  0
    6.4844    1.9018   -1.2797 C   0  0  0  0  0  0  0  0  0  0  0  0
    7.8812    1.5365   -1.7325 C   0  0  0  0  0  0  0  0  0  0  0  0
    7.6646    2.3437   -0.4828 C   0  0  0  0  0  0  0  0  0  0  0  0
   -5.5313    1.8717    1.6971 H   0  0  0  0  0  0  0  0  0  0  0  0
   -5.0028    3.1135    0.4616 H   0  0  0  0  0  0  0  0  0  0  0  0
   -6.7380    2.7794    0.7544 H   0  0  0  0  0  0  0  0  0  0  0  0
   -6.9403    2.4915   -1.6162 H   0  0  0  0  0  0  0  0  0  0  0  0
   -6.9847    1.0516   -3.5357 H   0  0  0  0  0  0  0  0  0  0  0  0
   -5.7207   -1.0656   -3.4838 H   0  0  0  0  0  0  0  0  0  0  0  0
   -4.4365   -1.6723   -1.4622 H   0  0  0  0  0  0  0  0  0  0  0  0
   -2.2326   -1.0568    4.0875 H   0  0  0  0  0  0  0  0  0  0  0  0
   -2.6209   -0.1418   -1.2435 H   0  0  0  0  0  0  0  0  0  0  0  0
   -0.2523   -0.5027   -1.3670 H   0  0  0  0  0  0  0  0  0  0  0  0
   -0.2517   -1.1801    2.8591 H   0  0  0  0  0  0  0  0  0  0  0  0
    1.5375   -4.2071    1.8731 H   0  0  0  0  0  0  0  0  0  0  0  0
    0.1077   -3.2198    1.6617 H   0  0  0  0  0  0  0  0  0  0  0  0
    1.1947   -3.0724    3.1687 H   0  0  0  0  0  0  0  0  0  0  0  0
    3.8689   -3.0679    1.8669 H   0  0  0  0  0  0  0  0  0  0  0  0
    5.1444   -1.3770    0.7263 H   0  0  0  0  0  0  0  0  0  0  0  0
    1.6608    0.7191   -0.4011 H   0  0  0  0  0  0  0  0  0  0  0  0
    6.1889    0.1593   -0.0885 H   0  0  0  0  0  0  0  0  0  0  0  0
    5.9788    2.6525   -1.9306 H   0  0  0  0  0  0  0  0  0  0  0  0
    8.3215    1.9855   -2.6314 H   0  0  0  0  0  0  0  0  0  0  0  0
    8.2215    0.4759   -1.5582 H   0  0  0  0  0  0  0  0  0  0  0  0
    7.8750    1.8692    0.4776 H   0  0  0  0  0  0  0  0  0  0  0  0
    7.9983    3.3940   -0.5284 H   0  0  0  0  0  0  0  0  0  0  0  0
  1  2  1  0
  2  3  2  0
  3  4  1  0
  4  5  2  0
  5  6  1  0
  6  7  2  0
  7  8  1  0
  8  9  2  0
  9 10  1  0
 10 11  2  0
 11 12  1  0
 12 13  2  0
 13 14  1  0
 14 15  2  0
 15 16  1  0
 16 17  2  0
 16 18  1  0
 18 19  2  0
 19 20  1  0
 19 21  1  0
 21 22  2  0
 22 23  1  0
 23 24  2  0
 23 25  1  0
 25 26  2  0
 25 27  1  0
 27 28  1  0
 28 29  1  0
 29 30  1  0
  7  2  1  0
 13  8  1  0
 24 18  1  0
 30 28  1  0
 17 12  1  0
  1 31  1  0
  1 32  1  0
  1 33  1  0
  3 34  1  0
  4 35  1  0
  5 36  1  0
  6 37  1  0
 11 38  1  0
 14 39  1  0
 15 40  1  0
 17 41  1  0
 20 42  1  0
 20 43  1  0
 20 44  1  0
 21 45  1  0
 22 46  1  0
 24 47  1  0
 27 48  1  0
 28 49  1  0
 29 50  1  0
 29 51  1  0
 30 52  1  0
 30 53  1  0
M  END
$$$$
