@<TRIPOS>MOLECULE
*****
 48 51 0 0 0
SMALL
GASTEIGER

@<TRIPOS>ATOM
      1 C          -5.2156   -2.5509    0.3416 C.3     1  UNL1        0.0788
      2 O          -4.6399   -1.3262    0.0169 O.3     1  UNL1       -0.4945
      3 C          -4.9945   -0.0758    0.4631 C.ar    1  UNL1        0.1278
      4 C          -5.9516    0.4146    1.3141 C.ar    1  UNL1       -0.0193
      5 C          -6.0641    1.7608    1.5689 C.ar    1  UNL1       -0.0583
      6 C          -5.2107    2.6524    0.9697 C.ar    1  UNL1       -0.0610
      7 C          -4.2180    2.1974    0.0920 C.ar    1  UNL1       -0.0505
      8 C          -4.1148    0.8228   -0.1591 C.ar    1  UNL1        0.0258
      9 C          -3.0671    0.5244   -1.1237 C.ar    1  UNL1        0.0122
     10 C          -3.5173    0.5851   -2.4506 C.ar    1  UNL1        0.0120
     11 N          -2.4792    0.2957   -3.2497 N.ar    1  UNL1       -0.3452
     12 C          -1.3961    0.0555   -2.4912 C.ar    1  UNL1        0.1387
     13 C          -1.7417    0.1929   -1.1641 C.ar    1  UNL1        0.0270
     14 C          -0.9298    0.0444   -0.0767 C.ar    1  UNL1       -0.0413
     15 C           0.3761   -0.2773   -0.3851 C.ar    1  UNL1        0.0024
     16 C           0.7254   -0.4168   -1.7286 C.ar    1  UNL1        0.0377
     17 N          -0.1159   -0.2594   -2.7394 N.ar    1  UNL1       -0.2369
     18 C           1.4145   -0.4572    0.6108 C.ar    1  UNL1        0.0024
     19 C           2.7005   -0.0784    0.2131 C.ar    1  UNL1       -0.0389
     20 C           3.8716   -0.1422    0.9808 C.ar    1  UNL1        0.0555
     21 C           3.7443   -0.6288    2.2582 C.ar    1  UNL1        0.0397
     22 N           2.5156   -0.9999    2.6618 N.ar    1  UNL1       -0.2619
     23 C           1.4233   -0.9243    1.9030 C.ar    1  UNL1        0.0353
     24 C           5.1040    0.2978    0.3933 C.2     1  UNL1        0.2476
     25 O           4.8146    1.5578    0.3922 O.2     1  UNL1       -0.2699
     26 N           6.3554   -0.0618   -0.1238 N.am    1  UNL1       -0.3036
     27 C           6.9085   -1.4245   -0.2157 C.3     1  UNL1        0.0031
     28 C           7.2098    1.0020   -0.6318 C.3     1  UNL1        0.0031
     29 H          -6.2511   -2.6787    0.0275 H       1  UNL1        0.0660
     30 H          -5.1793   -2.6198    1.4730 H       1  UNL1        0.0660
     31 H          -4.5604   -3.3624   -0.0564 H       1  UNL1        0.0660
     32 H          -6.5414   -0.4198    1.7011 H       1  UNL1        0.0654
     33 H          -6.8673    2.0096    2.2566 H       1  UNL1        0.0619
     34 H          -5.3543    3.7064    1.2134 H       1  UNL1        0.0618
     35 H          -3.6256    2.9997   -0.3051 H       1  UNL1        0.0625
     36 H          -4.4630    0.8020   -2.9604 H       1  UNL1        0.0814
     37 H          -2.3943    0.2370   -4.2911 H       1  UNL1        0.1668
     38 H          -1.2705    0.1637    0.9291 H       1  UNL1        0.0631
     39 H           1.7253   -0.6768   -2.1116 H       1  UNL1        0.0836
     40 H           2.8570    0.3141   -0.7955 H       1  UNL1        0.0632
     41 H           4.6060   -0.6953    2.8814 H       1  UNL1        0.0837
     42 H           0.4194   -1.2246    2.2209 H       1  UNL1        0.0836
     43 H           7.0744   -1.5909   -1.3127 H       1  UNL1        0.0428
     44 H           7.9324   -1.4325    0.2333 H       1  UNL1        0.0428
     45 H           6.2329   -2.1799    0.1701 H       1  UNL1        0.0428
     46 H           6.6370    1.4288   -1.5068 H       1  UNL1        0.0428
     47 H           8.1493    0.6292   -1.0248 H       1  UNL1        0.0428
     48 H           7.3662    1.8103    0.1222 H       1  UNL1        0.0428
@<TRIPOS>BOND
     1     1     2    1
     2     2     3    1
     3     3     4   ar
     4     4     5   ar
     5     5     6   ar
     6     6     7   ar
     7     7     8   ar
     8     8     9    1
     9     9    10   ar
    10    10    11   ar
    11    11    12   ar
    12    12    13   ar
    13    13    14   ar
    14    14    15   ar
    15    15    16   ar
    16    16    17   ar
    17    15    18    1
    18    18    19   ar
    19    19    20   ar
    20    20    21   ar
    21    21    22   ar
    22    22    23   ar
    23    20    24    1
    24    24    25    2
    25    24    26   am
    26    26    27    1
    27    26    28    1
    28     8     3   ar
    29    13     9   ar
    30    23    18   ar
    31    17    12   ar
    32     1    29    1
    33     1    30    1
    34     1    31    1
    35     4    32    1
    36     5    33    1
    37     6    34    1
    38     7    35    1
    39    10    36    1
    40    11    37    1
    41    14    38    1
    42    16    39    1
    43    19    40    1
    44    21    41    1
    45    23    42    1
    46    27    43    1
    47    27    44    1
    48    27    45    1
    49    28    46    1
    50    28    47    1
    51    28    48    1
