
     RDKit          3D

 48 51  0  0  0  0  0  0  0  0999 V2000
   -5.2156   -2.5509    0.3416 C   0  0  0  0  0  0  0  0  0  0  0  0
   -4.6399   -1.3262    0.0169 O   0  0  0  0  0  0  0  0  0  0  0  0
   -4.9945   -0.0758    0.4631 C   0  0  0  0  0  0  0  0  0  0  0  0
   -5.9516    0.4146    1.3141 C   0  0  0  0  0  0  0  0  0  0  0  0
   -6.0641    1.7608    1.5689 C   0  0  0  0  0  0  0  0  0  0  0  0
   -5.2107    2.6524    0.9697 C   0  0  0  0  0  0  0  0  0  0  0  0
   -4.2180    2.1974    0.0920 C   0  0  0  0  0  0  0  0  0  0  0  0
   -4.1148    0.8228   -0.1591 C   0  0  0  0  0  0  0  0  0  0  0  0
   -3.0671    0.5244   -1.1237 C   0  0  0  0  0  0  0  0  0  0  0  0
   -3.5173    0.5851   -2.4506 C   0  0  0  0  0  0  0  0  0  0  0  0
   -2.4792    0.2957   -3.2497 N   0  0  0  0  0  0  0  0  0  0  0  0
   -1.3961    0.0555   -2.4912 C   0  0  0  0  0  0  0  0  0  0  0  0
   -1.7417    0.1929   -1.1641 C   0  0  0  0  0  0  0  0  0  0  0  0
   -0.9298    0.0444   -0.0767 C   0  0  0  0  0  0  0  0  0  0  0  0
    0.3761   -0.2773   -0.3851 C   0  0  0  0  0  0  0  0  0  0  0  0
    0.7254   -0.4168   -1.7286 C   0  0  0  0  0  0  0  0  0  0  0  0
   -0.1159   -0.2594   -2.7394 N   0  0  0  0  0  0  0  0  0  0  0  0
    1.4145   -0.4572    0.6108 C   0  0  0  0  0  0  0  0  0  0  0  0
    2.7005   -0.0784    0.2131 C   0  0  0  0  0  0  0  0  0  0  0  0
    3.8716   -0.1422    0.9808 C   0  0  0  0  0  0  0  0  0  0  0  0
    3.7443   -0.6288    2.2582 C   0  0  0  0  0  0  0  0  0  0  0  0
    2.5156   -0.9999    2.6618 N   0  0  0  0  0  0  0  0  0  0  0  0
    1.4233   -0.9243    1.9030 C   0  0  0  0  0  0  0  0  0  0  0  0
    5.1040    0.2978    0.3933 C   0  0  0  0  0  0  0  0  0  0  0  0
    4.8146    1.5578    0.3922 O   0  0  0  0  0  0  0  0  0  0  0  0
    6.3554   -0.0618   -0.1238 N   0  0  0  0  0  0  0  0  0  0  0  0
    6.9085   -1.4245   -0.2157 C   0  0  0  0  0  0  0  0  0  0  0  0
    7.2098    1.0020   -0.6318 C   0  0  0  0  0  0  0  0  0  0  0  0
   -6.2511   -2.6787    0.0275 H   0  0  0  0  0  0  0  0  0  0  0  0
   -5.1793   -2.6198    1.4730 H   0  0  0  0  0  0  0  0  0  0  0  0
   -4.5604   -3.3624   -0.0564 H   0  0  0  0  0  0  0  0  0  0  0  0
   -6.5414   -0.4198    1.7011 H   0  0  0  0  0  0  0  0  0  0  0  0
   -6.8673    2.0096    2.2566 H   0  0  0  0  0  0  0  0  0  0  0  0
   -5.3543    3.7064    1.2134 H   0  0  0  0  0  0  0  0  0  0  0  0
   -3.6256    2.9997   -0.3051 H   0  0  0  0  0  0  0  0  0  0  0  0
   -4.4630    0.8020   -2.9604 H   0  0  0  0  0  0  0  0  0  0  0  0
   -2.3943    0.2370   -4.2911 H   0  0  0  0  0  0  0  0  0  0  0  0
   -1.2705    0.1637    0.9291 H   0  0  0  0  0  0  0  0  0  0  0  0
    1.7253   -0.6768   -2.1116 H   0  0  0  0  0  0  0  0  0  0  0  0
    2.8570    0.3141   -0.7955 H   0  0  0  0  0  0  0  0  0  0  0  0
    4.6060   -0.6953    2.8814 H   0  0  0  0  0  0  0  0  0  0  0  0
    0.4194   -1.2246    2.2209 H   0  0  0  0  0  0  0  0  0  0  0  0
    7.0744   -1.5909   -1.3127 H   0  0  0  0  0  0  0  0  0  0  0  0
    7.9324   -1.4325    0.2333 H   0  0  0  0  0  0  0  0  0  0  0  0
    6.2329   -2.1799    0.1701 H   0  0  0  0  0  0  0  0  0  0  0  0
    6.6370    1.4288   -1.5068 H   0  0  0  0  0  0  0  0  0  0  0  0
    8.1493    0.6292   -1.0248 H   0  0  0  0  0  0  0  0  0  0  0  0
    7.3662    1.8103    0.1222 H   0  0  0  0  0  0  0  0  0  0  0  0
  1  2  1  0
  2  3  1  0
  3  4  2  0
  4  5  1  0
  5  6  2  0
  6  7  1  0
  7  8  2  0
  8  9  1  0
  9 10  2  0
 10 11  1  0
 11 12  1  0
 12 13  2  0
 13 14  1  0
 14 15  2  0
 15 16  1  0
 16 17  2  0
 15 18  1  0
 18 19  2  0
 19 20  1  0
 20 21  2  0
 21 22  1  0
 22 23  2  0
 20 24  1  0
 24 25  2  0
 24 26  1  0
 26 27  1  0
 26 28  1  0
  8  3  1  0
 13  9  1  0
 23 18  1  0
 17 12  1  0
  1 29  1  0
  1 30  1  0
  1 31  1  0
  4 32  1  0
  5 33  1  0
  6 34  1  0
  7 35  1  0
 10 36  1  0
 11 37  1  0
 14 38  1  0
 16 39  1  0
 19 40  1  0
 21 41  1  0
 23 42  1  0
 27 43  1  0
 27 44  1  0
 27 45  1  0
 28 46  1  0
 28 47  1  0
 28 48  1  0
M  END
$$$$
