@<TRIPOS>MOLECULE
*****
 37 40 0 0 0
SMALL
GASTEIGER

@<TRIPOS>ATOM
      1 O          -3.7834    3.0718    0.1033 O.2     1  UNL1       -0.2651
      2 C          -2.6479    2.6691   -0.2473 C.ar    1  UNL1        0.2815
      3 N          -1.7017    3.5600   -0.5284 N.ar    1  UNL1       -0.1970
      4 C          -0.4844    3.1418   -0.9042 C.ar    1  UNL1        0.1220
      5 N          -0.1599    1.8412   -1.0152 N.ar    1  UNL1       -0.2198
      6 N           1.0695    1.4784   -1.3942 N.ar    1  UNL1       -0.1584
      7 C           1.4110    0.1718   -1.5105 C.ar    1  UNL1        0.1225
      8 S           3.0199   -0.3622   -2.0069 S.3     1  UNL1       -0.0653
      9 C           4.0946   -0.5701   -0.5733 C.ar    1  UNL1        0.0495
     10 C           5.4008   -0.9822   -0.7212 C.ar    1  UNL1       -0.0425
     11 C           6.2617   -1.1545    0.3590 C.ar    1  UNL1       -0.0252
     12 C           5.7975   -0.9053    1.6300 C.ar    1  UNL1        0.1262
     13 F           6.6298   -1.0713    2.6808 F       1  UNL1       -0.2054
     14 C           4.5001   -0.4943    1.7975 C.ar    1  UNL1        0.0099
     15 C           3.6528   -0.3268    0.7099 C.ar    1  UNL1        0.1398
     16 F           2.3709    0.0786    0.8655 F       1  UNL1       -0.2042
     17 C           0.4473   -0.7861   -1.2246 C.ar    1  UNL1       -0.0257
     18 C          -0.8224   -0.4097   -0.8332 C.ar    1  UNL1       -0.0329
     19 C          -1.1105    0.9370   -0.7329 C.ar    1  UNL1        0.0802
     20 C          -2.3893    1.3392   -0.3385 C.ar    1  UNL1        0.0765
     21 C          -3.3408    0.2935   -0.0571 C.ar    1  UNL1        0.0260
     22 C          -4.1428   -0.1945   -1.0634 C.ar    1  UNL1        0.0503
     23 CL         -4.0003    0.4579   -2.6721 Cl      1  UNL1       -0.0829
     24 C          -5.0692   -1.2003   -0.8284 C.ar    1  UNL1       -0.0427
     25 C          -5.1692   -1.7048    0.4482 C.ar    1  UNL1       -0.0590
     26 C          -4.3774   -1.2396    1.4937 C.ar    1  UNL1       -0.0427
     27 C          -3.4615   -0.2288    1.2096 C.ar    1  UNL1        0.0503
     28 CL         -2.4647    0.3586    2.5207 Cl      1  UNL1       -0.0829
     29 H           0.2518    3.9227   -1.1221 H       1  UNL1        0.1049
     30 H           5.7563   -1.1750   -1.7178 H       1  UNL1        0.0630
     31 H           7.2893   -1.4804    0.2222 H       1  UNL1        0.0646
     32 H           4.0991   -0.2879    2.7908 H       1  UNL1        0.0675
     33 H           0.7126   -1.8289   -1.3152 H       1  UNL1        0.0645
     34 H          -1.5552   -1.1739   -0.6162 H       1  UNL1        0.0640
     35 H          -5.6982   -1.5863   -1.6072 H       1  UNL1        0.0632
     36 H          -5.8852   -2.4885    0.6496 H       1  UNL1        0.0618
     37 H          -4.5009   -1.6703    2.4624 H       1  UNL1        0.0632
@<TRIPOS>BOND
     1     1     2    2
     2     2     3   ar
     3     3     4   ar
     4     4     5   ar
     5     5     6   ar
     6     6     7   ar
     7     7     8    1
     8     8     9    1
     9     9    10   ar
    10    10    11   ar
    11    11    12   ar
    12    12    13    1
    13    12    14   ar
    14    14    15   ar
    15    15    16    1
    16     7    17   ar
    17    17    18   ar
    18    18    19   ar
    19    19    20   ar
    20    20    21    1
    21    21    22   ar
    22    22    23    1
    23    22    24   ar
    24    24    25   ar
    25    25    26   ar
    26    26    27   ar
    27    27    28    1
    28    20     2   ar
    29    27    21   ar
    30    19     5   ar
    31    15     9   ar
    32     4    29    1
    33    10    30    1
    34    11    31    1
    35    14    32    1
    36    17    33    1
    37    18    34    1
    38    24    35    1
    39    25    36    1
    40    26    37    1
