
     RDKit          3D

 70 71  0  0  0  0  0  0  0  0999 V2000
   -2.1892   -1.2369   -2.8357 C   0  0  0  0  0  0  0  0  0  0  0  0
   -2.7992    0.1265   -2.9887 C   0  0  0  0  0  0  0  0  0  0  0  0
   -2.2949    0.7949   -4.2483 C   0  0  0  0  0  0  0  0  0  0  0  0
   -4.3198    0.0099   -3.0860 C   0  0  0  0  0  0  0  0  0  0  0  0
   -2.5275    0.9966   -1.7547 C   0  0  1  0  0  0  0  0  0  0  0  0
   -3.0971    0.3508   -0.6245 N   0  0  0  0  0  0  0  0  0  0  0  0
   -4.2123    0.8920    0.0813 C   0  0  0  0  0  0  0  0  0  0  0  0
   -4.6643    1.9948   -0.3698 O   0  0  0  0  0  0  0  0  0  0  0  0
   -4.8159    0.2600    1.2350 C   0  0  0  0  0  0  0  0  0  0  0  0
   -5.8891    0.8652    1.8434 C   0  0  0  0  0  0  0  0  0  0  0  0
   -6.5098    0.3195    2.9427 C   0  0  0  0  0  0  0  0  0  0  0  0
   -6.0785   -0.8708    3.4885 C   0  0  0  0  0  0  0  0  0  0  0  0
   -6.7134   -1.4461    4.6272 N   0  0  0  0  0  0  0  0  0  0  0  0
   -4.9942   -1.4934    2.8832 C   0  0  0  0  0  0  0  0  0  0  0  0
   -4.4078   -3.0081    3.5388 Cl  0  0  0  0  0  0  0  0  0  0  0  0
   -4.3870   -0.9230    1.7773 C   0  0  0  0  0  0  0  0  0  0  0  0
   -1.1121    1.3675   -1.6727 C   0  0  0  0  0  0  0  0  0  0  0  0
   -0.5914    1.9163   -2.7277 O   0  0  0  0  0  0  0  0  0  0  0  0
   -0.2328    1.2046   -0.5877 N   0  0  0  0  0  0  0  0  0  0  0  0
   -0.5412    0.6555    0.6927 C   0  0  0  0  0  0  0  0  0  0  0  0
    0.4817    1.2405    1.6203 C   0  0  0  0  0  0  0  0  0  0  0  0
    1.3339    2.1675    0.7908 C   0  0  0  0  0  0  0  0  0  0  0  0
    1.1610    1.5617   -0.5998 C   0  0  1  0  0  0  0  0  0  0  0  0
    2.0600    0.3804   -0.6705 C   0  0  0  0  0  0  0  0  0  0  0  0
    1.6693   -0.8006   -0.7129 O   0  0  0  0  0  0  0  0  0  0  0  0
    3.4590    0.6428   -0.6901 N   0  0  0  0  0  0  0  0  0  0  0  0
    4.4286   -0.4618   -0.7591 C   0  0  2  0  0  0  0  0  0  0  0  0
    5.2946   -0.3806    0.4552 C   0  0  0  0  0  0  0  0  0  0  0  0
    5.2498   -1.3379    1.3739 C   0  0  0  0  0  0  0  0  0  0  0  0
    6.2815   -1.2052    2.7835 S   0  0  0  0  0  6  0  0  0  0  0  0
    6.3385   -2.7219    3.6931 C   0  0  0  0  0  0  0  0  0  0  0  0
    7.6955   -0.8617    2.3625 O   0  0  0  0  0  0  0  0  0  0  0  0
    5.8304   -0.1148    3.7075 O   0  0  0  0  0  0  0  0  0  0  0  0
    5.2931   -0.2197   -1.9781 C   0  0  0  0  0  0  0  0  0  0  0  0
    6.3103   -1.2661   -2.1565 C   0  0  0  0  0  0  0  0  0  0  0  0
    6.3639   -2.2091   -1.3295 O   0  0  0  0  0  0  0  0  0  0  0  0
    7.2201   -1.2653   -3.1985 O   0  0  0  0  0  0  0  0  0  0  0  0
   -1.2924   -1.2232   -2.1920 H   0  0  0  0  0  0  0  0  0  0  0  0
   -2.9262   -2.0066   -2.5009 H   0  0  0  0  0  0  0  0  0  0  0  0
   -1.8519   -1.5675   -3.8414 H   0  0  0  0  0  0  0  0  0  0  0  0
   -2.8943    0.3981   -5.1179 H   0  0  0  0  0  0  0  0  0  0  0  0
   -2.3914    1.8930   -4.2239 H   0  0  0  0  0  0  0  0  0  0  0  0
   -1.2449    0.4960   -4.4655 H   0  0  0  0  0  0  0  0  0  0  0  0
   -4.6116   -0.4623   -4.0553 H   0  0  0  0  0  0  0  0  0  0  0  0
   -4.7562    1.0323   -3.1118 H   0  0  0  0  0  0  0  0  0  0  0  0
   -4.7391   -0.5222   -2.2194 H   0  0  0  0  0  0  0  0  0  0  0  0
   -3.0946    1.9512   -1.9864 H   0  0  0  0  0  0  0  0  0  0  0  0
   -2.7103   -0.5524   -0.2891 H   0  0  0  0  0  0  0  0  0  0  0  0
   -6.2527    1.8079    1.4338 H   0  0  0  0  0  0  0  0  0  0  0  0
   -7.3642    0.8029    3.4256 H   0  0  0  0  0  0  0  0  0  0  0  0
   -6.5406   -2.4303    4.8796 H   0  0  0  0  0  0  0  0  0  0  0  0
   -7.3480   -0.8659    5.1961 H   0  0  0  0  0  0  0  0  0  0  0  0
   -3.5443   -1.4419    1.3361 H   0  0  0  0  0  0  0  0  0  0  0  0
   -0.5462   -0.4552    0.7092 H   0  0  0  0  0  0  0  0  0  0  0  0
   -1.5361    0.9663    1.0801 H   0  0  0  0  0  0  0  0  0  0  0  0
    1.0746    0.4523    2.1246 H   0  0  0  0  0  0  0  0  0  0  0  0
    0.0189    1.8509    2.4200 H   0  0  0  0  0  0  0  0  0  0  0  0
    2.3665    2.0907    1.1466 H   0  0  0  0  0  0  0  0  0  0  0  0
    1.0056    3.2107    0.8335 H   0  0  0  0  0  0  0  0  0  0  0  0
    1.4134    2.3102   -1.3734 H   0  0  0  0  0  0  0  0  0  0  0  0
    3.8137    1.6237   -0.6557 H   0  0  0  0  0  0  0  0  0  0  0  0
    3.9326   -1.4307   -0.7877 H   0  0  0  0  0  0  0  0  0  0  0  0
    5.9736    0.4750    0.5918 H   0  0  0  0  0  0  0  0  0  0  0  0
    4.5681   -2.1634    1.2024 H   0  0  0  0  0  0  0  0  0  0  0  0
    6.7469   -3.5528    3.0613 H   0  0  0  0  0  0  0  0  0  0  0  0
    5.3198   -2.9845    4.0494 H   0  0  0  0  0  0  0  0  0  0  0  0
    7.0392   -2.5659    4.5409 H   0  0  0  0  0  0  0  0  0  0  0  0
    5.7534    0.7955   -1.8772 H   0  0  0  0  0  0  0  0  0  0  0  0
    4.6224   -0.1318   -2.8824 H   0  0  0  0  0  0  0  0  0  0  0  0
    7.9027   -2.0067   -3.3570 H   0  0  0  0  0  0  0  0  0  0  0  0
  1  2  1  0
  2  3  1  0
  2  4  1  0
  2  5  1  0
  5  6  1  0
  6  7  1  0
  7  8  2  0
  7  9  1  0
  9 10  2  0
 10 11  1  0
 11 12  2  0
 12 13  1  0
 12 14  1  0
 14 15  1  0
 14 16  2  0
  5 17  1  0
 17 18  2  0
 17 19  1  0
 19 20  1  0
 20 21  1  0
 21 22  1  0
 22 23  1  0
 23 24  1  0
 24 25  2  0
 24 26  1  0
 26 27  1  0
 27 28  1  0
 28 29  2  0
 29 30  1  0
 30 31  1  0
 30 32  2  0
 30 33  2  0
 27 34  1  0
 34 35  1  0
 35 36  2  0
 35 37  1  0
 16  9  1  0
 23 19  1  0
  1 38  1  0
  1 39  1  0
  1 40  1  0
  3 41  1  0
  3 42  1  0
  3 43  1  0
  4 44  1  0
  4 45  1  0
  4 46  1  0
  5 47  1  6
  6 48  1  0
 10 49  1  0
 11 50  1  0
 13 51  1  0
 13 52  1  0
 16 53  1  0
 20 54  1  0
 20 55  1  0
 21 56  1  0
 21 57  1  0
 22 58  1  0
 22 59  1  0
 23 60  1  6
 26 61  1  0
 27 62  1  6
 28 63  1  0
 29 64  1  0
 31 65  1  0
 31 66  1  0
 31 67  1  0
 34 68  1  0
 34 69  1  0
 37 70  1  0
M  END
$$$$
