@<TRIPOS>MOLECULE
*****
 70 71 0 0 0
SMALL
GASTEIGER

@<TRIPOS>ATOM
      1 C          -2.1892   -1.2369   -2.8357 C.3     1  UNL1       -0.0579
      2 C          -2.7992    0.1265   -2.9887 C.3     1  UNL1       -0.0108
      3 C          -2.2949    0.7949   -4.2483 C.3     1  UNL1       -0.0579
      4 C          -4.3198    0.0099   -3.0860 C.3     1  UNL1       -0.0579
      5 C          -2.5275    0.9966   -1.7547 C.3     1  UNL1        0.1047
      6 N          -3.0971    0.3508   -0.6245 N.am    1  UNL1       -0.2995
      7 C          -4.2123    0.8920    0.0813 C.2     1  UNL1        0.2447
      8 O          -4.6643    1.9948   -0.3698 O.2     1  UNL1       -0.2702
      9 C          -4.8159    0.2600    1.2350 C.ar    1  UNL1        0.0382
     10 C          -5.8891    0.8652    1.8434 C.ar    1  UNL1       -0.0478
     11 C          -6.5098    0.3195    2.9427 C.ar    1  UNL1       -0.0389
     12 C          -6.0785   -0.8708    3.4885 C.ar    1  UNL1        0.0431
     13 N          -6.7134   -1.4461    4.6272 N.pl3   1  UNL1       -0.3568
     14 C          -4.9942   -1.4934    2.8832 C.ar    1  UNL1        0.0623
     15 CL         -4.4078   -3.0081    3.5388 Cl      1  UNL1       -0.0816
     16 C          -4.3870   -0.9230    1.7773 C.ar    1  UNL1       -0.0295
     17 C          -1.1121    1.3675   -1.6727 C.2     1  UNL1        0.2370
     18 O          -0.5914    1.9163   -2.7277 O.2     1  UNL1       -0.2735
     19 N          -0.2328    1.2046   -0.5877 N.am    1  UNL1       -0.2884
     20 C          -0.5412    0.6555    0.6927 C.3     1  UNL1        0.0156
     21 C           0.4817    1.2405    1.6203 C.3     1  UNL1       -0.0350
     22 C           1.3339    2.1675    0.7908 C.3     1  UNL1       -0.0243
     23 C           1.1610    1.5617   -0.5998 C.3     1  UNL1        0.1023
     24 C           2.0600    0.3804   -0.6705 C.2     1  UNL1        0.2340
     25 O           1.6693   -0.8006   -0.7129 O.2     1  UNL1       -0.2738
     26 N           3.4590    0.6428   -0.6901 N.am    1  UNL1       -0.3070
     27 C           4.4286   -0.4618   -0.7591 C.3     1  UNL1        0.0531
     28 C           5.2946   -0.3806    0.4552 C.2     1  UNL1       -0.0459
     29 C           5.2498   -1.3379    1.3739 C.2     1  UNL1        0.0495
     30 S           6.2815   -1.2052    2.7835 S.O2    1  UNL1       -0.0127
     31 C           6.3385   -2.7219    3.6931 C.3     1  UNL1        0.0589
     32 O           7.6955   -0.8617    2.3625 O.2     1  UNL1       -0.1702
     33 O           5.8304   -0.1148    3.7075 O.2     1  UNL1       -0.1702
     34 C           5.2931   -0.2197   -1.9781 C.3     1  UNL1        0.0667
     35 C           6.3103   -1.2661   -2.1565 C.2     1  UNL1        0.3068
     36 O           6.3639   -2.2091   -1.3295 O.2     1  UNL1       -0.2509
     37 O           7.2201   -1.2653   -3.1985 O.3     1  UNL1       -0.4806
     38 H          -1.2924   -1.2232   -2.1920 H       1  UNL1        0.0236
     39 H          -2.9262   -2.0066   -2.5009 H       1  UNL1        0.0236
     40 H          -1.8519   -1.5675   -3.8414 H       1  UNL1        0.0236
     41 H          -2.8943    0.3981   -5.1179 H       1  UNL1        0.0236
     42 H          -2.3914    1.8930   -4.2239 H       1  UNL1        0.0236
     43 H          -1.2449    0.4960   -4.4655 H       1  UNL1        0.0236
     44 H          -4.6116   -0.4623   -4.0553 H       1  UNL1        0.0236
     45 H          -4.7562    1.0323   -3.1118 H       1  UNL1        0.0236
     46 H          -4.7391   -0.5222   -2.2194 H       1  UNL1        0.0236
     47 H          -3.0946    1.9512   -1.9864 H       1  UNL1        0.0600
     48 H          -2.7103   -0.5524   -0.2891 H       1  UNL1        0.1498
     49 H          -6.2527    1.8079    1.4338 H       1  UNL1        0.0626
     50 H          -7.3642    0.8029    3.4256 H       1  UNL1        0.0637
     51 H          -6.5406   -2.4303    4.8796 H       1  UNL1        0.1424
     52 H          -7.3480   -0.8659    5.1961 H       1  UNL1        0.1424
     53 H          -3.5443   -1.4419    1.3361 H       1  UNL1        0.0640
     54 H          -0.5462   -0.4552    0.7092 H       1  UNL1        0.0465
     55 H          -1.5361    0.9663    1.0801 H       1  UNL1        0.0465
     56 H           1.0746    0.4523    2.1246 H       1  UNL1        0.0281
     57 H           0.0189    1.8509    2.4200 H       1  UNL1        0.0281
     58 H           2.3665    2.0907    1.1466 H       1  UNL1        0.0288
     59 H           1.0056    3.2107    0.8335 H       1  UNL1        0.0288
     60 H           1.4134    2.3102   -1.3734 H       1  UNL1        0.0597
     61 H           3.8137    1.6237   -0.6557 H       1  UNL1        0.1493
     62 H           3.9326   -1.4307   -0.7877 H       1  UNL1        0.0548
     63 H           5.9736    0.4750    0.5918 H       1  UNL1        0.0603
     64 H           4.5681   -2.1634    1.2024 H       1  UNL1        0.0816
     65 H           6.7469   -3.5528    3.0613 H       1  UNL1        0.0468
     66 H           5.3198   -2.9845    4.0494 H       1  UNL1        0.0468
     67 H           7.0392   -2.5659    4.5409 H       1  UNL1        0.0468
     68 H           5.7534    0.7955   -1.8772 H       1  UNL1        0.0399
     69 H           4.6224   -0.1318   -2.8824 H       1  UNL1        0.0399
     70 H           7.9027   -2.0067   -3.3570 H       1  UNL1        0.2951
@<TRIPOS>BOND
     1     1     2    1
     2     2     3    1
     3     2     4    1
     4     2     5    1
     5     5     6    1
     6     6     7   am
     7     7     8    2
     8     7     9    1
     9     9    10   ar
    10    10    11   ar
    11    11    12   ar
    12    12    13    1
    13    12    14   ar
    14    14    15    1
    15    14    16   ar
    16     5    17    1
    17    17    18    2
    18    17    19   am
    19    19    20    1
    20    20    21    1
    21    21    22    1
    22    22    23    1
    23    23    24    1
    24    24    25    2
    25    24    26   am
    26    26    27    1
    27    27    28    1
    28    28    29    2
    29    29    30    1
    30    30    31    1
    31    30    32    2
    32    30    33    2
    33    27    34    1
    34    34    35    1
    35    35    36    2
    36    35    37    1
    37    16     9   ar
    38    23    19    1
    39     1    38    1
    40     1    39    1
    41     1    40    1
    42     3    41    1
    43     3    42    1
    44     3    43    1
    45     4    44    1
    46     4    45    1
    47     4    46    1
    48     5    47    1
    49     6    48    1
    50    10    49    1
    51    11    50    1
    52    13    51    1
    53    13    52    1
    54    16    53    1
    55    20    54    1
    56    20    55    1
    57    21    56    1
    58    21    57    1
    59    22    58    1
    60    22    59    1
    61    23    60    1
    62    26    61    1
    63    27    62    1
    64    28    63    1
    65    29    64    1
    66    31    65    1
    67    31    66    1
    68    31    67    1
    69    34    68    1
    70    34    69    1
    71    37    70    1
