@<TRIPOS>MOLECULE
*****
 58 62 0 0 0
SMALL
GASTEIGER

@<TRIPOS>ATOM
      1 C           4.0693   -3.1750   -1.6396 C.3     1  UNL1        0.0788
      2 O           4.4233   -1.9685   -1.0012 O.3     1  UNL1       -0.4944
      3 C           3.5621   -0.8974   -0.9157 C.ar    1  UNL1        0.1309
      4 C           2.2879   -0.9573   -1.4619 C.ar    1  UNL1       -0.0190
      5 C           1.4087    0.0893   -1.3936 C.ar    1  UNL1       -0.0550
      6 C           1.7479    1.2684   -0.7724 C.ar    1  UNL1       -0.0446
      7 C           0.8463    2.4348   -0.6893 C.3     1  UNL1       -0.0068
      8 C          -0.0798    2.4701    0.4559 C.3     1  UNL1        0.0537
      9 C           0.7275    2.4359    1.7624 C.3     1  UNL1        0.0666
     10 O          -0.1219    2.1278    2.8258 O.3     1  UNL1       -0.3764
     11 C          -0.6069    0.8587    2.8522 C.3     1  UNL1        0.0635
     12 C          -0.7245    0.3060    1.4348 C.3     1  UNL1        0.0388
     13 N          -1.0419    1.4202    0.5900 N.am    1  UNL1       -0.2897
     14 C          -2.2902    1.4970   -0.0446 C.2     1  UNL1        0.2491
     15 O          -2.6403    2.4391   -0.8040 O.2     1  UNL1       -0.2699
     16 C          -3.2847    0.4453    0.1628 C.ar    1  UNL1        0.0640
     17 C          -4.0832    0.4745    1.3000 C.ar    1  UNL1       -0.0473
     18 C          -4.9763   -0.5517    1.4794 C.ar    1  UNL1       -0.0580
     19 C          -5.0911   -1.5836    0.5740 C.ar    1  UNL1       -0.0483
     20 C          -6.0921   -2.6435    0.8698 C.3     1  UNL1       -0.0396
     21 C          -4.3047   -1.6102   -0.5451 C.ar    1  UNL1       -0.0309
     22 C          -3.3888   -0.5686   -0.7418 C.ar    1  UNL1        0.0985
     23 N          -2.6095   -0.5981   -1.9396 N.ar    1  UNL1       -0.1496
     24 N          -2.3824    0.4026   -2.7671 N.ar    1  UNL1       -0.1556
     25 C          -1.6282    0.0116   -3.8120 C.ar    1  UNL1        0.0697
     26 C          -1.3807   -1.3258   -3.5994 C.ar    1  UNL1        0.0697
     27 N          -1.9944   -1.6534   -2.4524 N.ar    1  UNL1       -0.1556
     28 C           3.0324    1.3318   -0.2210 C.ar    1  UNL1       -0.0442
     29 C           3.9141    0.2776   -0.2910 C.ar    1  UNL1        0.0643
     30 C           5.2631    0.3700    0.2992 C.ar    1  UNL1        0.2053
     31 N           5.7769    1.4230    0.9402 N.ar    1  UNL1       -0.1941
     32 C           7.0307    1.1236    1.3312 C.ar    1  UNL1        0.2147
     33 O           7.2562   -0.1057    0.9208 O.2     1  UNL1       -0.3411
     34 N           6.2127   -0.5791    0.2999 N.ar    1  UNL1       -0.0563
     35 H           5.0109   -3.7390   -1.8823 H       1  UNL1        0.0660
     36 H           3.4117   -3.8078   -0.9993 H       1  UNL1        0.0660
     37 H           3.5553   -3.0160   -2.6126 H       1  UNL1        0.0660
     38 H           1.9810   -1.8744   -1.9627 H       1  UNL1        0.0654
     39 H           0.4331    0.0021   -1.8244 H       1  UNL1        0.0621
     40 H           0.3142    2.5885   -1.6756 H       1  UNL1        0.0332
     41 H           1.5200    3.3427   -0.6008 H       1  UNL1        0.0332
     42 H          -0.5998    3.4865    0.5169 H       1  UNL1        0.0526
     43 H           1.5610    1.7316    1.6976 H       1  UNL1        0.0578
     44 H           1.1249    3.4500    1.9107 H       1  UNL1        0.0578
     45 H          -1.6608    0.9050    3.2548 H       1  UNL1        0.0575
     46 H          -0.0471    0.1612    3.5041 H       1  UNL1        0.0575
     47 H           0.2228   -0.2157    1.1628 H       1  UNL1        0.0487
     48 H          -1.5729   -0.4486    1.4522 H       1  UNL1        0.0487
     49 H          -3.9619    1.3002    1.9836 H       1  UNL1        0.0626
     50 H          -5.6121   -0.5347    2.3784 H       1  UNL1        0.0620
     51 H          -6.4201   -3.1934   -0.0212 H       1  UNL1        0.0278
     52 H          -5.7414   -3.3013    1.6970 H       1  UNL1        0.0278
     53 H          -6.9940   -2.1190    1.2814 H       1  UNL1        0.0278
     54 H          -4.3785   -2.4093   -1.2673 H       1  UNL1        0.0642
     55 H          -1.2798    0.6131   -4.6541 H       1  UNL1        0.0864
     56 H          -0.7969   -1.9385   -4.2659 H       1  UNL1        0.0864
     57 H           3.3768    2.2435    0.2837 H       1  UNL1        0.0628
     58 H           7.7167    1.7838    1.8821 H       1  UNL1        0.1283
@<TRIPOS>BOND
     1     1     2    1
     2     2     3    1
     3     3     4   ar
     4     4     5   ar
     5     5     6   ar
     6     6     7    1
     7     7     8    1
     8     8     9    1
     9     9    10    1
    10    10    11    1
    11    11    12    1
    12    12    13    1
    13    13    14   am
    14    14    15    2
    15    14    16    1
    16    16    17   ar
    17    17    18   ar
    18    18    19   ar
    19    19    20    1
    20    19    21   ar
    21    21    22   ar
    22    22    23    1
    23    23    24   ar
    24    24    25   ar
    25    25    26   ar
    26    26    27   ar
    27     6    28   ar
    28    28    29   ar
    29    29    30    1
    30    30    31   ar
    31    31    32   ar
    32    32    33   ar
    33    33    34   ar
    34    29     3   ar
    35    34    30   ar
    36    13     8    1
    37    22    16   ar
    38    27    23   ar
    39     1    35    1
    40     1    36    1
    41     1    37    1
    42     4    38    1
    43     5    39    1
    44     7    40    1
    45     7    41    1
    46     8    42    1
    47     9    43    1
    48     9    44    1
    49    11    45    1
    50    11    46    1
    51    12    47    1
    52    12    48    1
    53    17    49    1
    54    18    50    1
    55    20    51    1
    56    20    52    1
    57    20    53    1
    58    21    54    1
    59    25    55    1
    60    26    56    1
    61    28    57    1
    62    32    58    1
