
     RDKit          3D

 34 35  0  0  0  0  0  0  0  0999 V2000
   -1.2458   -1.7444    0.1152 S   0  0  0  0  0  0  0  0  0  0  0  0
   -1.9195   -0.2930    0.4839 C   0  0  0  0  0  0  0  0  0  0  0  0
   -1.0256    0.9819    1.3497 S   0  0  0  0  0  0  0  0  0  0  0  0
    0.9221    0.2452    1.7475 S   0  0  0  0  0  0  0  0  0  0  0  0
    1.9680    0.6829    0.3748 C   0  0  0  0  0  0  0  0  0  0  0  0
    1.3291    1.5113   -0.8729 S   0  0  0  0  0  0  0  0  0  0  0  0
    3.3340    0.3460    0.3117 N   0  0  0  0  0  0  0  0  0  0  0  0
    4.1257    0.7245   -0.8173 C   0  0  0  0  0  0  0  0  0  0  0  0
    5.0344   -0.3872   -1.2571 C   0  0  0  0  0  0  0  0  0  0  0  0
    5.5490   -1.1348   -0.2278 O   0  0  0  0  0  0  0  0  0  0  0  0
    5.4105   -0.5781    1.0207 C   0  0  0  0  0  0  0  0  0  0  0  0
    3.9428   -0.3842    1.3875 C   0  0  0  0  0  0  0  0  0  0  0  0
   -3.2557   -0.0333    0.1065 N   0  0  0  0  0  0  0  0  0  0  0  0
   -4.0749   -1.0071   -0.6046 C   0  0  0  0  0  0  0  0  0  0  0  0
   -5.3646   -1.1535    0.1403 C   0  0  0  0  0  0  0  0  0  0  0  0
   -5.9346    0.0298    0.5350 O   0  0  0  0  0  0  0  0  0  0  0  0
   -5.3175    1.1469   -0.0196 C   0  0  0  0  0  0  0  0  0  0  0  0
   -3.8716    1.2354    0.4191 C   0  0  0  0  0  0  0  0  0  0  0  0
    4.7527    1.6071   -0.4970 H   0  0  0  0  0  0  0  0  0  0  0  0
    3.5121    1.0297   -1.6978 H   0  0  0  0  0  0  0  0  0  0  0  0
    4.4638   -1.0165   -1.9765 H   0  0  0  0  0  0  0  0  0  0  0  0
    5.8699    0.0731   -1.8222 H   0  0  0  0  0  0  0  0  0  0  0  0
    5.9647    0.3909    1.0845 H   0  0  0  0  0  0  0  0  0  0  0  0
    5.8305   -1.2932    1.7572 H   0  0  0  0  0  0  0  0  0  0  0  0
    3.9324    0.1637    2.3505 H   0  0  0  0  0  0  0  0  0  0  0  0
    3.5065   -1.4063    1.4906 H   0  0  0  0  0  0  0  0  0  0  0  0
   -4.2197   -0.7014   -1.6612 H   0  0  0  0  0  0  0  0  0  0  0  0
   -3.5432   -1.9931   -0.5359 H   0  0  0  0  0  0  0  0  0  0  0  0
   -5.2091   -1.8520    0.9961 H   0  0  0  0  0  0  0  0  0  0  0  0
   -6.0883   -1.6805   -0.5406 H   0  0  0  0  0  0  0  0  0  0  0  0
   -5.8849    2.0654    0.1266 H   0  0  0  0  0  0  0  0  0  0  0  0
   -5.2855    0.9676   -1.1302 H   0  0  0  0  0  0  0  0  0  0  0  0
   -3.4004    2.0814   -0.1310 H   0  0  0  0  0  0  0  0  0  0  0  0
   -3.8072    1.3758    1.5302 H   0  0  0  0  0  0  0  0  0  0  0  0
  1  2  2  0
  2  3  1  0
  3  4  1  0
  4  5  1  0
  5  6  2  0
  5  7  1  0
  7  8  1  0
  8  9  1  0
  9 10  1  0
 10 11  1  0
 11 12  1  0
  2 13  1  0
 13 14  1  0
 14 15  1  0
 15 16  1  0
 16 17  1  0
 17 18  1  0
 12  7  1  0
 18 13  1  0
  8 19  1  0
  8 20  1  0
  9 21  1  0
  9 22  1  0
 11 23  1  0
 11 24  1  0
 12 25  1  0
 12 26  1  0
 14 27  1  0
 14 28  1  0
 15 29  1  0
 15 30  1  0
 17 31  1  0
 17 32  1  0
 18 33  1  0
 18 34  1  0
M  END
$$$$
