@<TRIPOS>MOLECULE
*****
 34 35 0 0 0
SMALL
GASTEIGER

@<TRIPOS>ATOM
      1 S          -1.2458   -1.7444    0.1152 S.2     1  UNL1       -0.0271
      2 C          -1.9195   -0.2930    0.4839 C.2     1  UNL1        0.1201
      3 S          -1.0256    0.9819    1.3497 S.3     1  UNL1       -0.0271
      4 S           0.9221    0.2452    1.7475 S.3     1  UNL1       -0.0271
      5 C           1.9680    0.6829    0.3748 C.2     1  UNL1        0.1201
      6 S           1.3291    1.5113   -0.8729 S.2     1  UNL1       -0.0271
      7 N           3.3340    0.3460    0.3117 N.am    1  UNL1       -0.3140
      8 C           4.1257    0.7245   -0.8173 C.3     1  UNL1        0.0366
      9 C           5.0344   -0.3872   -1.2571 C.3     1  UNL1        0.0634
     10 O           5.5490   -1.1348   -0.2278 O.3     1  UNL1       -0.3767
     11 C           5.4105   -0.5781    1.0207 C.3     1  UNL1        0.0634
     12 C           3.9428   -0.3842    1.3875 C.3     1  UNL1        0.0366
     13 N          -3.2557   -0.0333    0.1065 N.am    1  UNL1       -0.3140
     14 C          -4.0749   -1.0071   -0.6046 C.3     1  UNL1        0.0366
     15 C          -5.3646   -1.1535    0.1403 C.3     1  UNL1        0.0634
     16 O          -5.9346    0.0298    0.5350 O.3     1  UNL1       -0.3767
     17 C          -5.3175    1.1469   -0.0196 C.3     1  UNL1        0.0634
     18 C          -3.8716    1.2354    0.4191 C.3     1  UNL1        0.0366
     19 H           4.7527    1.6071   -0.4970 H       1  UNL1        0.0487
     20 H           3.5121    1.0297   -1.6978 H       1  UNL1        0.0487
     21 H           4.4638   -1.0165   -1.9765 H       1  UNL1        0.0575
     22 H           5.8699    0.0731   -1.8222 H       1  UNL1        0.0575
     23 H           5.9647    0.3909    1.0845 H       1  UNL1        0.0575
     24 H           5.8305   -1.2932    1.7572 H       1  UNL1        0.0575
     25 H           3.9324    0.1637    2.3505 H       1  UNL1        0.0487
     26 H           3.5065   -1.4063    1.4906 H       1  UNL1        0.0487
     27 H          -4.2197   -0.7014   -1.6612 H       1  UNL1        0.0487
     28 H          -3.5432   -1.9931   -0.5359 H       1  UNL1        0.0487
     29 H          -5.2091   -1.8520    0.9961 H       1  UNL1        0.0575
     30 H          -6.0883   -1.6805   -0.5406 H       1  UNL1        0.0575
     31 H          -5.8849    2.0654    0.1266 H       1  UNL1        0.0575
     32 H          -5.2855    0.9676   -1.1302 H       1  UNL1        0.0575
     33 H          -3.4004    2.0814   -0.1310 H       1  UNL1        0.0487
     34 H          -3.8072    1.3758    1.5302 H       1  UNL1        0.0487
@<TRIPOS>BOND
     1     1     2    2
     2     2     3    1
     3     3     4    1
     4     4     5    1
     5     5     6    2
     6     5     7    1
     7     7     8    1
     8     8     9    1
     9     9    10    1
    10    10    11    1
    11    11    12    1
    12     2    13    1
    13    13    14    1
    14    14    15    1
    15    15    16    1
    16    16    17    1
    17    17    18    1
    18    12     7    1
    19    18    13    1
    20     8    19    1
    21     8    20    1
    22     9    21    1
    23     9    22    1
    24    11    23    1
    25    11    24    1
    26    12    25    1
    27    12    26    1
    28    14    27    1
    29    14    28    1
    30    15    29    1
    31    15    30    1
    32    17    31    1
    33    17    32    1
    34    18    33    1
    35    18    34    1
