@<TRIPOS>MOLECULE
*****
 62 66 0 0 0
SMALL
GASTEIGER

@<TRIPOS>ATOM
      1 O           2.3346   -0.2996   -0.4649 O.2     1  UNL1       -0.2741
      2 C           2.5336   -1.4588   -0.0001 C.2     1  UNL1        0.2304
      3 C           3.8850   -2.0432    0.1755 C.3     1  UNL1        0.0870
      4 N           4.8868   -1.0848   -0.2636 N.pl3   1  UNL1       -0.3199
      5 C           5.0077    0.1913    0.3370 C.ar    1  UNL1        0.1301
      6 N           4.1673    0.4922    1.3278 N.ar    1  UNL1       -0.2203
      7 C           4.2450    1.6882    1.9259 C.ar    1  UNL1        0.1187
      8 N           5.1592    2.5983    1.5452 N.ar    1  UNL1       -0.2353
      9 C           6.0393    2.3603    0.5510 C.ar    1  UNL1        0.0760
     10 C           6.9693    3.3073    0.1756 C.ar    1  UNL1       -0.0350
     11 C           7.8268    2.9775   -0.8483 C.ar    1  UNL1       -0.0481
     12 C           7.7969    1.7730   -1.4976 C.ar    1  UNL1        0.0556
     13 C           8.7481    1.4657   -2.6005 C.3     1  UNL1        0.4174
     14 F           9.8473    2.2921   -2.4746 F       1  UNL1       -0.1659
     15 F           8.1588    1.6744   -3.8339 F       1  UNL1       -0.1659
     16 F           9.1797    0.1675   -2.4401 F       1  UNL1       -0.1659
     17 C           6.8432    0.8406   -1.0910 C.ar    1  UNL1       -0.0376
     18 C           5.9432    1.1056   -0.0621 C.ar    1  UNL1        0.0406
     19 N           1.3911   -2.2097    0.3608 N.am    1  UNL1       -0.3087
     20 C           0.0528   -1.6769    0.2056 C.3     1  UNL1        0.0486
     21 C          -0.8555   -1.9052    1.3881 C.3     1  UNL1        0.0189
     22 N          -1.9316   -2.1444    0.4719 N.3     1  UNL1       -0.2958
     23 C          -2.6530   -1.0009   -0.0001 C.3     1  UNL1        0.0106
     24 C          -3.7355   -1.4902   -0.9490 C.3     1  UNL1       -0.0368
     25 C          -5.1150   -1.2808   -0.3564 C.3     1  UNL1       -0.0447
     26 C          -5.3511    0.2122   -0.3077 C.3     1  UNL1       -0.0143
     27 C          -6.6423    0.5568    0.3054 C.ar    1  UNL1       -0.0262
     28 C          -7.6014    1.2305   -0.4209 C.ar    1  UNL1       -0.0554
     29 C          -8.8331    1.5726    0.1261 C.ar    1  UNL1       -0.0433
     30 C          -9.0927    1.2235    1.4332 C.ar    1  UNL1        0.0276
     31 N          -8.1585    0.5721    2.1271 N.ar    1  UNL1       -0.2630
     32 C          -6.9619    0.2355    1.6078 C.ar    1  UNL1        0.0310
     33 C          -4.1951    0.8452    0.4130 C.3     1  UNL1       -0.0447
     34 C          -3.2906   -0.1852    1.0740 C.3     1  UNL1       -0.0368
     35 C          -0.9203   -2.6067   -0.4934 C.3     1  UNL1        0.0189
     36 H           3.9513   -2.9298   -0.4785 H       1  UNL1        0.0557
     37 H           4.0972   -2.3369    1.2132 H       1  UNL1        0.0557
     38 H           5.5273   -1.3427   -1.0343 H       1  UNL1        0.1480
     39 H           3.5395    1.9199    2.7460 H       1  UNL1        0.1048
     40 H           7.0238    4.2694    0.6645 H       1  UNL1        0.0639
     41 H           8.5756    3.6995   -1.1733 H       1  UNL1        0.0624
     42 H           6.8310   -0.0916   -1.6043 H       1  UNL1        0.0631
     43 H           1.4831   -3.1743    0.7511 H       1  UNL1        0.1491
     44 H          -0.0056   -0.6653   -0.2059 H       1  UNL1        0.0523
     45 H          -0.9683   -1.0799    2.0904 H       1  UNL1        0.0445
     46 H          -0.5875   -2.8326    1.9407 H       1  UNL1        0.0445
     47 H          -1.9826   -0.3380   -0.5868 H       1  UNL1        0.0462
     48 H          -3.7162   -0.9267   -1.9043 H       1  UNL1        0.0280
     49 H          -3.6388   -2.5752   -1.1588 H       1  UNL1        0.0280
     50 H          -5.1720   -1.7633    0.6280 H       1  UNL1        0.0272
     51 H          -5.8427   -1.7453   -1.0309 H       1  UNL1        0.0272
     52 H          -5.3263    0.5722   -1.3562 H       1  UNL1        0.0349
     53 H          -7.3797    1.5022   -1.4621 H       1  UNL1        0.0621
     54 H          -9.5693    2.1010   -0.4630 H       1  UNL1        0.0633
     55 H         -10.0330    1.4595    1.9219 H       1  UNL1        0.0829
     56 H          -6.2226   -0.2892    2.1829 H       1  UNL1        0.0832
     57 H          -3.5481    1.4467   -0.2678 H       1  UNL1        0.0272
     58 H          -4.5774    1.5011    1.2196 H       1  UNL1        0.0272
     59 H          -3.8089   -0.7903    1.8225 H       1  UNL1        0.0280
     60 H          -2.5246    0.4222    1.6394 H       1  UNL1        0.0280
     61 H          -0.6483   -3.6561   -0.2830 H       1  UNL1        0.0445
     62 H          -1.1548   -2.3525   -1.5347 H       1  UNL1        0.0445
@<TRIPOS>BOND
     1     1     2    2
     2     2     3    1
     3     3     4    1
     4     4     5    1
     5     5     6   ar
     6     6     7   ar
     7     7     8   ar
     8     8     9   ar
     9     9    10   ar
    10    10    11   ar
    11    11    12   ar
    12    12    13    1
    13    13    14    1
    14    13    15    1
    15    13    16    1
    16    12    17   ar
    17    17    18   ar
    18     2    19   am
    19    19    20    1
    20    20    21    1
    21    21    22    1
    22    22    23    1
    23    23    24    1
    24    24    25    1
    25    25    26    1
    26    26    27    1
    27    27    28   ar
    28    28    29   ar
    29    29    30   ar
    30    30    31   ar
    31    31    32   ar
    32    26    33    1
    33    33    34    1
    34    22    35    1
    35    18     5   ar
    36    35    20    1
    37    18     9   ar
    38    34    23    1
    39    32    27   ar
    40     3    36    1
    41     3    37    1
    42     4    38    1
    43     7    39    1
    44    10    40    1
    45    11    41    1
    46    17    42    1
    47    19    43    1
    48    20    44    1
    49    21    45    1
    50    21    46    1
    51    23    47    1
    52    24    48    1
    53    24    49    1
    54    25    50    1
    55    25    51    1
    56    26    52    1
    57    28    53    1
    58    29    54    1
    59    30    55    1
    60    32    56    1
    61    33    57    1
    62    33    58    1
    63    34    59    1
    64    34    60    1
    65    35    61    1
    66    35    62    1
