@<TRIPOS>MOLECULE
*****
 65 67 0 0 0
SMALL
GASTEIGER

@<TRIPOS>ATOM
      1 C           1.5192   -0.3688    2.2891 C.3     1  UNL1        0.1022
      2 C           1.0968   -1.1178    3.5689 C.3     1  UNL1       -0.0243
      3 C          -0.1678   -0.3062    3.8986 C.3     1  UNL1       -0.0350
      4 C          -0.3530    0.5779    2.6616 C.3     1  UNL1        0.0156
      5 N           0.2667   -0.2443    1.6017 N.am    1  UNL1       -0.2889
      6 C          -0.4442   -0.5992    0.4323 C.2     1  UNL1        0.2301
      7 O          -0.6548   -1.1222   -0.6800 O.2     1  UNL1       -0.2742
      8 C          -1.8436   -0.1484    0.2367 C.3     1  UNL1        0.0736
      9 N          -2.3128   -0.6413   -1.0271 N.3     1  UNL1       -0.3054
     10 C          -3.7174   -0.2462   -1.2563 C.3     1  UNL1        0.0081
     11 C          -3.8811    1.2086   -1.3018 C.3     1  UNL1       -0.0375
     12 C          -4.6948    1.8527   -0.2427 C.3     1  UNL1       -0.0516
     13 C          -6.1532    2.0011   -0.6015 C.3     1  UNL1       -0.0530
     14 C          -6.7128    0.8954   -1.4289 C.3     1  UNL1       -0.0531
     15 C          -6.9566   -0.2864   -0.5220 C.3     1  UNL1       -0.0530
     16 C          -5.9199   -1.3512   -0.7919 C.3     1  UNL1       -0.0516
     17 C          -4.5469   -0.9960   -0.2600 C.3     1  UNL1       -0.0375
     18 C           2.5703   -1.1055    1.5780 C.2     1  UNL1        0.2338
     19 O           3.5194   -1.1687    2.4404 O.2     1  UNL1       -0.2738
     20 N           2.7868   -1.7010    0.3212 N.am    1  UNL1       -0.3097
     21 C           3.9653   -2.3923   -0.1408 C.3     1  UNL1        0.0369
     22 C           4.9945   -1.3830   -0.4802 C.ar    1  UNL1       -0.0303
     23 C           5.9765   -0.8797    0.3433 C.ar    1  UNL1       -0.0563
     24 C           6.9061    0.0666   -0.0269 C.ar    1  UNL1       -0.0466
     25 C           6.8554    0.5503   -1.3176 C.ar    1  UNL1        0.0647
     26 C           5.8955    0.0861   -2.1915 C.ar    1  UNL1       -0.0466
     27 C           4.9737   -0.8693   -1.7823 C.ar    1  UNL1       -0.0563
     28 C           7.8661    1.5645   -1.6834 C.2     1  UNL1        0.3081
     29 N           7.8289    2.6336   -2.5991 N.pl3   1  UNL1       -0.2466
     30 N           9.0348    1.5405   -1.1002 N.2     1  UNL1       -0.0994
     31 H           1.8889    0.6355    2.6385 H       1  UNL1        0.0597
     32 H           0.7839   -2.1374    3.3193 H       1  UNL1        0.0288
     33 H           1.8649   -1.0320    4.3516 H       1  UNL1        0.0288
     34 H          -1.0354   -0.9379    4.1030 H       1  UNL1        0.0281
     35 H           0.1095    0.3557    4.7428 H       1  UNL1        0.0281
     36 H          -1.3998    0.8025    2.4695 H       1  UNL1        0.0465
     37 H           0.2622    1.4929    2.7324 H       1  UNL1        0.0465
     38 H          -1.9286    0.9542    0.2883 H       1  UNL1        0.0520
     39 H          -2.5247   -0.6119    1.0108 H       1  UNL1        0.0520
     40 H          -1.7866   -0.1309   -1.8038 H       1  UNL1        0.1226
     41 H          -3.9586   -0.6818   -2.2584 H       1  UNL1        0.0460
     42 H          -2.8796    1.6996   -1.3370 H       1  UNL1        0.0280
     43 H          -4.3449    1.5397   -2.2819 H       1  UNL1        0.0280
     44 H          -4.3474    2.9285   -0.1598 H       1  UNL1        0.0266
     45 H          -4.5302    1.4727    0.7807 H       1  UNL1        0.0266
     46 H          -6.7303    2.0478    0.3425 H       1  UNL1        0.0265
     47 H          -6.3734    2.9606   -1.1436 H       1  UNL1        0.0265
     48 H          -6.1690    0.6401   -2.3370 H       1  UNL1        0.0265
     49 H          -7.7219    1.2415   -1.7691 H       1  UNL1        0.0265
     50 H          -7.9358   -0.7765   -0.7384 H       1  UNL1        0.0265
     51 H          -6.9492   -0.0028    0.5286 H       1  UNL1        0.0265
     52 H          -6.2898   -2.2556   -0.2265 H       1  UNL1        0.0266
     53 H          -5.8005   -1.5601   -1.8614 H       1  UNL1        0.0266
     54 H          -4.5747   -0.5650    0.7494 H       1  UNL1        0.0280
     55 H          -4.0561   -1.9932   -0.1160 H       1  UNL1        0.0280
     56 H           1.9352   -1.5598   -0.2496 H       1  UNL1        0.1491
     57 H           4.3634   -3.0730    0.6558 H       1  UNL1        0.0512
     58 H           3.7034   -2.9757   -1.0471 H       1  UNL1        0.0512
     59 H           6.0081   -1.2642    1.3377 H       1  UNL1        0.0621
     60 H           7.6429    0.3916    0.7203 H       1  UNL1        0.0626
     61 H           5.9004    0.5009   -3.1973 H       1  UNL1        0.0626
     62 H           4.2494   -1.1753   -2.5504 H       1  UNL1        0.0621
     63 H           7.8389    2.6024   -3.6613 H       1  UNL1        0.2884
     64 H           7.7853    3.5800   -2.1221 H       1  UNL1        0.2884
     65 H           9.3030    0.8369   -0.3795 H       1  UNL1        0.3633
@<TRIPOS>BOND
     1     1     2    1
     2     2     3    1
     3     3     4    1
     4     4     5    1
     5     5     6   am
     6     6     7    2
     7     6     8    1
     8     8     9    1
     9     9    10    1
    10    10    11    1
    11    11    12    1
    12    12    13    1
    13    13    14    1
    14    14    15    1
    15    15    16    1
    16    16    17    1
    17     1    18    1
    18    18    19    2
    19    18    20   am
    20    20    21    1
    21    21    22    1
    22    22    23   ar
    23    23    24   ar
    24    24    25   ar
    25    25    26   ar
    26    26    27   ar
    27    25    28    1
    28    28    29    1
    29    28    30    2
    30     5     1    1
    31    17    10    1
    32    27    22   ar
    33     1    31    1
    34     2    32    1
    35     2    33    1
    36     3    34    1
    37     3    35    1
    38     4    36    1
    39     4    37    1
    40     8    38    1
    41     8    39    1
    42     9    40    1
    43    10    41    1
    44    11    42    1
    45    11    43    1
    46    12    44    1
    47    12    45    1
    48    13    46    1
    49    13    47    1
    50    14    48    1
    51    14    49    1
    52    15    50    1
    53    15    51    1
    54    16    52    1
    55    16    53    1
    56    17    54    1
    57    17    55    1
    58    20    56    1
    59    21    57    1
    60    21    58    1
    61    23    59    1
    62    24    60    1
    63    26    61    1
    64    27    62    1
    65    29    63    1
    66    29    64    1
    67    30    65    1
