@<TRIPOS>MOLECULE
*****
 46 49 0 0 0
SMALL
GASTEIGER

@<TRIPOS>ATOM
      1 C          -3.0231   -3.4517   -1.3261 C.3     1  UNL1        0.0790
      2 O          -3.3753   -2.4567   -0.3876 O.3     1  UNL1       -0.4913
      3 C          -2.6704   -1.2830   -0.2214 C.ar    1  UNL1        0.1657
      4 C          -1.5572   -0.9716   -0.9563 C.ar    1  UNL1       -0.0082
      5 C          -0.8426    0.2289   -0.7815 C.ar    1  UNL1       -0.0050
      6 C           0.2920    0.4547   -1.6463 C.2     1  UNL1        0.0572
      7 C           1.5389    0.7286   -1.3555 C.2     1  UNL1        0.0589
      8 C           2.2114    0.8992   -0.0608 C.ar    1  UNL1        0.0129
      9 C           1.9830    1.7075    1.0044 C.ar    1  UNL1        0.0106
     10 N           2.8834    1.4250    1.9563 N.ar    1  UNL1       -0.3600
     11 C           3.6920    0.4493    1.5294 C.ar    1  UNL1        0.0471
     12 C           4.7769   -0.2182    2.1062 C.ar    1  UNL1       -0.0367
     13 C           5.4404   -1.2150    1.4194 C.ar    1  UNL1       -0.0458
     14 C           5.0529   -1.5787    0.1508 C.ar    1  UNL1        0.0186
     15 BR          5.9411   -2.9436   -0.8263 Br      1  UNL1       -0.0503
     16 C           3.9789   -0.9184   -0.4208 C.ar    1  UNL1       -0.0380
     17 C           3.3106    0.0808    0.2606 C.ar    1  UNL1        0.0086
     18 C           2.3160    0.8854   -2.6066 C.2     1  UNL1        0.2519
     19 O           3.5300    1.1509   -2.7071 O.2     1  UNL1       -0.2697
     20 N           1.4393    0.6825   -3.6922 N.am    1  UNL1       -0.2483
     21 C           0.1687    0.4117   -3.1269 C.2     1  UNL1        0.2518
     22 O          -0.8803    0.1763   -3.7711 O.2     1  UNL1       -0.2697
     23 C          -1.3087    1.0952    0.1688 C.ar    1  UNL1       -0.0082
     24 C          -2.4425    0.8227    0.9470 C.ar    1  UNL1        0.1657
     25 O          -2.9177    1.6952    1.9097 O.3     1  UNL1       -0.4913
     26 C          -2.3800    2.9286    2.2532 C.3     1  UNL1        0.0790
     27 C          -3.1002   -0.3817    0.7226 C.ar    1  UNL1        0.2035
     28 O          -4.2082   -0.6559    1.4793 O.3     1  UNL1       -0.4885
     29 C          -5.5256   -0.3140    1.1203 C.3     1  UNL1        0.0791
     30 H          -3.7587   -4.2723   -1.3673 H       1  UNL1        0.0660
     31 H          -2.0080   -3.8432   -1.1693 H       1  UNL1        0.0660
     32 H          -3.0314   -2.9625   -2.3211 H       1  UNL1        0.0660
     33 H          -1.2063   -1.6782   -1.7083 H       1  UNL1        0.0661
     34 H           1.2459    2.4577    1.1112 H       1  UNL1        0.0813
     35 H           2.9743    1.8732    2.9004 H       1  UNL1        0.1654
     36 H           5.0581    0.0895    3.1053 H       1  UNL1        0.0639
     37 H           6.2687   -1.6943    1.9129 H       1  UNL1        0.0629
     38 H           3.6764   -1.2250   -1.4316 H       1  UNL1        0.0635
     39 H           1.6843    0.7240   -4.7264 H       1  UNL1        0.1581
     40 H          -0.8044    2.0331    0.3139 H       1  UNL1        0.0661
     41 H          -3.2472    3.6127    2.4875 H       1  UNL1        0.0660
     42 H          -1.8535    3.3885    1.3957 H       1  UNL1        0.0660
     43 H          -1.7332    2.7919    3.1450 H       1  UNL1        0.0660
     44 H          -5.5447    0.0990    0.0928 H       1  UNL1        0.0660
     45 H          -6.1374   -1.2257    1.2266 H       1  UNL1        0.0660
     46 H          -5.9067    0.3973    1.8915 H       1  UNL1        0.0660
@<TRIPOS>BOND
     1     1     2    1
     2     2     3    1
     3     3     4   ar
     4     4     5   ar
     5     5     6    1
     6     6     7    2
     7     7     8    1
     8     8     9   ar
     9     9    10   ar
    10    10    11   ar
    11    11    12   ar
    12    12    13   ar
    13    13    14   ar
    14    14    15    1
    15    14    16   ar
    16    16    17   ar
    17     7    18    1
    18    18    19    2
    19    18    20   am
    20    20    21   am
    21    21    22    2
    22     5    23   ar
    23    23    24   ar
    24    24    25    1
    25    25    26    1
    26    24    27   ar
    27    27    28    1
    28    28    29    1
    29    27     3   ar
    30    21     6    1
    31    17     8   ar
    32    17    11   ar
    33     1    30    1
    34     1    31    1
    35     1    32    1
    36     4    33    1
    37     9    34    1
    38    10    35    1
    39    12    36    1
    40    13    37    1
    41    16    38    1
    42    20    39    1
    43    23    40    1
    44    26    41    1
    45    26    42    1
    46    26    43    1
    47    29    44    1
    48    29    45    1
    49    29    46    1
