
     RDKit          3D

 46 49  0  0  0  0  0  0  0  0999 V2000
   -3.0231   -3.4517   -1.3261 C   0  0  0  0  0  0  0  0  0  0  0  0
   -3.3753   -2.4567   -0.3876 O   0  0  0  0  0  0  0  0  0  0  0  0
   -2.6704   -1.2830   -0.2214 C   0  0  0  0  0  0  0  0  0  0  0  0
   -1.5572   -0.9716   -0.9563 C   0  0  0  0  0  0  0  0  0  0  0  0
   -0.8426    0.2289   -0.7815 C   0  0  0  0  0  0  0  0  0  0  0  0
    0.2920    0.4547   -1.6463 C   0  0  0  0  0  0  0  0  0  0  0  0
    1.5389    0.7286   -1.3555 C   0  0  0  0  0  0  0  0  0  0  0  0
    2.2114    0.8992   -0.0608 C   0  0  0  0  0  0  0  0  0  0  0  0
    1.9830    1.7075    1.0044 C   0  0  0  0  0  0  0  0  0  0  0  0
    2.8834    1.4250    1.9563 N   0  0  0  0  0  0  0  0  0  0  0  0
    3.6920    0.4493    1.5294 C   0  0  0  0  0  0  0  0  0  0  0  0
    4.7769   -0.2182    2.1062 C   0  0  0  0  0  0  0  0  0  0  0  0
    5.4404   -1.2150    1.4194 C   0  0  0  0  0  0  0  0  0  0  0  0
    5.0529   -1.5787    0.1508 C   0  0  0  0  0  0  0  0  0  0  0  0
    5.9411   -2.9436   -0.8263 Br  0  0  0  0  0  0  0  0  0  0  0  0
    3.9789   -0.9184   -0.4208 C   0  0  0  0  0  0  0  0  0  0  0  0
    3.3106    0.0808    0.2606 C   0  0  0  0  0  0  0  0  0  0  0  0
    2.3160    0.8854   -2.6066 C   0  0  0  0  0  0  0  0  0  0  0  0
    3.5300    1.1509   -2.7071 O   0  0  0  0  0  0  0  0  0  0  0  0
    1.4393    0.6825   -3.6922 N   0  0  0  0  0  0  0  0  0  0  0  0
    0.1687    0.4117   -3.1269 C   0  0  0  0  0  0  0  0  0  0  0  0
   -0.8803    0.1763   -3.7711 O   0  0  0  0  0  0  0  0  0  0  0  0
   -1.3087    1.0952    0.1688 C   0  0  0  0  0  0  0  0  0  0  0  0
   -2.4425    0.8227    0.9470 C   0  0  0  0  0  0  0  0  0  0  0  0
   -2.9177    1.6952    1.9097 O   0  0  0  0  0  0  0  0  0  0  0  0
   -2.3800    2.9286    2.2532 C   0  0  0  0  0  0  0  0  0  0  0  0
   -3.1002   -0.3817    0.7226 C   0  0  0  0  0  0  0  0  0  0  0  0
   -4.2082   -0.6559    1.4793 O   0  0  0  0  0  0  0  0  0  0  0  0
   -5.5256   -0.3140    1.1203 C   0  0  0  0  0  0  0  0  0  0  0  0
   -3.7587   -4.2723   -1.3673 H   0  0  0  0  0  0  0  0  0  0  0  0
   -2.0080   -3.8432   -1.1693 H   0  0  0  0  0  0  0  0  0  0  0  0
   -3.0314   -2.9625   -2.3211 H   0  0  0  0  0  0  0  0  0  0  0  0
   -1.2063   -1.6782   -1.7083 H   0  0  0  0  0  0  0  0  0  0  0  0
    1.2459    2.4577    1.1112 H   0  0  0  0  0  0  0  0  0  0  0  0
    2.9743    1.8732    2.9004 H   0  0  0  0  0  0  0  0  0  0  0  0
    5.0581    0.0895    3.1053 H   0  0  0  0  0  0  0  0  0  0  0  0
    6.2687   -1.6943    1.9129 H   0  0  0  0  0  0  0  0  0  0  0  0
    3.6764   -1.2250   -1.4316 H   0  0  0  0  0  0  0  0  0  0  0  0
    1.6843    0.7240   -4.7264 H   0  0  0  0  0  0  0  0  0  0  0  0
   -0.8044    2.0331    0.3139 H   0  0  0  0  0  0  0  0  0  0  0  0
   -3.2472    3.6127    2.4875 H   0  0  0  0  0  0  0  0  0  0  0  0
   -1.8535    3.3885    1.3957 H   0  0  0  0  0  0  0  0  0  0  0  0
   -1.7332    2.7919    3.1450 H   0  0  0  0  0  0  0  0  0  0  0  0
   -5.5447    0.0990    0.0928 H   0  0  0  0  0  0  0  0  0  0  0  0
   -6.1374   -1.2257    1.2266 H   0  0  0  0  0  0  0  0  0  0  0  0
   -5.9067    0.3973    1.8915 H   0  0  0  0  0  0  0  0  0  0  0  0
  1  2  1  0
  2  3  1  0
  3  4  2  0
  4  5  1  0
  5  6  1  0
  6  7  2  0
  7  8  1  0
  8  9  2  0
  9 10  1  0
 10 11  1  0
 11 12  2  0
 12 13  1  0
 13 14  2  0
 14 15  1  0
 14 16  1  0
 16 17  2  0
  7 18  1  0
 18 19  2  0
 18 20  1  0
 20 21  1  0
 21 22  2  0
  5 23  2  0
 23 24  1  0
 24 25  1  0
 25 26  1  0
 24 27  2  0
 27 28  1  0
 28 29  1  0
 27  3  1  0
 21  6  1  0
 17  8  1  0
 17 11  1  0
  1 30  1  0
  1 31  1  0
  1 32  1  0
  4 33  1  0
  9 34  1  0
 10 35  1  0
 12 36  1  0
 13 37  1  0
 16 38  1  0
 20 39  1  0
 23 40  1  0
 26 41  1  0
 26 42  1  0
 26 43  1  0
 29 44  1  0
 29 45  1  0
 29 46  1  0
M  END
$$$$
