@<TRIPOS>MOLECULE
*****
 46 49 0 0 0
SMALL
GASTEIGER

@<TRIPOS>ATOM
      1 C          -3.4754    2.7600    0.7013 C.3     1  UNL1       -0.0410
      2 C          -2.6869    1.9745   -0.3453 C.3     1  UNL1        0.0658
      3 C          -1.3111    2.5346   -0.3915 C.3     1  UNL1        0.1101
      4 O          -0.2655    1.6268   -0.2630 O.3     1  UNL1       -0.4859
      5 C          -0.4274    0.2852   -0.0185 C.ar    1  UNL1        0.1684
      6 C          -1.6857   -0.2415    0.0684 C.ar    1  UNL1        0.0974
      7 N          -2.7401    0.5538   -0.0854 N.ar    1  UNL1       -0.3367
      8 C          -3.9619   -0.0020    0.0070 C.ar    1  UNL1        0.0233
      9 C          -4.1529   -1.3438    0.2514 C.ar    1  UNL1        0.1220
     10 C          -5.5063   -1.9142    0.3455 C.2     1  UNL1        0.3420
     11 O          -5.6375   -3.2665    0.5922 O.3     1  UNL1       -0.4770
     12 O          -6.5614   -1.2524    0.2162 O.2     1  UNL1       -0.2449
     13 C          -3.0292   -2.1510    0.4079 C.ar    1  UNL1        0.2036
     14 O          -3.1950   -3.3877    0.6332 O.2     1  UNL1       -0.2863
     15 C          -1.7770   -1.5952    0.3157 C.ar    1  UNL1        0.0524
     16 C          -0.7017   -2.4116    0.4735 C.ar    1  UNL1       -0.0116
     17 C           0.5692   -1.8818    0.3862 C.ar    1  UNL1        0.1487
     18 F           1.6305   -2.6973    0.5437 F       1  UNL1       -0.2034
     19 C           0.6836   -0.5328    0.1399 C.ar    1  UNL1        0.1098
     20 N           1.9905    0.0240    0.0479 N.pl3   1  UNL1       -0.3224
     21 C           2.6202    0.5246    1.2490 C.3     1  UNL1        0.0252
     22 C           4.1106    0.5518    1.1004 C.3     1  UNL1        0.0144
     23 N           4.6100   -0.4759    0.2261 N.3     1  UNL1       -0.3024
     24 C           6.0458   -0.3505    0.1909 C.3     1  UNL1       -0.0126
     25 C           4.1082   -0.3924   -1.1109 C.3     1  UNL1        0.0144
     26 C           2.6803    0.0925   -1.2085 C.3     1  UNL1        0.0252
     27 H          -3.9727    3.6005    0.1930 H       1  UNL1        0.0251
     28 H          -4.1571    2.0958    1.2362 H       1  UNL1        0.0251
     29 H          -2.7526    3.2468    1.4195 H       1  UNL1        0.0251
     30 H          -3.1772    2.1516   -1.3410 H       1  UNL1        0.0559
     31 H          -1.1400    3.3190    0.4026 H       1  UNL1        0.0717
     32 H          -1.1348    3.1063   -1.3465 H       1  UNL1        0.0717
     33 H          -4.8826    0.5863   -0.1078 H       1  UNL1        0.0819
     34 H          -6.5537   -3.6840    0.6660 H       1  UNL1        0.2954
     35 H          -0.8502   -3.4770    0.6675 H       1  UNL1        0.0654
     36 H           2.2616    1.5537    1.4561 H       1  UNL1        0.0476
     37 H           2.2974   -0.1045    2.0922 H       1  UNL1        0.0476
     38 H           4.5554    0.3779    2.1024 H       1  UNL1        0.0442
     39 H           4.4972    1.5269    0.7500 H       1  UNL1        0.0442
     40 H           6.2848    0.7414    0.1968 H       1  UNL1        0.0391
     41 H           6.5060   -0.8073    1.0873 H       1  UNL1        0.0391
     42 H           6.4719   -0.7580   -0.7411 H       1  UNL1        0.0391
     43 H           4.7775    0.2972   -1.6710 H       1  UNL1        0.0442
     44 H           4.2279   -1.3818   -1.6016 H       1  UNL1        0.0442
     45 H           2.6530    1.1376   -1.5651 H       1  UNL1        0.0476
     46 H           2.1541   -0.5597   -1.9457 H       1  UNL1        0.0476
@<TRIPOS>BOND
     1     1     2    1
     2     2     3    1
     3     3     4    1
     4     4     5    1
     5     5     6   ar
     6     6     7   ar
     7     7     8   ar
     8     8     9   ar
     9     9    10    1
    10    10    11    1
    11    10    12    2
    12     9    13   ar
    13    13    14    2
    14    13    15   ar
    15    15    16   ar
    16    16    17   ar
    17    17    18    1
    18    17    19   ar
    19    19    20    1
    20    20    21    1
    21    21    22    1
    22    22    23    1
    23    23    24    1
    24    23    25    1
    25    25    26    1
    26     7     2    1
    27    26    20    1
    28    19     5   ar
    29    15     6   ar
    30     1    27    1
    31     1    28    1
    32     1    29    1
    33     2    30    1
    34     3    31    1
    35     3    32    1
    36     8    33    1
    37    11    34    1
    38    16    35    1
    39    21    36    1
    40    21    37    1
    41    22    38    1
    42    22    39    1
    43    24    40    1
    44    24    41    1
    45    24    42    1
    46    25    43    1
    47    25    44    1
    48    26    45    1
    49    26    46    1
