
     RDKit          3D

 73 77  0  0  0  0  0  0  0  0999 V2000
   -2.7455   -0.0757    4.1044 C   0  0  0  0  0  0  0  0  0  0  0  0
   -3.1213    1.2217    3.3845 C   0  0  0  0  0  0  0  0  0  0  0  0
   -3.7152    0.9438    2.0688 C   0  0  0  0  0  0  0  0  0  0  0  0
   -5.0459    1.0176    1.7600 C   0  0  0  0  0  0  0  0  0  0  0  0
   -5.2187    0.6879    0.4414 N   0  0  0  0  0  0  0  0  0  0  0  0
   -4.0332    0.4085   -0.0859 C   0  0  0  0  0  0  0  0  0  0  0  0
   -3.5939    0.0269   -1.3425 C   0  0  0  0  0  0  0  0  0  0  0  0
   -2.2519   -0.1791   -1.5480 C   0  0  0  0  0  0  0  0  0  0  0  0
   -1.2851   -0.0270   -0.5527 C   0  0  0  0  0  0  0  0  0  0  0  0
    0.1155   -0.2655   -0.8554 C   0  0  0  0  0  0  0  0  0  0  0  0
    0.4161   -0.6088   -2.0253 O   0  0  0  0  0  0  0  0  0  0  0  0
    1.1526   -0.1309    0.0982 N   0  0  0  0  0  0  0  0  0  0  0  0
    2.5359   -0.3855   -0.2723 C   0  0  1  0  0  0  0  0  0  0  0  0
    3.3572    0.8728   -0.2165 C   0  0  0  0  0  0  0  0  0  0  0  0
    3.3964    1.5292    1.0932 C   0  0  0  0  0  0  0  0  0  0  0  0
    4.3686    1.2651    2.0188 C   0  0  0  0  0  0  0  0  0  0  0  0
    4.3917    1.8942    3.2650 C   0  0  0  0  0  0  0  0  0  0  0  0
    3.3859    2.8084    3.5419 C   0  0  0  0  0  0  0  0  0  0  0  0
    2.4023    3.0808    2.6148 C   0  0  0  0  0  0  0  0  0  0  0  0
    2.4164    2.4444    1.4098 C   0  0  0  0  0  0  0  0  0  0  0  0
    3.1259   -1.5314    0.4916 C   0  0  2  0  0  0  0  0  0  0  0  0
    3.1066   -1.2276    1.8501 O   0  0  0  0  0  0  0  0  0  0  0  0
    4.4907   -1.9136    0.0098 C   0  0  0  0  0  0  0  0  0  0  0  0
    4.5675   -2.2425   -1.3772 N   0  0  0  0  0  0  0  0  0  0  0  0
    5.9122   -2.5938   -1.7621 C   0  0  0  0  0  0  0  0  0  0  0  0
    7.0107   -1.5500   -1.6248 C   0  0  0  0  0  0  0  0  0  0  0  0
    6.9558   -2.6911   -0.6763 C   0  0  0  0  0  0  0  0  0  0  0  0
   -1.7604    0.3513    0.6803 C   0  0  0  0  0  0  0  0  0  0  0  0
   -3.0943    0.5608    0.8999 C   0  0  0  0  0  0  0  0  0  0  0  0
   -4.3339   -0.2246   -2.5438 N   0  0  0  0  0  0  0  0  0  0  0  0
   -3.6820   -0.7870   -3.6922 C   0  0  0  0  0  0  0  0  0  0  0  0
   -3.0541    0.2055   -4.6200 C   0  0  0  0  0  0  0  0  0  0  0  0
   -6.0470    0.1269   -2.6702 S   0  0  0  0  0  6  0  0  0  0  0  0
   -6.5938   -0.7590   -3.7387 O   0  0  0  0  0  0  0  0  0  0  0  0
   -6.2765    1.5758   -2.9331 O   0  0  0  0  0  0  0  0  0  0  0  0
   -6.7910   -0.3741   -1.1167 C   0  0  0  0  0  0  0  0  0  0  0  0
   -6.5440    0.7129   -0.1094 C   0  0  0  0  0  0  0  0  0  0  0  0
   -3.1924   -0.9594    3.6076 H   0  0  0  0  0  0  0  0  0  0  0  0
   -3.1164   -0.0491    5.1620 H   0  0  0  0  0  0  0  0  0  0  0  0
   -1.6506   -0.2052    4.1062 H   0  0  0  0  0  0  0  0  0  0  0  0
   -3.8620    1.7582    4.0102 H   0  0  0  0  0  0  0  0  0  0  0  0
   -2.2025    1.8469    3.2670 H   0  0  0  0  0  0  0  0  0  0  0  0
   -5.8447    1.2923    2.4425 H   0  0  0  0  0  0  0  0  0  0  0  0
   -1.9472   -0.4706   -2.5522 H   0  0  0  0  0  0  0  0  0  0  0  0
    0.9248    0.1538    1.0776 H   0  0  0  0  0  0  0  0  0  0  0  0
    2.5198   -0.6768   -1.3627 H   0  0  0  0  0  0  0  0  0  0  0  0
    3.0032    1.6263   -0.9639 H   0  0  0  0  0  0  0  0  0  0  0  0
    4.3976    0.5827   -0.5418 H   0  0  0  0  0  0  0  0  0  0  0  0
    5.1776    0.5691    1.8598 H   0  0  0  0  0  0  0  0  0  0  0  0
    5.1718    1.6734    3.9913 H   0  0  0  0  0  0  0  0  0  0  0  0
    3.3837    3.3160    4.5160 H   0  0  0  0  0  0  0  0  0  0  0  0
    1.6410    3.8032    2.8831 H   0  0  0  0  0  0  0  0  0  0  0  0
    1.6146    2.6876    0.6948 H   0  0  0  0  0  0  0  0  0  0  0  0
    2.4023   -2.3940    0.3259 H   0  0  0  0  0  0  0  0  0  0  0  0
    3.8851   -1.6014    2.2965 H   0  0  0  0  0  0  0  0  0  0  0  0
    4.8052   -2.8356    0.5694 H   0  0  0  0  0  0  0  0  0  0  0  0
    5.2154   -1.1124    0.2263 H   0  0  0  0  0  0  0  0  0  0  0  0
    4.2686   -1.4064   -1.9660 H   0  0  0  0  0  0  0  0  0  0  0  0
    6.0400   -3.2672   -2.6407 H   0  0  0  0  0  0  0  0  0  0  0  0
    6.6365   -0.5623   -1.2691 H   0  0  0  0  0  0  0  0  0  0  0  0
    7.8072   -1.5113   -2.3803 H   0  0  0  0  0  0  0  0  0  0  0  0
    6.7380   -2.4403    0.3560 H   0  0  0  0  0  0  0  0  0  0  0  0
    7.7268   -3.4826   -0.8017 H   0  0  0  0  0  0  0  0  0  0  0  0
   -1.0397    0.4821    1.4899 H   0  0  0  0  0  0  0  0  0  0  0  0
   -4.5541   -1.2047   -4.3089 H   0  0  0  0  0  0  0  0  0  0  0  0
   -3.1104   -1.7180   -3.5169 H   0  0  0  0  0  0  0  0  0  0  0  0
   -2.8929    1.1546   -4.0386 H   0  0  0  0  0  0  0  0  0  0  0  0
   -3.6895    0.5062   -5.4778 H   0  0  0  0  0  0  0  0  0  0  0  0
   -2.1023   -0.1655   -5.0701 H   0  0  0  0  0  0  0  0  0  0  0  0
   -7.8519   -0.5994   -1.2628 H   0  0  0  0  0  0  0  0  0  0  0  0
   -6.2234   -1.2763   -0.7820 H   0  0  0  0  0  0  0  0  0  0  0  0
   -6.6726    1.7049   -0.5931 H   0  0  0  0  0  0  0  0  0  0  0  0
   -7.3270    0.6136    0.6767 H   0  0  0  0  0  0  0  0  0  0  0  0
  1  2  1  0
  2  3  1  0
  3  4  2  0
  4  5  1  0
  5  6  1  0
  6  7  2  0
  7  8  1  0
  8  9  2  0
  9 10  1  0
 10 11  2  0
 10 12  1  0
 12 13  1  0
 13 14  1  0
 14 15  1  0
 15 16  2  0
 16 17  1  0
 17 18  2  0
 18 19  1  0
 19 20  2  0
 13 21  1  0
 21 22  1  0
 21 23  1  0
 23 24  1  0
 24 25  1  0
 25 26  1  0
 26 27  1  0
  9 28  1  0
 28 29  2  0
  7 30  1  0
 30 31  1  0
 31 32  1  0
 30 33  1  0
 33 34  2  0
 33 35  2  0
 33 36  1  0
 36 37  1  0
 29  3  1  0
 37  5  1  0
 29  6  1  0
 20 15  1  0
 27 25  1  0
  1 38  1  0
  1 39  1  0
  1 40  1  0
  2 41  1  0
  2 42  1  0
  4 43  1  0
  8 44  1  0
 12 45  1  0
 13 46  1  6
 14 47  1  0
 14 48  1  0
 16 49  1  0
 17 50  1  0
 18 51  1  0
 19 52  1  0
 20 53  1  0
 21 54  1  1
 22 55  1  0
 23 56  1  0
 23 57  1  0
 24 58  1  0
 25 59  1  0
 26 60  1  0
 26 61  1  0
 27 62  1  0
 27 63  1  0
 28 64  1  0
 31 65  1  0
 31 66  1  0
 32 67  1  0
 32 68  1  0
 32 69  1  0
 36 70  1  0
 36 71  1  0
 37 72  1  0
 37 73  1  0
M  END
$$$$
