@<TRIPOS>MOLECULE
*****
 73 77 0 0 0
SMALL
GASTEIGER

@<TRIPOS>ATOM
      1 C          -2.7455   -0.0757    4.1044 C.3     1  UNL1       -0.0612
      2 C          -3.1213    1.2217    3.3845 C.3     1  UNL1       -0.0285
      3 C          -3.7152    0.9438    2.0688 C.ar    1  UNL1       -0.0223
      4 C          -5.0459    1.0176    1.7600 C.ar    1  UNL1        0.0090
      5 N          -5.2187    0.6879    0.4414 N.ar    1  UNL1       -0.3433
      6 C          -4.0332    0.4085   -0.0859 C.ar    1  UNL1        0.0723
      7 C          -3.5939    0.0269   -1.3425 C.ar    1  UNL1        0.0756
      8 C          -2.2519   -0.1791   -1.5480 C.ar    1  UNL1       -0.0249
      9 C          -1.2851   -0.0270   -0.5527 C.ar    1  UNL1        0.0392
     10 C           0.1155   -0.2655   -0.8554 C.2     1  UNL1        0.2445
     11 O           0.4161   -0.6088   -2.0253 O.2     1  UNL1       -0.2702
     12 N           1.1526   -0.1309    0.0982 N.am    1  UNL1       -0.3057
     13 C           2.5359   -0.3855   -0.2723 C.3     1  UNL1        0.0545
     14 C           3.3572    0.8728   -0.2165 C.3     1  UNL1       -0.0067
     15 C           3.3964    1.5292    1.0932 C.ar    1  UNL1       -0.0455
     16 C           4.3686    1.2651    2.0188 C.ar    1  UNL1       -0.0585
     17 C           4.3917    1.8942    3.2650 C.ar    1  UNL1       -0.0615
     18 C           3.3859    2.8084    3.5419 C.ar    1  UNL1       -0.0617
     19 C           2.4023    3.0808    2.6148 C.ar    1  UNL1       -0.0615
     20 C           2.4164    2.4444    1.4098 C.ar    1  UNL1       -0.0585
     21 C           3.1259   -1.5314    0.4916 C.3     1  UNL1        0.0862
     22 O           3.1066   -1.2276    1.8501 O.3     1  UNL1       -0.3887
     23 C           4.4907   -1.9136    0.0098 C.3     1  UNL1        0.0240
     24 N           4.5675   -2.2425   -1.3772 N.3     1  UNL1       -0.3107
     25 C           5.9122   -2.5938   -1.7621 C.3     1  UNL1        0.0078
     26 C           7.0107   -1.5500   -1.6248 C.3     1  UNL1       -0.0361
     27 C           6.9558   -2.6911   -0.6763 C.3     1  UNL1       -0.0361
     28 C          -1.7604    0.3513    0.6803 C.ar    1  UNL1       -0.0401
     29 C          -3.0943    0.5608    0.8999 C.ar    1  UNL1        0.0056
     30 N          -4.3339   -0.2246   -2.5438 N.pl3   1  UNL1       -0.2056
     31 C          -3.6820   -0.7870   -3.6922 C.3     1  UNL1        0.0319
     32 C          -3.0541    0.2055   -4.6200 C.3     1  UNL1       -0.0476
     33 S          -6.0470    0.1269   -2.6702 S.O2    1  UNL1        0.0472
     34 O          -6.5938   -0.7590   -3.7387 O.2     1  UNL1       -0.1549
     35 O          -6.2765    1.5758   -2.9331 O.2     1  UNL1       -0.1549
     36 C          -6.7910   -0.3741   -1.1167 C.3     1  UNL1        0.1028
     37 C          -6.5440    0.7129   -0.1094 C.3     1  UNL1        0.0445
     38 H          -3.1924   -0.9594    3.6076 H       1  UNL1        0.0233
     39 H          -3.1164   -0.0491    5.1620 H       1  UNL1        0.0233
     40 H          -1.6506   -0.2052    4.1062 H       1  UNL1        0.0233
     41 H          -3.8620    1.7582    4.0102 H       1  UNL1        0.0311
     42 H          -2.2025    1.8469    3.2670 H       1  UNL1        0.0311
     43 H          -5.8447    1.2923    2.4425 H       1  UNL1        0.0812
     44 H          -1.9472   -0.4706   -2.5522 H       1  UNL1        0.0645
     45 H           0.9248    0.1538    1.0776 H       1  UNL1        0.1494
     46 H           2.5198   -0.6768   -1.3627 H       1  UNL1        0.0527
     47 H           3.0032    1.6263   -0.9639 H       1  UNL1        0.0332
     48 H           4.3976    0.5827   -0.5418 H       1  UNL1        0.0332
     49 H           5.1776    0.5691    1.8598 H       1  UNL1        0.0620
     50 H           5.1718    1.6734    3.9913 H       1  UNL1        0.0618
     51 H           3.3837    3.3160    4.5160 H       1  UNL1        0.0618
     52 H           1.6410    3.8032    2.8831 H       1  UNL1        0.0618
     53 H           1.6146    2.6876    0.6948 H       1  UNL1        0.0620
     54 H           2.4023   -2.3940    0.3259 H       1  UNL1        0.0624
     55 H           3.8851   -1.6014    2.2965 H       1  UNL1        0.2099
     56 H           4.8052   -2.8356    0.5694 H       1  UNL1        0.0450
     57 H           5.2154   -1.1124    0.2263 H       1  UNL1        0.0450
     58 H           4.2686   -1.4064   -1.9660 H       1  UNL1        0.1223
     59 H           6.0400   -3.2672   -2.6407 H       1  UNL1        0.0460
     60 H           6.6365   -0.5623   -1.2691 H       1  UNL1        0.0281
     61 H           7.8072   -1.5113   -2.3803 H       1  UNL1        0.0281
     62 H           6.7380   -2.4403    0.3560 H       1  UNL1        0.0281
     63 H           7.7268   -3.4826   -0.8017 H       1  UNL1        0.0281
     64 H          -1.0397    0.4821    1.4899 H       1  UNL1        0.0632
     65 H          -4.5541   -1.2047   -4.3089 H       1  UNL1        0.0479
     66 H          -3.1104   -1.7180   -3.5169 H       1  UNL1        0.0479
     67 H          -2.8929    1.1546   -4.0386 H       1  UNL1        0.0245
     68 H          -3.6895    0.5062   -5.4778 H       1  UNL1        0.0245
     69 H          -2.1023   -0.1655   -5.0701 H       1  UNL1        0.0245
     70 H          -7.8519   -0.5994   -1.2628 H       1  UNL1        0.0536
     71 H          -6.2234   -1.2763   -0.7820 H       1  UNL1        0.0536
     72 H          -6.6726    1.7049   -0.5931 H       1  UNL1        0.0508
     73 H          -7.3270    0.6136    0.6767 H       1  UNL1        0.0508
@<TRIPOS>BOND
     1     1     2    1
     2     2     3    1
     3     3     4   ar
     4     4     5   ar
     5     5     6   ar
     6     6     7   ar
     7     7     8   ar
     8     8     9   ar
     9     9    10    1
    10    10    11    2
    11    10    12   am
    12    12    13    1
    13    13    14    1
    14    14    15    1
    15    15    16   ar
    16    16    17   ar
    17    17    18   ar
    18    18    19   ar
    19    19    20   ar
    20    13    21    1
    21    21    22    1
    22    21    23    1
    23    23    24    1
    24    24    25    1
    25    25    26    1
    26    26    27    1
    27     9    28   ar
    28    28    29   ar
    29     7    30    1
    30    30    31    1
    31    31    32    1
    32    30    33    1
    33    33    34    2
    34    33    35    2
    35    33    36    1
    36    36    37    1
    37    29     3   ar
    38    37     5    1
    39    29     6   ar
    40    20    15   ar
    41    27    25    1
    42     1    38    1
    43     1    39    1
    44     1    40    1
    45     2    41    1
    46     2    42    1
    47     4    43    1
    48     8    44    1
    49    12    45    1
    50    13    46    1
    51    14    47    1
    52    14    48    1
    53    16    49    1
    54    17    50    1
    55    18    51    1
    56    19    52    1
    57    20    53    1
    58    21    54    1
    59    22    55    1
    60    23    56    1
    61    23    57    1
    62    24    58    1
    63    25    59    1
    64    26    60    1
    65    26    61    1
    66    27    62    1
    67    27    63    1
    68    28    64    1
    69    31    65    1
    70    31    66    1
    71    32    67    1
    72    32    68    1
    73    32    69    1
    74    36    70    1
    75    36    71    1
    76    37    72    1
    77    37    73    1
