@<TRIPOS>MOLECULE
*****
 56 60 0 0 0
SMALL
GASTEIGER

@<TRIPOS>ATOM
      1 N           8.3242    0.1098   -1.7027 N.3     1  UNL1       -0.2035
      2 S           6.7775   -0.4365   -2.2727 S.O2    1  UNL1        0.0560
      3 O           6.7434   -1.9250   -2.0994 O.2     1  UNL1       -0.1533
      4 O           6.6986   -0.1201   -3.7436 O.2     1  UNL1       -0.1533
      5 C           5.4855    0.3473   -1.3951 C.ar    1  UNL1        0.1056
      6 C           4.9575    1.5424   -1.8547 C.ar    1  UNL1       -0.0353
      7 C           3.9404    2.1711   -1.1747 C.ar    1  UNL1       -0.0593
      8 C           3.4095    1.6426   -0.0186 C.ar    1  UNL1       -0.0524
      9 C           3.9283    0.4551    0.4450 C.ar    1  UNL1        0.0045
     10 C           3.4301   -0.1849    1.6558 C.ar    1  UNL1        0.1003
     11 N           4.1632   -0.7104    2.6740 N.ar    1  UNL1       -0.1727
     12 N           3.3839   -1.2105    3.6037 N.ar    1  UNL1       -0.2764
     13 C           2.0823   -1.0451    3.2547 C.ar    1  UNL1        0.0665
     14 C           0.8850   -1.3769    3.8507 C.ar    1  UNL1       -0.0345
     15 C          -0.3157   -1.0563    3.2059 C.ar    1  UNL1       -0.0385
     16 C          -0.2993   -0.4146    1.9859 C.ar    1  UNL1        0.0342
     17 N          -1.4997   -0.0794    1.3132 N.am    1  UNL1       -0.2839
     18 C          -2.1428   -0.9447    0.3919 C.2     1  UNL1        0.2390
     19 O          -1.6241   -2.0633    0.1570 O.2     1  UNL1       -0.2734
     20 C          -3.3954   -0.6210   -0.3218 C.3     1  UNL1        0.1136
     21 C          -3.1339   -0.6235   -1.8336 C.ar    1  UNL1       -0.0144
     22 C          -3.4110   -1.6825   -2.5858 C.ar    1  UNL1       -0.0496
     23 C          -3.1442   -1.6029   -3.9482 C.ar    1  UNL1       -0.0240
     24 S          -2.4858    0.0179   -4.1474 S.2     1  UNL1       -0.1047
     25 C          -2.6031    0.5134   -2.3711 C.ar    1  UNL1       -0.0192
     26 N          -4.0068    0.6158    0.0455 N.3     1  UNL1       -0.2879
     27 C          -4.4289    0.6598    1.4057 C.3     1  UNL1       -0.0001
     28 C          -5.9478    0.5915    1.4031 C.3     1  UNL1       -0.0390
     29 C          -6.2496    1.3286    0.0911 C.3     1  UNL1       -0.0390
     30 C          -5.1625    0.8138   -0.7967 C.3     1  UNL1       -0.0001
     31 C           0.9097   -0.0941    1.4119 C.ar    1  UNL1       -0.0292
     32 C           2.1098   -0.4035    2.0360 C.ar    1  UNL1        0.0291
     33 C           4.9472   -0.1728   -0.2378 C.ar    1  UNL1       -0.0261
     34 H           8.7974    0.7148   -2.3872 H       1  UNL1        0.1442
     35 H           8.1720    0.6525   -0.8382 H       1  UNL1        0.1442
     36 H           5.3373    2.0162   -2.7714 H       1  UNL1        0.0637
     37 H           3.5111    3.1191   -1.5263 H       1  UNL1        0.0618
     38 H           2.5960    2.1613    0.5165 H       1  UNL1        0.0624
     39 H           3.6332   -1.6829    4.5083 H       1  UNL1        0.1889
     40 H           0.8521   -1.8752    4.7973 H       1  UNL1        0.0639
     41 H          -1.2767   -1.2961    3.6339 H       1  UNL1        0.0637
     42 H          -1.9824    0.8564    1.4672 H       1  UNL1        0.1549
     43 H          -4.1136   -1.4267   -0.0760 H       1  UNL1        0.0609
     44 H          -3.8503   -2.6617   -2.2250 H       1  UNL1        0.0626
     45 H          -3.2971   -2.3466   -4.7167 H       1  UNL1        0.0693
     46 H          -2.3026    1.4605   -2.0024 H       1  UNL1        0.0697
     47 H          -4.1947    1.6265    1.9284 H       1  UNL1        0.0427
     48 H          -4.0575   -0.2101    1.9794 H       1  UNL1        0.0427
     49 H          -6.3988    1.1888    2.2155 H       1  UNL1        0.0278
     50 H          -6.3207   -0.4501    1.3629 H       1  UNL1        0.0278
     51 H          -7.2635    1.0851   -0.2351 H       1  UNL1        0.0278
     52 H          -6.0788    2.4095    0.2642 H       1  UNL1        0.0278
     53 H          -5.5072   -0.1802   -1.1955 H       1  UNL1        0.0427
     54 H          -4.9403    1.5037   -1.6433 H       1  UNL1        0.0427
     55 H           0.9853    0.4095    0.4507 H       1  UNL1        0.0643
     56 H           5.3743   -1.1156    0.1115 H       1  UNL1        0.0644
@<TRIPOS>BOND
     1     1     2    1
     2     2     3    2
     3     2     4    2
     4     2     5    1
     5     5     6   ar
     6     6     7   ar
     7     7     8   ar
     8     8     9   ar
     9     9    10    1
    10    10    11   ar
    11    11    12   ar
    12    12    13   ar
    13    13    14   ar
    14    14    15   ar
    15    15    16   ar
    16    16    17    1
    17    17    18   am
    18    18    19    2
    19    18    20    1
    20    20    21    1
    21    21    22   ar
    22    22    23   ar
    23    23    24   ar
    24    24    25   ar
    25    20    26    1
    26    26    27    1
    27    27    28    1
    28    28    29    1
    29    29    30    1
    30    16    31   ar
    31    31    32   ar
    32     9    33   ar
    33    33     5   ar
    34    32    10   ar
    35    32    13   ar
    36    25    21   ar
    37    30    26    1
    38     1    34    1
    39     1    35    1
    40     6    36    1
    41     7    37    1
    42     8    38    1
    43    12    39    1
    44    14    40    1
    45    15    41    1
    46    17    42    1
    47    20    43    1
    48    22    44    1
    49    23    45    1
    50    25    46    1
    51    27    47    1
    52    27    48    1
    53    28    49    1
    54    28    50    1
    55    29    51    1
    56    29    52    1
    57    30    53    1
    58    30    54    1
    59    31    55    1
    60    33    56    1
