
     RDKit          3D

 56 60  0  0  0  0  0  0  0  0999 V2000
    8.3242    0.1098   -1.7027 N   0  0  0  0  0  0  0  0  0  0  0  0
    6.7775   -0.4365   -2.2727 S   0  0  0  0  0  6  0  0  0  0  0  0
    6.7434   -1.9250   -2.0994 O   0  0  0  0  0  0  0  0  0  0  0  0
    6.6986   -0.1201   -3.7436 O   0  0  0  0  0  0  0  0  0  0  0  0
    5.4855    0.3473   -1.3951 C   0  0  0  0  0  0  0  0  0  0  0  0
    4.9575    1.5424   -1.8547 C   0  0  0  0  0  0  0  0  0  0  0  0
    3.9404    2.1711   -1.1747 C   0  0  0  0  0  0  0  0  0  0  0  0
    3.4095    1.6426   -0.0186 C   0  0  0  0  0  0  0  0  0  0  0  0
    3.9283    0.4551    0.4450 C   0  0  0  0  0  0  0  0  0  0  0  0
    3.4301   -0.1849    1.6558 C   0  0  0  0  0  0  0  0  0  0  0  0
    4.1632   -0.7104    2.6740 N   0  0  0  0  0  0  0  0  0  0  0  0
    3.3839   -1.2105    3.6037 N   0  0  0  0  0  0  0  0  0  0  0  0
    2.0823   -1.0451    3.2547 C   0  0  0  0  0  0  0  0  0  0  0  0
    0.8850   -1.3769    3.8507 C   0  0  0  0  0  0  0  0  0  0  0  0
   -0.3157   -1.0563    3.2059 C   0  0  0  0  0  0  0  0  0  0  0  0
   -0.2993   -0.4146    1.9859 C   0  0  0  0  0  0  0  0  0  0  0  0
   -1.4997   -0.0794    1.3132 N   0  0  0  0  0  0  0  0  0  0  0  0
   -2.1428   -0.9447    0.3919 C   0  0  0  0  0  0  0  0  0  0  0  0
   -1.6241   -2.0633    0.1570 O   0  0  0  0  0  0  0  0  0  0  0  0
   -3.3954   -0.6210   -0.3218 C   0  0  0  0  0  0  0  0  0  0  0  0
   -3.1339   -0.6235   -1.8336 C   0  0  0  0  0  0  0  0  0  0  0  0
   -3.4110   -1.6825   -2.5858 C   0  0  0  0  0  0  0  0  0  0  0  0
   -3.1442   -1.6029   -3.9482 C   0  0  0  0  0  0  0  0  0  0  0  0
   -2.4858    0.0179   -4.1474 S   0  0  0  0  0  0  0  0  0  0  0  0
   -2.6031    0.5134   -2.3711 C   0  0  0  0  0  0  0  0  0  0  0  0
   -4.0068    0.6158    0.0455 N   0  0  0  0  0  0  0  0  0  0  0  0
   -4.4289    0.6598    1.4057 C   0  0  0  0  0  0  0  0  0  0  0  0
   -5.9478    0.5915    1.4031 C   0  0  0  0  0  0  0  0  0  0  0  0
   -6.2496    1.3286    0.0911 C   0  0  0  0  0  0  0  0  0  0  0  0
   -5.1625    0.8138   -0.7967 C   0  0  0  0  0  0  0  0  0  0  0  0
    0.9097   -0.0941    1.4119 C   0  0  0  0  0  0  0  0  0  0  0  0
    2.1098   -0.4035    2.0360 C   0  0  0  0  0  0  0  0  0  0  0  0
    4.9472   -0.1728   -0.2378 C   0  0  0  0  0  0  0  0  0  0  0  0
    8.7974    0.7148   -2.3872 H   0  0  0  0  0  0  0  0  0  0  0  0
    8.1720    0.6525   -0.8382 H   0  0  0  0  0  0  0  0  0  0  0  0
    5.3373    2.0162   -2.7714 H   0  0  0  0  0  0  0  0  0  0  0  0
    3.5111    3.1191   -1.5263 H   0  0  0  0  0  0  0  0  0  0  0  0
    2.5960    2.1613    0.5165 H   0  0  0  0  0  0  0  0  0  0  0  0
    3.6332   -1.6829    4.5083 H   0  0  0  0  0  0  0  0  0  0  0  0
    0.8521   -1.8752    4.7973 H   0  0  0  0  0  0  0  0  0  0  0  0
   -1.2767   -1.2961    3.6339 H   0  0  0  0  0  0  0  0  0  0  0  0
   -1.9824    0.8564    1.4672 H   0  0  0  0  0  0  0  0  0  0  0  0
   -4.1136   -1.4267   -0.0760 H   0  0  0  0  0  0  0  0  0  0  0  0
   -3.8503   -2.6617   -2.2250 H   0  0  0  0  0  0  0  0  0  0  0  0
   -3.2971   -2.3466   -4.7167 H   0  0  0  0  0  0  0  0  0  0  0  0
   -2.3026    1.4605   -2.0024 H   0  0  0  0  0  0  0  0  0  0  0  0
   -4.1947    1.6265    1.9284 H   0  0  0  0  0  0  0  0  0  0  0  0
   -4.0575   -0.2101    1.9794 H   0  0  0  0  0  0  0  0  0  0  0  0
   -6.3988    1.1888    2.2155 H   0  0  0  0  0  0  0  0  0  0  0  0
   -6.3207   -0.4501    1.3629 H   0  0  0  0  0  0  0  0  0  0  0  0
   -7.2635    1.0851   -0.2351 H   0  0  0  0  0  0  0  0  0  0  0  0
   -6.0788    2.4095    0.2642 H   0  0  0  0  0  0  0  0  0  0  0  0
   -5.5072   -0.1802   -1.1955 H   0  0  0  0  0  0  0  0  0  0  0  0
   -4.9403    1.5037   -1.6433 H   0  0  0  0  0  0  0  0  0  0  0  0
    0.9853    0.4095    0.4507 H   0  0  0  0  0  0  0  0  0  0  0  0
    5.3743   -1.1156    0.1115 H   0  0  0  0  0  0  0  0  0  0  0  0
  1  2  1  0
  2  3  2  0
  2  4  2  0
  2  5  1  0
  5  6  2  0
  6  7  1  0
  7  8  2  0
  8  9  1  0
  9 10  1  0
 10 11  2  0
 11 12  1  0
 12 13  1  0
 13 14  2  0
 14 15  1  0
 15 16  2  0
 16 17  1  0
 17 18  1  0
 18 19  2  0
 18 20  1  0
 20 21  1  0
 21 22  1  0
 22 23  2  0
 23 24  1  0
 24 25  1  0
 20 26  1  0
 26 27  1  0
 27 28  1  0
 28 29  1  0
 29 30  1  0
 16 31  1  0
 31 32  2  0
  9 33  2  0
 33  5  1  0
 32 10  1  0
 32 13  1  0
 25 21  2  0
 30 26  1  0
  1 34  1  0
  1 35  1  0
  6 36  1  0
  7 37  1  0
  8 38  1  0
 12 39  1  0
 14 40  1  0
 15 41  1  0
 17 42  1  0
 20 43  1  0
 22 44  1  0
 23 45  1  0
 25 46  1  0
 27 47  1  0
 27 48  1  0
 28 49  1  0
 28 50  1  0
 29 51  1  0
 29 52  1  0
 30 53  1  0
 30 54  1  0
 31 55  1  0
 33 56  1  0
M  END
$$$$
