@<TRIPOS>MOLECULE
*****
 36 38 0 0 0
SMALL
GASTEIGER

@<TRIPOS>ATOM
      1 C          -3.2153   -2.4646    1.7976 C.3     1  UNL1        0.0789
      2 O          -2.5601   -2.0151    0.6291 O.3     1  UNL1       -0.4931
      3 C          -2.7071   -0.7040    0.2240 C.ar    1  UNL1        0.1467
      4 C          -3.4909    0.1539    0.9626 C.ar    1  UNL1       -0.0169
      5 C          -3.6026    1.4587    0.5091 C.ar    1  UNL1       -0.0442
      6 C          -2.9665    1.9095   -0.6323 C.ar    1  UNL1        0.0200
      7 BR         -3.1736    3.7355   -1.1928 Br      1  UNL1       -0.0502
      8 C          -2.1793    1.0348   -1.3679 C.ar    1  UNL1       -0.0175
      9 C          -2.0665   -0.2672   -0.9173 C.ar    1  UNL1        0.1509
     10 S          -1.0791   -1.4372   -1.8053 S.O2    1  UNL1        0.0759
     11 O          -1.9490   -2.6003   -2.2286 O.2     1  UNL1       -0.1499
     12 O          -0.4687   -0.7614   -2.9880 O.2     1  UNL1       -0.1499
     13 N           0.1790   -2.0348   -0.7922 N.pl3   1  UNL1       -0.2147
     14 C           1.1682   -1.1765   -0.2485 C.ar    1  UNL1        0.0667
     15 C           1.4735   -1.3027    1.1117 C.ar    1  UNL1        0.0506
     16 N           2.4108   -0.4731    1.5971 N.ar    1  UNL1       -0.2531
     17 C           3.0459    0.4411    0.8581 C.ar    1  UNL1        0.0711
     18 C           4.0114    1.2845    1.3925 C.ar    1  UNL1       -0.0357
     19 C           4.6643    2.2235    0.6353 C.ar    1  UNL1       -0.0597
     20 C           4.3423    2.3233   -0.6985 C.ar    1  UNL1       -0.0611
     21 C           3.3760    1.4866   -1.2558 C.ar    1  UNL1       -0.0525
     22 C           2.7466    0.5637   -0.4719 C.ar    1  UNL1        0.0022
     23 C           1.7796   -0.2627   -1.0625 C.ar    1  UNL1       -0.0287
     24 H          -3.1649   -3.5665    1.9102 H       1  UNL1        0.0660
     25 H          -4.3144   -2.2257    1.7757 H       1  UNL1        0.0660
     26 H          -2.7402   -2.0523    2.7265 H       1  UNL1        0.0660
     27 H          -3.9799   -0.2151    1.8506 H       1  UNL1        0.0655
     28 H          -4.2156    2.1584    1.0731 H       1  UNL1        0.0630
     29 H          -1.6697    1.3602   -2.2653 H       1  UNL1        0.0649
     30 H           0.2110   -3.0592   -0.5741 H       1  UNL1        0.1737
     31 H           0.9658   -2.0416    1.7267 H       1  UNL1        0.0849
     32 H           4.2343    1.1783    2.4283 H       1  UNL1        0.0639
     33 H           5.4254    2.8957    1.0341 H       1  UNL1        0.0618
     34 H           4.8373    3.0520   -1.3237 H       1  UNL1        0.0618
     35 H           3.1111    1.5501   -2.2963 H       1  UNL1        0.0624
     36 H           1.5609   -0.1496   -2.1213 H       1  UNL1        0.0643
@<TRIPOS>BOND
     1     1     2    1
     2     2     3    1
     3     3     4   ar
     4     4     5   ar
     5     5     6   ar
     6     6     7    1
     7     6     8   ar
     8     8     9   ar
     9     9    10    1
    10    10    11    2
    11    10    12    2
    12    10    13    1
    13    13    14    1
    14    14    15   ar
    15    15    16   ar
    16    16    17   ar
    17    17    18   ar
    18    18    19   ar
    19    19    20   ar
    20    20    21   ar
    21    21    22   ar
    22    22    23   ar
    23     9     3   ar
    24    23    14   ar
    25    22    17   ar
    26     1    24    1
    27     1    25    1
    28     1    26    1
    29     4    27    1
    30     5    28    1
    31     8    29    1
    32    13    30    1
    33    15    31    1
    34    18    32    1
    35    19    33    1
    36    20    34    1
    37    21    35    1
    38    23    36    1
