@<TRIPOS>MOLECULE
*****
 66 69 0 0 0
SMALL
GASTEIGER

@<TRIPOS>ATOM
      1 C          -7.5260   -0.8234   -3.3917 C.3     1  UNL1       -0.0611
      2 C          -7.6175    0.5118   -2.6849 C.3     1  UNL1       -0.0051
      3 C          -7.1698    0.3008   -1.2503 C.3     1  UNL1        0.2059
      4 C          -8.1097   -0.7089   -0.6663 C.2     1  UNL1        0.3490
      5 O          -7.7288   -1.8273   -0.2366 O.2     1  UNL1       -0.2465
      6 O          -9.4629   -0.4167   -0.5873 O.3     1  UNL1       -0.4778
      7 C          -7.3645    1.5821   -0.4467 C.3     1  UNL1        0.0018
      8 C          -6.9073    1.2936    0.9730 C.3     1  UNL1       -0.0201
      9 C          -5.5006    0.7956    0.9119 C.ar    1  UNL1       -0.0053
     10 C          -4.6427    1.0192    1.9725 C.ar    1  UNL1       -0.0517
     11 C          -3.3248    0.5512    1.9147 C.ar    1  UNL1       -0.0195
     12 C          -2.8346   -0.1309    0.8346 C.ar    1  UNL1        0.1240
     13 O          -1.5517   -0.5932    0.7548 O.3     1  UNL1       -0.4917
     14 C          -0.4773   -0.5074    1.6062 C.3     1  UNL1        0.0927
     15 C           0.0632    0.8825    1.8717 C.3     1  UNL1        0.0157
     16 C           0.5268    1.5313    0.5748 C.3     1  UNL1        0.0927
     17 O           1.5057    0.9119   -0.1199 O.3     1  UNL1       -0.4904
     18 C           2.8107    0.6441    0.1572 C.ar    1  UNL1        0.1387
     19 C           3.4770    1.0076    1.3078 C.ar    1  UNL1       -0.0182
     20 C           4.8262    0.6732    1.4717 C.ar    1  UNL1       -0.0548
     21 C           5.5286   -0.0153    0.5137 C.ar    1  UNL1       -0.0427
     22 C           6.9733   -0.3669    0.7004 C.3     1  UNL1       -0.0158
     23 C           7.7384    0.3356   -0.3704 C.3     1  UNL1       -0.0462
     24 C           9.2069   -0.0276   -0.4033 C.3     1  UNL1       -0.0525
     25 C           9.3818   -1.5285   -0.4840 C.3     1  UNL1       -0.0530
     26 C           8.0094   -2.1975   -0.6082 C.3     1  UNL1       -0.0525
     27 C           7.2119   -1.8465    0.6043 C.3     1  UNL1       -0.0462
     28 C           4.8358   -0.3617   -0.6209 C.ar    1  UNL1       -0.0364
     29 C           3.5207   -0.0654   -0.8394 C.ar    1  UNL1        0.0828
     30 CL          2.6897   -0.5419   -2.3244 Cl      1  UNL1       -0.0797
     31 C          -3.7117   -0.3528   -0.2348 C.ar    1  UNL1        0.0221
     32 C          -5.0170    0.1106   -0.1767 C.ar    1  UNL1        0.1287
     33 O          -5.8578   -0.1309   -1.2619 O.3     1  UNL1       -0.4741
     34 H          -7.0412   -1.5994   -2.7555 H       1  UNL1        0.0231
     35 H          -6.8763   -0.7438   -4.3103 H       1  UNL1        0.0231
     36 H          -8.5334   -1.2355   -3.6459 H       1  UNL1        0.0231
     37 H          -8.6586    0.9105   -2.7318 H       1  UNL1        0.0307
     38 H          -6.8790    1.2022   -3.1522 H       1  UNL1        0.0307
     39 H         -10.0991   -0.9570    0.0153 H       1  UNL1        0.2952
     40 H          -8.4333    1.7974   -0.4199 H       1  UNL1        0.0312
     41 H          -6.7302    2.3568   -0.8795 H       1  UNL1        0.0312
     42 H          -7.5738    0.5793    1.4832 H       1  UNL1        0.0316
     43 H          -6.9692    2.2513    1.5303 H       1  UNL1        0.0316
     44 H          -5.0111    1.5595    2.8409 H       1  UNL1        0.0623
     45 H          -2.6938    0.7307    2.7756 H       1  UNL1        0.0654
     46 H          -0.8318   -0.8728    2.6195 H       1  UNL1        0.0697
     47 H           0.3490   -1.2079    1.3590 H       1  UNL1        0.0697
     48 H           0.9233    0.8403    2.5580 H       1  UNL1        0.0331
     49 H          -0.6536    1.5793    2.3204 H       1  UNL1        0.0331
     50 H          -0.3609    1.7649   -0.0753 H       1  UNL1        0.0697
     51 H           0.8959    2.5699    0.8554 H       1  UNL1        0.0697
     52 H           2.9853    1.5685    2.0900 H       1  UNL1        0.0655
     53 H           5.3185    0.9705    2.3821 H       1  UNL1        0.0622
     54 H           7.3124    0.0252    1.7036 H       1  UNL1        0.0349
     55 H           7.7045    1.4431   -0.2307 H       1  UNL1        0.0271
     56 H           7.3297    0.1594   -1.3823 H       1  UNL1        0.0271
     57 H           9.7667    0.4245    0.4380 H       1  UNL1        0.0265
     58 H           9.6153    0.4034   -1.3388 H       1  UNL1        0.0265
     59 H           9.8419   -1.9556    0.4385 H       1  UNL1        0.0265
     60 H           9.9957   -1.8015   -1.3716 H       1  UNL1        0.0265
     61 H           8.1538   -3.3024   -0.7098 H       1  UNL1        0.0265
     62 H           7.5694   -1.8488   -1.5607 H       1  UNL1        0.0265
     63 H           6.2664   -2.4335    0.6620 H       1  UNL1        0.0271
     64 H           7.7867   -2.1552    1.5129 H       1  UNL1        0.0271
     65 H           5.3741   -0.9076   -1.3933 H       1  UNL1        0.0636
     66 H          -3.3445   -0.8863   -1.0890 H       1  UNL1        0.0691
@<TRIPOS>BOND
     1     1     2    1
     2     3     2    1
     3     3     4    1
     4     4     5    2
     5     4     6    1
     6     3     7    1
     7     7     8    1
     8     8     9    1
     9     9    10   ar
    10    10    11   ar
    11    11    12   ar
    12    12    13    1
    13    13    14    1
    14    14    15    1
    15    15    16    1
    16    16    17    1
    17    17    18    1
    18    18    19   ar
    19    19    20   ar
    20    20    21   ar
    21    21    22    1
    22    22    23    1
    23    23    24    1
    24    24    25    1
    25    25    26    1
    26    26    27    1
    27    21    28   ar
    28    28    29   ar
    29    29    30    1
    30    12    31   ar
    31    31    32   ar
    32    32    33    1
    33    33     3    1
    34    32     9   ar
    35    29    18   ar
    36    27    22    1
    37     1    34    1
    38     1    35    1
    39     1    36    1
    40     2    37    1
    41     2    38    1
    42     6    39    1
    43     7    40    1
    44     7    41    1
    45     8    42    1
    46     8    43    1
    47    10    44    1
    48    11    45    1
    49    14    46    1
    50    14    47    1
    51    15    48    1
    52    15    49    1
    53    16    50    1
    54    16    51    1
    55    19    52    1
    56    20    53    1
    57    22    54    1
    58    23    55    1
    59    23    56    1
    60    24    57    1
    61    24    58    1
    62    25    59    1
    63    25    60    1
    64    26    61    1
    65    26    62    1
    66    27    63    1
    67    27    64    1
    68    28    65    1
    69    31    66    1
