@<TRIPOS>MOLECULE
*****
 39 39 0 0 0
SMALL
GASTEIGER

@<TRIPOS>ATOM
      1 C          -0.8573   -2.9508   -1.4377 C.3     1  UNL1       -0.0647
      2 C           0.3509   -2.0937   -1.1387 C.3     1  UNL1       -0.0488
      3 C          -0.0879   -0.6568   -1.2591 C.3     1  UNL1       -0.0123
      4 C           1.0223    0.3402   -0.9830 C.3     1  UNL1       -0.0243
      5 C           0.4906    1.7389   -1.1611 C.3     1  UNL1       -0.0607
      6 C           1.6965    0.1855    0.3130 C.3     1  UNL1        0.0014
      7 N           2.7870    1.0753    0.6425 N.3     1  UNL1       -0.3081
      8 C           3.3835    0.4857    1.8889 C.3     1  UNL1       -0.0130
      9 C           2.3272    2.3939    1.1188 C.3     1  UNL1       -0.0130
     10 C          -1.2449   -0.4667   -0.3401 C.ar    1  UNL1       -0.0405
     11 C          -2.3431    0.2529   -0.8143 C.ar    1  UNL1       -0.0167
     12 C          -3.4029    0.3826    0.0981 C.ar    1  UNL1        0.1171
     13 O          -4.5085    1.1012   -0.3586 O.3     1  UNL1       -0.5068
     14 C          -3.4446   -0.1351    1.4021 C.ar    1  UNL1       -0.0202
     15 C          -2.2786   -0.8055    1.6819 C.ar    1  UNL1       -0.0580
     16 C          -1.1776   -1.0095    0.9017 C.ar    1  UNL1       -0.0581
     17 H          -1.6818   -2.3533   -1.8775 H       1  UNL1        0.0230
     18 H          -0.5810   -3.7420   -2.1507 H       1  UNL1        0.0230
     19 H          -1.2008   -3.4935   -0.5151 H       1  UNL1        0.0230
     20 H           0.7173   -2.3739   -0.1453 H       1  UNL1        0.0269
     21 H           1.1075   -2.3303   -1.9439 H       1  UNL1        0.0269
     22 H          -0.4396   -0.4821   -2.2890 H       1  UNL1        0.0352
     23 H           1.8017    0.2090   -1.7913 H       1  UNL1        0.0316
     24 H           1.2774    2.3888   -1.6480 H       1  UNL1        0.0233
     25 H          -0.3599    1.7280   -1.8982 H       1  UNL1        0.0233
     26 H           0.1293    2.2237   -0.2646 H       1  UNL1        0.0233
     27 H           0.9388    0.3107    1.1603 H       1  UNL1        0.0429
     28 H           2.0591   -0.8531    0.4632 H       1  UNL1        0.0429
     29 H           2.6724    0.7249    2.6989 H       1  UNL1        0.0391
     30 H           4.4087    0.8492    2.0381 H       1  UNL1        0.0391
     31 H           3.3502   -0.6070    1.7111 H       1  UNL1        0.0391
     32 H           2.2839    3.0920    0.2852 H       1  UNL1        0.0391
     33 H           1.4085    2.2881    1.6907 H       1  UNL1        0.0391
     34 H           3.1353    2.7490    1.8445 H       1  UNL1        0.0391
     35 H          -2.4502    0.6986   -1.7797 H       1  UNL1        0.0657
     36 H          -4.3547    1.9697   -0.8868 H       1  UNL1        0.2921
     37 H          -4.2594   -0.0286    2.0740 H       1  UNL1        0.0654
     38 H          -2.2837   -1.2304    2.7025 H       1  UNL1        0.0619
     39 H          -0.3914   -1.5757    1.3314 H       1  UNL1        0.0620
@<TRIPOS>BOND
     1     1     2    1
     2     2     3    1
     3     3     4    1
     4     4     5    1
     5     4     6    1
     6     6     7    1
     7     7     8    1
     8     7     9    1
     9     3    10    1
    10    10    11   ar
    11    11    12   ar
    12    12    13    1
    13    12    14   ar
    14    14    15   ar
    15    15    16   ar
    16    16    10   ar
    17     1    17    1
    18     1    18    1
    19     1    19    1
    20     2    20    1
    21     2    21    1
    22     3    22    1
    23     4    23    1
    24     5    24    1
    25     5    25    1
    26     5    26    1
    27     6    27    1
    28     6    28    1
    29     8    29    1
    30     8    30    1
    31     8    31    1
    32     9    32    1
    33     9    33    1
    34     9    34    1
    35    11    35    1
    36    13    36    1
    37    14    37    1
    38    15    38    1
    39    16    39    1
