@<TRIPOS>MOLECULE
*****
 59 61 0 0 0
SMALL
GASTEIGER

@<TRIPOS>ATOM
      1 C          -1.6206   -4.4441   -0.9643 C.3     1  UNL1        0.0376
      2 O          -1.9539   -3.1349   -1.0523 O.3     1  UNL1       -0.3724
      3 C          -1.0307   -2.1976   -0.6353 C.3     1  UNL1        0.0915
      4 C          -0.7622   -2.5277    0.8801 C.3     1  UNL1       -0.0318
      5 C           0.2559   -2.3943   -1.2935 C.3     1  UNL1       -0.0318
      6 C          -1.6887   -0.8928   -0.5923 C.ar    1  UNL1        0.0228
      7 C          -3.0833   -0.9130   -0.7927 C.ar    1  UNL1        0.0359
      8 N          -3.8318    0.1616   -0.6569 N.ar    1  UNL1       -0.2544
      9 C          -3.3537    1.3779   -0.3172 C.ar    1  UNL1        0.0755
     10 C          -4.2823    2.4712   -0.1977 C.ar    1  UNL1        0.0369
     11 C          -5.6336    2.2236   -0.4323 C.ar    1  UNL1       -0.0314
     12 C          -6.6058    3.1945   -0.3454 C.ar    1  UNL1        0.0418
     13 CL         -8.2772    2.7548   -0.6653 Cl      1  UNL1       -0.0835
     14 C          -6.2571    4.4763   -0.0137 C.ar    1  UNL1       -0.0406
     15 C          -4.9516    4.7496    0.2205 C.ar    1  UNL1       -0.0244
     16 C          -3.9599    3.7520    0.1301 C.ar    1  UNL1        0.1326
     17 F          -2.6795    4.1009    0.3776 F       1  UNL1       -0.2048
     18 C          -1.9967    1.4352   -0.1168 C.ar    1  UNL1       -0.0141
     19 C          -1.1710    0.3052   -0.2568 C.ar    1  UNL1        0.0408
     20 N           0.2293    0.4574    0.0145 N.pl3   1  UNL1       -0.3134
     21 C           1.1121    0.5673   -1.0582 C.ar    1  UNL1        0.0465
     22 C           0.5754    0.6790   -2.3582 C.ar    1  UNL1       -0.0217
     23 C           1.3697    0.7954   -3.4766 C.ar    1  UNL1        0.0293
     24 N           2.6994    0.8034   -3.3322 N.ar    1  UNL1       -0.2624
     25 C           3.2644    0.7013   -2.1352 C.ar    1  UNL1        0.0415
     26 C           2.4700    0.5803   -0.9689 C.ar    1  UNL1        0.0758
     27 C           3.1283    0.4532    0.3157 C.2     1  UNL1        0.2474
     28 O           2.4613    0.2908    1.3530 O.2     1  UNL1       -0.2701
     29 N           4.5364    0.4973    0.5280 N.am    1  UNL1       -0.3088
     30 C           5.2142    0.3712    1.7694 C.3     1  UNL1        0.0377
     31 C           5.0677   -0.8806    2.5327 C.3     1  UNL1        0.0679
     32 C           5.8658   -0.6852    3.8360 C.3     1  UNL1       -0.0375
     33 O           3.8003   -1.2240    2.9264 O.3     1  UNL1       -0.3905
     34 H          -2.5738   -5.0017   -1.2880 H       1  UNL1        0.0524
     35 H          -0.9246   -4.7460   -1.7972 H       1  UNL1        0.0524
     36 H          -1.3520   -4.8434    0.0111 H       1  UNL1        0.0524
     37 H           0.1267   -3.1413    0.9899 H       1  UNL1        0.0261
     38 H          -0.6239   -1.5648    1.3870 H       1  UNL1        0.0261
     39 H          -1.6949   -2.9755    1.2950 H       1  UNL1        0.0261
     40 H           0.4155   -3.5312   -1.3530 H       1  UNL1        0.0261
     41 H           1.1628   -2.1046   -0.7054 H       1  UNL1        0.0261
     42 H           0.2482   -2.0971   -2.3369 H       1  UNL1        0.0261
     43 H          -3.5922   -1.8571   -1.0765 H       1  UNL1        0.0834
     44 H          -5.9594    1.2211   -0.6984 H       1  UNL1        0.0639
     45 H          -7.0115    5.2496    0.0583 H       1  UNL1        0.0633
     46 H          -4.6633    5.7688    0.4858 H       1  UNL1        0.0647
     47 H          -1.5249    2.3456    0.1533 H       1  UNL1        0.0658
     48 H           0.4518    0.4887    1.0167 H       1  UNL1        0.1522
     49 H          -0.4855    0.6742   -2.4889 H       1  UNL1        0.0651
     50 H           0.9807    0.8814   -4.4723 H       1  UNL1        0.0830
     51 H           4.3421    0.7099   -2.0510 H       1  UNL1        0.0838
     52 H           5.1323    0.6373   -0.3126 H       1  UNL1        0.1491
     53 H           4.9146    1.2186    2.4635 H       1  UNL1        0.0487
     54 H           6.3137    0.5485    1.6325 H       1  UNL1        0.0487
     55 H           5.6091   -1.7473    2.0438 H       1  UNL1        0.0606
     56 H           6.1918   -1.6514    4.2551 H       1  UNL1        0.0255
     57 H           5.1855   -0.1574    4.5341 H       1  UNL1        0.0255
     58 H           6.7594   -0.0405    3.6058 H       1  UNL1        0.0255
     59 H           3.6611   -2.1892    2.9510 H       1  UNL1        0.2098
@<TRIPOS>BOND
     1     1     2    1
     2     2     3    1
     3     3     4    1
     4     3     5    1
     5     3     6    1
     6     6     7   ar
     7     7     8   ar
     8     8     9   ar
     9     9    10    1
    10    10    11   ar
    11    11    12   ar
    12    12    13    1
    13    12    14   ar
    14    14    15   ar
    15    15    16   ar
    16    16    17    1
    17     9    18   ar
    18    18    19   ar
    19    19    20    1
    20    20    21    1
    21    21    22   ar
    22    22    23   ar
    23    23    24   ar
    24    24    25   ar
    25    25    26   ar
    26    26    27    1
    27    27    28    2
    28    27    29   am
    29    29    30    1
    30    30    31    1
    31    31    32    1
    32    31    33    1
    33    19     6   ar
    34    26    21   ar
    35    16    10   ar
    36     1    34    1
    37     1    35    1
    38     1    36    1
    39     4    37    1
    40     4    38    1
    41     4    39    1
    42     5    40    1
    43     5    41    1
    44     5    42    1
    45     7    43    1
    46    11    44    1
    47    14    45    1
    48    15    46    1
    49    18    47    1
    50    20    48    1
    51    22    49    1
    52    23    50    1
    53    25    51    1
    54    29    52    1
    55    30    53    1
    56    30    54    1
    57    31    55    1
    58    32    56    1
    59    32    57    1
    60    32    58    1
    61    33    59    1
