@<TRIPOS>MOLECULE
*****
 247 247 0 0 0
SMALL
GASTEIGER

@<TRIPOS>ATOM
      1 C          -0.1714   -7.8899   -5.2359 C.3     1  UNL1       -0.0600
      2 C          -0.5771   -6.9093   -6.3628 C.3     1  UNL1       -0.0369
      3 C           0.3643   -7.1929   -7.4808 C.3     1  UNL1       -0.0600
      4 C          -0.2474   -5.5434   -5.7945 C.3     1  UNL1       -0.0600
      5 C          -2.0106   -7.1408   -6.5938 C.3     1  UNL1       -0.0389
      6 C          -2.7433   -6.3653   -7.6080 C.3     1  UNL1       -0.0094
      7 C          -2.1861   -6.5396   -9.0201 C.3     1  UNL1       -0.0558
      8 C          -4.1371   -7.0278   -7.7065 C.3     1  UNL1       -0.0558
      9 C          -2.9975   -4.9440   -7.3056 C.ar    1  UNL1       -0.0415
     10 C          -4.0748   -4.6836   -6.4478 C.ar    1  UNL1       -0.0546
     11 C          -4.4617   -3.4014   -6.0885 C.ar    1  UNL1       -0.0197
     12 C          -3.7952   -2.2920   -6.5655 C.ar    1  UNL1        0.1206
     13 O          -4.1381   -0.9899   -6.2440 O.3     1  UNL1       -0.4897
     14 C          -3.4050    0.1119   -6.7905 C.3     1  UNL1        0.1128
     15 C          -3.9005    1.4400   -6.4023 C.3     1  UNL1        0.0818
     16 O          -3.9118    1.7726   -5.0566 O.3     1  UNL1       -0.3742
     17 C          -4.4442    3.0447   -4.8989 C.3     1  UNL1        0.0711
     18 C          -4.4998    3.5715   -3.5387 C.3     1  UNL1        0.0711
     19 O          -3.2764    3.7060   -2.8680 O.3     1  UNL1       -0.3752
     20 C          -3.5763    4.2884   -1.6498 C.3     1  UNL1        0.0711
     21 C          -2.3595    4.5610   -0.7738 C.3     1  UNL1        0.0711
     22 O          -2.7232    5.1460    0.3967 O.3     1  UNL1       -0.3752
     23 C          -1.7978    5.4799    1.3246 C.3     1  UNL1        0.0711
     24 C          -0.9754    4.3543    1.9111 C.3     1  UNL1        0.0711
     25 O          -0.1096    4.8659    2.8396 O.3     1  UNL1       -0.3752
     26 C           0.6795    4.0290    3.5366 C.3     1  UNL1        0.0711
     27 C           1.6711    3.2401    2.7056 C.3     1  UNL1        0.0711
     28 O           2.4291    2.3986    3.4573 O.3     1  UNL1       -0.3752
     29 C           3.3722    1.7206    2.8083 C.3     1  UNL1        0.0711
     30 C           3.1200    0.7089    1.7680 C.3     1  UNL1        0.0711
     31 O           2.3895   -0.4006    2.0786 O.3     1  UNL1       -0.3752
     32 C           2.3135   -1.3979    1.1710 C.3     1  UNL1        0.0711
     33 C           1.5175   -2.6134    1.4454 C.3     1  UNL1        0.0711
     34 O           0.1730   -2.5244    1.6639 O.3     1  UNL1       -0.3752
     35 C          -0.4111   -3.7928    1.7933 C.3     1  UNL1        0.0711
     36 C           0.0364   -4.5869    2.9627 C.3     1  UNL1        0.0711
     37 O          -0.2493   -4.0277    4.2050 O.3     1  UNL1       -0.3752
     38 C           0.3632   -4.8147    5.1508 C.3     1  UNL1        0.0711
     39 C           0.0968   -4.4650    6.5782 C.3     1  UNL1        0.0711
     40 O          -1.2277   -4.5630    6.9826 O.3     1  UNL1       -0.3752
     41 C          -1.2960   -4.0920    8.3073 C.3     1  UNL1        0.0711
     42 C          -1.1984   -2.5835    8.3971 C.3     1  UNL1        0.0711
     43 O          -2.2460   -1.9205    7.7763 O.3     1  UNL1       -0.3752
     44 C          -2.5625   -2.2649    6.5141 C.3     1  UNL1        0.0711
     45 C          -3.6878   -1.4454    5.8725 C.3     1  UNL1        0.0711
     46 O          -3.5134   -0.1511    5.7299 O.3     1  UNL1       -0.3752
     47 C          -3.3526    0.6798    6.7958 C.3     1  UNL1        0.0711
     48 C          -3.1368    2.1141    6.1820 C.3     1  UNL1        0.0711
     49 O          -4.2571    2.4225    5.4293 O.3     1  UNL1       -0.3752
     50 C          -4.0776    3.5915    4.7218 C.3     1  UNL1        0.0711
     51 C          -5.3441    3.8915    3.9109 C.3     1  UNL1        0.0711
     52 O          -5.6765    2.9103    3.0484 O.3     1  UNL1       -0.3752
     53 C          -4.8064    2.6033    2.0308 C.3     1  UNL1        0.0711
     54 C          -5.2913    1.4017    1.2776 C.3     1  UNL1        0.0711
     55 O          -4.4899    0.9981    0.1994 O.3     1  UNL1       -0.3752
     56 C          -5.0423   -0.1738   -0.2887 C.3     1  UNL1        0.0711
     57 C          -4.4262   -0.7842   -1.4480 C.3     1  UNL1        0.0711
     58 O          -3.0774   -1.1725   -1.3798 O.3     1  UNL1       -0.3752
     59 C          -2.9864   -2.1272   -2.4136 C.3     1  UNL1        0.0711
     60 C          -1.7102   -2.7511   -2.6858 C.3     1  UNL1        0.0711
     61 O          -0.6120   -2.0759   -3.1324 O.3     1  UNL1       -0.3752
     62 C          -0.8095   -1.6026   -4.4338 C.3     1  UNL1        0.0711
     63 C           0.3349   -1.0414   -5.1555 C.3     1  UNL1        0.0711
     64 O           0.9778    0.0634   -4.6367 O.3     1  UNL1       -0.3752
     65 C           2.0281    0.3132   -5.5528 C.3     1  UNL1        0.0711
     66 C           2.8529    1.5083   -5.1587 C.3     1  UNL1        0.0711
     67 O           3.4357    1.3878   -3.9414 O.3     1  UNL1       -0.3752
     68 C           4.3739    0.3686   -3.8041 C.3     1  UNL1        0.0711
     69 C           4.8058    0.2338   -2.3824 C.3     1  UNL1        0.0711
     70 O           5.7668   -0.7856   -2.1567 O.3     1  UNL1       -0.3752
     71 C           5.7676   -0.8255   -0.7299 C.3     1  UNL1        0.0711
     72 C           6.6372   -1.8487   -0.1138 C.3     1  UNL1        0.0711
     73 O           6.5693   -1.8726    1.2708 O.3     1  UNL1       -0.3752
     74 C           6.9259   -0.7447    1.9281 C.3     1  UNL1        0.0711
     75 C           6.7090   -0.8631    3.4321 C.3     1  UNL1        0.0711
     76 O           5.3521   -1.1068    3.6751 O.3     1  UNL1       -0.3752
     77 C           5.0541   -1.1596    5.0096 C.3     1  UNL1        0.0711
     78 C           3.6561   -1.4454    5.4186 C.3     1  UNL1        0.0711
     79 O           2.6870   -0.5574    4.9859 O.3     1  UNL1       -0.3752
     80 C           1.4786   -0.9081    5.5015 C.3     1  UNL1        0.0711
     81 C           0.2852   -0.0916    5.0689 C.3     1  UNL1        0.0711
     82 O           0.0571   -0.1647    3.7212 O.3     1  UNL1       -0.3752
     83 C          -1.0222    0.4828    3.2102 C.3     1  UNL1        0.0711
     84 C          -1.2235    0.3853    1.7071 C.3     1  UNL1        0.0711
     85 O          -0.1965    0.8799    0.9750 O.3     1  UNL1       -0.3752
     86 C          -0.3874    0.8161   -0.3623 C.3     1  UNL1        0.0711
     87 C           0.6848    1.4489   -1.2201 C.3     1  UNL1        0.0711
     88 O           0.8578    2.7839   -0.9778 O.3     1  UNL1       -0.3752
     89 C           1.8125    3.2884   -1.8492 C.3     1  UNL1        0.0711
     90 C           2.0640    4.7382   -1.8014 C.3     1  UNL1        0.0711
     91 O           2.5231    5.3679   -0.7048 O.3     1  UNL1       -0.3752
     92 C           3.7862    5.0928   -0.2636 C.3     1  UNL1        0.0711
     93 C           4.0845    6.0224    0.9239 C.3     1  UNL1        0.0711
     94 O           5.3426    5.8297    1.4158 O.3     1  UNL1       -0.3752
     95 C           5.6238    6.5921    2.5221 C.3     1  UNL1        0.0711
     96 C           4.8568    6.2580    3.7575 C.3     1  UNL1        0.0711
     97 O           5.1607    7.0612    4.8644 O.3     1  UNL1       -0.3752
     98 C           4.5216    6.5421    5.9596 C.3     1  UNL1        0.0711
     99 C           5.1356    5.4660    6.7556 C.3     1  UNL1        0.0711
    100 O           5.5345    4.2883    6.2502 O.3     1  UNL1       -0.3752
    101 C           6.7952    4.3832    5.6638 C.3     1  UNL1        0.0708
    102 C           7.2212    3.0930    4.9930 C.3     1  UNL1        0.0676
    103 O           6.3123    2.7644    3.9815 O.3     1  UNL1       -0.3927
    104 C          -2.7240   -2.5658   -7.4184 C.ar    1  UNL1       -0.0197
    105 C          -2.3286   -3.8277   -7.7822 C.ar    1  UNL1       -0.0546
    106 H           0.8334   -7.6053   -4.8668 H       1  UNL1        0.0235
    107 H          -0.0819   -8.9174   -5.6292 H       1  UNL1        0.0235
    108 H          -0.9133   -7.8611   -4.4076 H       1  UNL1        0.0235
    109 H           1.3637   -7.4658   -7.0130 H       1  UNL1        0.0235
    110 H           0.6282   -6.3102   -8.1053 H       1  UNL1        0.0235
    111 H           0.1106   -8.1032   -8.0633 H       1  UNL1        0.0235
    112 H           0.1148   -4.9139   -6.6242 H       1  UNL1        0.0235
    113 H          -1.1143   -5.0928   -5.2764 H       1  UNL1        0.0235
    114 H           0.6287   -5.6310   -5.0867 H       1  UNL1        0.0235
    115 H          -2.5424   -6.9890   -5.6049 H       1  UNL1        0.0279
    116 H          -2.1872   -8.2198   -6.8077 H       1  UNL1        0.0279
    117 H          -2.9918   -6.3447   -9.7953 H       1  UNL1        0.0238
    118 H          -1.3862   -5.8523   -9.2741 H       1  UNL1        0.0238
    119 H          -1.9661   -7.6178   -9.1472 H       1  UNL1        0.0238
    120 H          -4.0063   -7.9406   -8.3152 H       1  UNL1        0.0238
    121 H          -4.5260   -7.3080   -6.7288 H       1  UNL1        0.0238
    122 H          -4.8147   -6.3535   -8.3017 H       1  UNL1        0.0238
    123 H          -4.7261   -5.4281   -5.9783 H       1  UNL1        0.0622
    124 H          -5.2839   -3.1719   -5.4291 H       1  UNL1        0.0654
    125 H          -3.5765    0.0047   -7.8997 H       1  UNL1        0.0720
    126 H          -2.3085   -0.0283   -6.6672 H       1  UNL1        0.0720
    127 H          -3.2815    2.2121   -6.9118 H       1  UNL1        0.0594
    128 H          -4.9298    1.5616   -6.8231 H       1  UNL1        0.0594
    129 H          -3.9460    3.7854   -5.5680 H       1  UNL1        0.0583
    130 H          -5.4943    2.9723   -5.3304 H       1  UNL1        0.0583
    131 H          -4.8959    4.6274   -3.5938 H       1  UNL1        0.0583
    132 H          -5.2583    3.0654   -2.8722 H       1  UNL1        0.0583
    133 H          -4.0473    5.2704   -1.8593 H       1  UNL1        0.0583
    134 H          -4.3488    3.7224   -1.0825 H       1  UNL1        0.0583
    135 H          -1.6562    5.2559   -1.2996 H       1  UNL1        0.0583
    136 H          -1.8135    3.5974   -0.6939 H       1  UNL1        0.0583
    137 H          -2.3699    5.9038    2.2108 H       1  UNL1        0.0583
    138 H          -1.1418    6.3365    1.0258 H       1  UNL1        0.0583
    139 H          -1.5820    3.5616    2.3770 H       1  UNL1        0.0583
    140 H          -0.4686    3.8808    1.0515 H       1  UNL1        0.0583
    141 H           1.3231    4.6667    4.2153 H       1  UNL1        0.0583
    142 H           0.0840    3.3959    4.2232 H       1  UNL1        0.0583
    143 H           1.1593    2.7401    1.9127 H       1  UNL1        0.0583
    144 H           2.3864    3.9582    2.2231 H       1  UNL1        0.0583
    145 H           4.1264    2.4613    2.3113 H       1  UNL1        0.0583
    146 H           4.0797    1.2654    3.5872 H       1  UNL1        0.0583
    147 H           4.1495    0.3436    1.4428 H       1  UNL1        0.0583
    148 H           2.7094    1.1234    0.8200 H       1  UNL1        0.0583
    149 H           3.3659   -1.8211    0.9555 H       1  UNL1        0.0583
    150 H           2.0125   -1.0383    0.1482 H       1  UNL1        0.0583
    151 H           1.6277   -3.2793    0.5259 H       1  UNL1        0.0583
    152 H           1.9589   -3.2503    2.2594 H       1  UNL1        0.0583
    153 H          -0.2692   -4.4082    0.8736 H       1  UNL1        0.0583
    154 H          -1.5015   -3.6300    1.8859 H       1  UNL1        0.0583
    155 H           1.0874   -4.9350    2.9393 H       1  UNL1        0.0583
    156 H          -0.5691   -5.5426    2.9410 H       1  UNL1        0.0583
    157 H           1.4698   -4.6675    5.0035 H       1  UNL1        0.0583
    158 H           0.2190   -5.9052    4.9909 H       1  UNL1        0.0583
    159 H           0.5799   -3.5437    6.8852 H       1  UNL1        0.0583
    160 H           0.6248   -5.2738    7.1849 H       1  UNL1        0.0583
    161 H          -0.5037   -4.5371    8.9281 H       1  UNL1        0.0583
    162 H          -2.2538   -4.3772    8.7892 H       1  UNL1        0.0583
    163 H          -0.2421   -2.2265    8.0310 H       1  UNL1        0.0583
    164 H          -1.2537   -2.2616    9.4769 H       1  UNL1        0.0583
    165 H          -3.0226   -3.3205    6.5811 H       1  UNL1        0.0583
    166 H          -1.6889   -2.3541    5.8488 H       1  UNL1        0.0583
    167 H          -4.5998   -1.6889    6.5139 H       1  UNL1        0.0583
    168 H          -3.9058   -1.9239    4.8736 H       1  UNL1        0.0583
    169 H          -2.5025    0.4093    7.4302 H       1  UNL1        0.0583
    170 H          -4.2390    0.7474    7.4601 H       1  UNL1        0.0583
    171 H          -3.0462    2.8123    7.0221 H       1  UNL1        0.0583
    172 H          -2.1987    2.1111    5.6136 H       1  UNL1        0.0583
    173 H          -3.2318    3.4900    4.0477 H       1  UNL1        0.0583
    174 H          -3.9209    4.4582    5.4153 H       1  UNL1        0.0583
    175 H          -6.1338    4.0490    4.6915 H       1  UNL1        0.0583
    176 H          -5.2195    4.8842    3.3875 H       1  UNL1        0.0583
    177 H          -4.7140    3.5047    1.3740 H       1  UNL1        0.0583
    178 H          -3.8185    2.4182    2.4598 H       1  UNL1        0.0583
    179 H          -6.3426    1.6124    0.9463 H       1  UNL1        0.0583
    180 H          -5.3243    0.5222    1.9753 H       1  UNL1        0.0583
    181 H          -5.2276   -0.9003    0.5580 H       1  UNL1        0.0583
    182 H          -6.1013    0.1458   -0.6039 H       1  UNL1        0.0583
    183 H          -5.0455   -1.6496   -1.8656 H       1  UNL1        0.0583
    184 H          -4.4202   -0.0796   -2.3492 H       1  UNL1        0.0583
    185 H          -3.5133   -1.6874   -3.2908 H       1  UNL1        0.0583
    186 H          -3.7274   -2.9242   -2.0667 H       1  UNL1        0.0583
    187 H          -1.8400   -3.6182   -3.3963 H       1  UNL1        0.0583
    188 H          -1.3951   -3.2919   -1.7258 H       1  UNL1        0.0583
    189 H          -1.2022   -2.4693   -5.0083 H       1  UNL1        0.0583
    190 H          -1.6478   -0.8483   -4.4781 H       1  UNL1        0.0583
    191 H          -0.0446   -0.7266   -6.1789 H       1  UNL1        0.0583
    192 H           1.1094   -1.8301   -5.4305 H       1  UNL1        0.0583
    193 H           1.5283    0.5365   -6.5364 H       1  UNL1        0.0583
    194 H           2.6107   -0.5963   -5.6980 H       1  UNL1        0.0583
    195 H           3.6808    1.5555   -5.9262 H       1  UNL1        0.0583
    196 H           2.2941    2.4513   -5.3027 H       1  UNL1        0.0583
    197 H           5.2808    0.6992   -4.3893 H       1  UNL1        0.0583
    198 H           3.9870   -0.5684   -4.2348 H       1  UNL1        0.0583
    199 H           5.2453    1.1677   -1.9779 H       1  UNL1        0.0583
    200 H           3.8825    0.0574   -1.7675 H       1  UNL1        0.0583
    201 H           6.1153    0.1935   -0.4359 H       1  UNL1        0.0583
    202 H           4.7069   -0.8561   -0.4850 H       1  UNL1        0.0583
    203 H           7.6945   -1.6127   -0.4339 H       1  UNL1        0.0583
    204 H           6.4528   -2.8774   -0.4825 H       1  UNL1        0.0583
    205 H           6.4700    0.1801    1.5498 H       1  UNL1        0.0583
    206 H           8.0520   -0.6147    1.7833 H       1  UNL1        0.0583
    207 H           7.3507   -1.6611    3.8321 H       1  UNL1        0.0583
    208 H           6.9502    0.1159    3.8812 H       1  UNL1        0.0583
    209 H           5.2855   -0.1194    5.4097 H       1  UNL1        0.0583
    210 H           5.7963   -1.8004    5.5467 H       1  UNL1        0.0583
    211 H           3.3510   -2.4692    5.0896 H       1  UNL1        0.0583
    212 H           3.6232   -1.4008    6.5512 H       1  UNL1        0.0583
    213 H           1.4671   -0.9016    6.6331 H       1  UNL1        0.0583
    214 H           1.1992   -1.9726    5.2576 H       1  UNL1        0.0583
    215 H          -0.6076   -0.3130    5.6468 H       1  UNL1        0.0583
    216 H           0.5569    0.9685    5.3790 H       1  UNL1        0.0583
    217 H          -1.9309   -0.0641    3.6201 H       1  UNL1        0.0583
    218 H          -1.1779    1.5209    3.5661 H       1  UNL1        0.0583
    219 H          -1.6200   -0.5955    1.4348 H       1  UNL1        0.0583
    220 H          -2.0926    1.1108    1.5197 H       1  UNL1        0.0583
    221 H          -0.3407   -0.2847   -0.6368 H       1  UNL1        0.0583
    222 H          -1.3535    1.2576   -0.6069 H       1  UNL1        0.0583
    223 H           0.2784    1.3790   -2.2740 H       1  UNL1        0.0583
    224 H           1.6343    0.9361   -1.2485 H       1  UNL1        0.0583
    225 H           2.7893    2.7522   -1.7033 H       1  UNL1        0.0583
    226 H           1.4668    3.0057   -2.8822 H       1  UNL1        0.0583
    227 H           2.8452    4.9380   -2.6175 H       1  UNL1        0.0583
    228 H           1.1591    5.2993   -2.1919 H       1  UNL1        0.0583
    229 H           3.8689    4.0620    0.1883 H       1  UNL1        0.0583
    230 H           4.5983    5.1469   -0.9813 H       1  UNL1        0.0583
    231 H           3.9556    7.0537    0.4772 H       1  UNL1        0.0583
    232 H           3.3256    5.9674    1.7013 H       1  UNL1        0.0583
    233 H           5.4379    7.6862    2.3041 H       1  UNL1        0.0583
    234 H           6.7289    6.5781    2.7620 H       1  UNL1        0.0583
    235 H           3.7469    6.5163    3.5802 H       1  UNL1        0.0583
    236 H           4.8368    5.1830    3.9352 H       1  UNL1        0.0583
    237 H           4.1937    7.3674    6.6695 H       1  UNL1        0.0583
    238 H           3.4941    6.1362    5.6294 H       1  UNL1        0.0583
    239 H           5.9780    5.8780    7.4174 H       1  UNL1        0.0583
    240 H           4.3671    5.1978    7.5765 H       1  UNL1        0.0583
    241 H           6.9855    5.2140    5.0029 H       1  UNL1        0.0583
    242 H           7.5499    4.5280    6.5106 H       1  UNL1        0.0583
    243 H           7.2731    2.2527    5.7181 H       1  UNL1        0.0580
    244 H           8.1910    3.3127    4.4983 H       1  UNL1        0.0580
    245 H           6.5934    3.1284    3.0978 H       1  UNL1        0.2095
    246 H          -2.1542   -1.7133   -7.8287 H       1  UNL1        0.0654
    247 H          -1.5008   -4.0388   -8.4394 H       1  UNL1        0.0622
@<TRIPOS>BOND
     1     1     2    1
     2     2     3    1
     3     2     4    1
     4     2     5    1
     5     5     6    1
     6     6     7    1
     7     6     8    1
     8     6     9    1
     9     9    10   ar
    10    10    11   ar
    11    11    12   ar
    12    12    13    1
    13    13    14    1
    14    14    15    1
    15    15    16    1
    16    16    17    1
    17    17    18    1
    18    18    19    1
    19    19    20    1
    20    20    21    1
    21    21    22    1
    22    22    23    1
    23    23    24    1
    24    24    25    1
    25    25    26    1
    26    26    27    1
    27    27    28    1
    28    28    29    1
    29    29    30    1
    30    30    31    1
    31    31    32    1
    32    32    33    1
    33    33    34    1
    34    34    35    1
    35    35    36    1
    36    36    37    1
    37    37    38    1
    38    38    39    1
    39    39    40    1
    40    40    41    1
    41    41    42    1
    42    42    43    1
    43    43    44    1
    44    44    45    1
    45    45    46    1
    46    46    47    1
    47    47    48    1
    48    48    49    1
    49    49    50    1
    50    50    51    1
    51    51    52    1
    52    52    53    1
    53    53    54    1
    54    54    55    1
    55    55    56    1
    56    56    57    1
    57    57    58    1
    58    58    59    1
    59    59    60    1
    60    60    61    1
    61    61    62    1
    62    62    63    1
    63    63    64    1
    64    64    65    1
    65    65    66    1
    66    66    67    1
    67    67    68    1
    68    68    69    1
    69    69    70    1
    70    70    71    1
    71    71    72    1
    72    72    73    1
    73    73    74    1
    74    74    75    1
    75    75    76    1
    76    76    77    1
    77    77    78    1
    78    78    79    1
    79    79    80    1
    80    80    81    1
    81    81    82    1
    82    82    83    1
    83    83    84    1
    84    84    85    1
    85    85    86    1
    86    86    87    1
    87    87    88    1
    88    88    89    1
    89    89    90    1
    90    90    91    1
    91    91    92    1
    92    92    93    1
    93    93    94    1
    94    94    95    1
    95    95    96    1
    96    96    97    1
    97    97    98    1
    98    98    99    1
    99    99   100    1
   100   100   101    1
   101   101   102    1
   102   102   103    1
   103    12   104   ar
   104   104   105   ar
   105   105     9   ar
   106     1   106    1
   107     1   107    1
   108     1   108    1
   109     3   109    1
   110     3   110    1
   111     3   111    1
   112     4   112    1
   113     4   113    1
   114     4   114    1
   115     5   115    1
   116     5   116    1
   117     7   117    1
   118     7   118    1
   119     7   119    1
   120     8   120    1
   121     8   121    1
   122     8   122    1
   123    10   123    1
   124    11   124    1
   125    14   125    1
   126    14   126    1
   127    15   127    1
   128    15   128    1
   129    17   129    1
   130    17   130    1
   131    18   131    1
   132    18   132    1
   133    20   133    1
   134    20   134    1
   135    21   135    1
   136    21   136    1
   137    23   137    1
   138    23   138    1
   139    24   139    1
   140    24   140    1
   141    26   141    1
   142    26   142    1
   143    27   143    1
   144    27   144    1
   145    29   145    1
   146    29   146    1
   147    30   147    1
   148    30   148    1
   149    32   149    1
   150    32   150    1
   151    33   151    1
   152    33   152    1
   153    35   153    1
   154    35   154    1
   155    36   155    1
   156    36   156    1
   157    38   157    1
   158    38   158    1
   159    39   159    1
   160    39   160    1
   161    41   161    1
   162    41   162    1
   163    42   163    1
   164    42   164    1
   165    44   165    1
   166    44   166    1
   167    45   167    1
   168    45   168    1
   169    47   169    1
   170    47   170    1
   171    48   171    1
   172    48   172    1
   173    50   173    1
   174    50   174    1
   175    51   175    1
   176    51   176    1
   177    53   177    1
   178    53   178    1
   179    54   179    1
   180    54   180    1
   181    56   181    1
   182    56   182    1
   183    57   183    1
   184    57   184    1
   185    59   185    1
   186    59   186    1
   187    60   187    1
   188    60   188    1
   189    62   189    1
   190    62   190    1
   191    63   191    1
   192    63   192    1
   193    65   193    1
   194    65   194    1
   195    66   195    1
   196    66   196    1
   197    68   197    1
   198    68   198    1
   199    69   199    1
   200    69   200    1
   201    71   201    1
   202    71   202    1
   203    72   203    1
   204    72   204    1
   205    74   205    1
   206    74   206    1
   207    75   207    1
   208    75   208    1
   209    77   209    1
   210    77   210    1
   211    78   211    1
   212    78   212    1
   213    80   213    1
   214    80   214    1
   215    81   215    1
   216    81   216    1
   217    83   217    1
   218    83   218    1
   219    84   219    1
   220    84   220    1
   221    86   221    1
   222    86   222    1
   223    87   223    1
   224    87   224    1
   225    89   225    1
   226    89   226    1
   227    90   227    1
   228    90   228    1
   229    92   229    1
   230    92   230    1
   231    93   231    1
   232    93   232    1
   233    95   233    1
   234    95   234    1
   235    96   235    1
   236    96   236    1
   237    98   237    1
   238    98   238    1
   239    99   239    1
   240    99   240    1
   241   101   241    1
   242   101   242    1
   243   102   243    1
   244   102   244    1
   245   103   245    1
   246   104   246    1
   247   105   247    1
