@<TRIPOS>MOLECULE
*****
 51 54 0 0 0
SMALL
GASTEIGER

@<TRIPOS>ATOM
      1 C          -3.4924    0.3774   -2.3476 C.3     1  UNL1       -0.0274
      2 C          -3.2483    0.0813   -0.8327 C.3     1  UNL1        0.1037
      3 O          -1.9765   -0.0951   -0.5330 O.3     1  UNL1       -0.4725
      4 C          -1.0066   -0.8685   -0.0369 C.ar    1  UNL1        0.2265
      5 N           0.2861   -0.4163    0.0032 N.ar    1  UNL1       -0.2121
      6 C           1.2836   -1.1481    0.4868 C.ar    1  UNL1        0.0798
      7 C           2.6677   -0.6196    0.5114 C.ar    1  UNL1        0.0379
      8 C           3.7889   -1.2640    0.9803 C.ar    1  UNL1        0.0586
      9 N           4.8278   -0.4485    0.8235 N.ar    1  UNL1       -0.1790
     10 N           4.4149    0.6951    0.2714 N.ar    1  UNL1       -0.2705
     11 C           5.2975    1.8109   -0.0387 C.3     1  UNL1        0.0497
     12 C           5.7998    1.5975   -1.4522 C.3     1  UNL1        0.0623
     13 C           6.7180    2.7177   -1.8331 C.3     1  UNL1        0.3918
     14 F           6.0325    3.9129   -1.7635 F       1  UNL1       -0.1707
     15 F           7.2767    2.5273   -3.0685 F       1  UNL1       -0.1707
     16 F           7.7645    2.8085   -0.9190 F       1  UNL1       -0.1707
     17 C           3.0813    0.6220    0.0651 C.ar    1  UNL1        0.0347
     18 C           1.0958   -2.4204    0.9864 C.ar    1  UNL1       -0.0076
     19 C          -0.1816   -2.9294    0.9728 C.ar    1  UNL1        0.0999
     20 N          -0.7038   -4.1242    1.3806 N.ar    1  UNL1       -0.1712
     21 N          -1.9908   -4.1513    1.1635 N.ar    1  UNL1       -0.2732
     22 C          -2.9742   -5.1920    1.4249 C.3     1  UNL1        0.0302
     23 C          -2.3235   -2.9504    0.6014 C.ar    1  UNL1        0.0380
     24 C          -1.2006   -2.1527    0.4666 C.ar    1  UNL1        0.0812
     25 C          -3.9034    1.3058   -0.1652 C.3     1  UNL1        0.0196
     26 C          -3.7931    1.2455    1.3274 C.3     1  UNL1        0.0182
     27 N          -3.9267    2.6460    1.6951 N.am    1  UNL1       -0.3149
     28 C          -3.5610    3.4736    0.6024 C.2     1  UNL1        0.2135
     29 O          -3.5670    4.7267    0.5465 O.2     1  UNL1       -0.2758
     30 C          -3.1554    2.5719   -0.5042 C.3     1  UNL1        0.0315
     31 H          -2.9773   -0.4384   -2.8773 H       1  UNL1        0.0265
     32 H          -3.0364    1.3255   -2.6286 H       1  UNL1        0.0265
     33 H          -4.5765    0.4328   -2.5406 H       1  UNL1        0.0265
     34 H          -3.9428   -0.7384   -0.6130 H       1  UNL1        0.0734
     35 H           3.8385   -2.2564    1.4045 H       1  UNL1        0.0854
     36 H           6.1474    1.7842    0.6707 H       1  UNL1        0.0511
     37 H           4.7099    2.7288    0.0523 H       1  UNL1        0.0511
     38 H           6.2554    0.6035   -1.5859 H       1  UNL1        0.0370
     39 H           4.9149    1.6264   -2.1426 H       1  UNL1        0.0370
     40 H           2.4473    1.3785   -0.3643 H       1  UNL1        0.0833
     41 H           1.9075   -3.0175    1.3806 H       1  UNL1        0.0661
     42 H          -3.2948   -5.6730    0.4949 H       1  UNL1        0.0473
     43 H          -3.9031   -4.7577    1.8915 H       1  UNL1        0.0473
     44 H          -2.5489   -5.8728    2.1762 H       1  UNL1        0.0473
     45 H          -3.3084   -2.6601    0.3049 H       1  UNL1        0.0834
     46 H          -4.9251    1.3504   -0.5440 H       1  UNL1        0.0356
     47 H          -4.5509    0.6043    1.7887 H       1  UNL1        0.0466
     48 H          -2.7533    0.9420    1.5861 H       1  UNL1        0.0466
     49 H          -4.2448    2.9893    2.6257 H       1  UNL1        0.1487
     50 H          -2.0682    2.3289   -0.4285 H       1  UNL1        0.0363
     51 H          -3.4205    2.9801   -1.4983 H       1  UNL1        0.0363
@<TRIPOS>BOND
     1     1     2    1
     2     2     3    1
     3     3     4    1
     4     4     5   ar
     5     5     6   ar
     6     6     7    1
     7     7     8   ar
     8     8     9   ar
     9     9    10   ar
    10    10    11    1
    11    11    12    1
    12    12    13    1
    13    13    14    1
    14    13    15    1
    15    13    16    1
    16    10    17   ar
    17     6    18   ar
    18    18    19   ar
    19    19    20   ar
    20    20    21   ar
    21    21    22    1
    22    21    23   ar
    23    23    24   ar
    24     2    25    1
    25    25    26    1
    26    26    27    1
    27    27    28   am
    28    28    29    2
    29    28    30    1
    30    24     4   ar
    31    30    25    1
    32    17     7   ar
    33    24    19   ar
    34     1    31    1
    35     1    32    1
    36     1    33    1
    37     2    34    1
    38     8    35    1
    39    11    36    1
    40    11    37    1
    41    12    38    1
    42    12    39    1
    43    17    40    1
    44    18    41    1
    45    22    42    1
    46    22    43    1
    47    22    44    1
    48    23    45    1
    49    25    46    1
    50    26    47    1
    51    26    48    1
    52    27    49    1
    53    30    50    1
    54    30    51    1
