
     RDKit          3D

 51 54  0  0  0  0  0  0  0  0999 V2000
   -3.4924    0.3774   -2.3476 C   0  0  0  0  0  0  0  0  0  0  0  0
   -3.2483    0.0813   -0.8327 C   0  0  1  0  0  0  0  0  0  0  0  0
   -1.9765   -0.0951   -0.5330 O   0  0  0  0  0  0  0  0  0  0  0  0
   -1.0066   -0.8685   -0.0369 C   0  0  0  0  0  0  0  0  0  0  0  0
    0.2861   -0.4163    0.0032 N   0  0  0  0  0  0  0  0  0  0  0  0
    1.2836   -1.1481    0.4868 C   0  0  0  0  0  0  0  0  0  0  0  0
    2.6677   -0.6196    0.5114 C   0  0  0  0  0  0  0  0  0  0  0  0
    3.7889   -1.2640    0.9803 C   0  0  0  0  0  0  0  0  0  0  0  0
    4.8278   -0.4485    0.8235 N   0  0  0  0  0  0  0  0  0  0  0  0
    4.4149    0.6951    0.2714 N   0  0  0  0  0  0  0  0  0  0  0  0
    5.2975    1.8109   -0.0387 C   0  0  0  0  0  0  0  0  0  0  0  0
    5.7998    1.5975   -1.4522 C   0  0  0  0  0  0  0  0  0  0  0  0
    6.7180    2.7177   -1.8331 C   0  0  0  0  0  0  0  0  0  0  0  0
    6.0325    3.9129   -1.7635 F   0  0  0  0  0  0  0  0  0  0  0  0
    7.2767    2.5273   -3.0685 F   0  0  0  0  0  0  0  0  0  0  0  0
    7.7645    2.8085   -0.9190 F   0  0  0  0  0  0  0  0  0  0  0  0
    3.0813    0.6220    0.0651 C   0  0  0  0  0  0  0  0  0  0  0  0
    1.0958   -2.4204    0.9864 C   0  0  0  0  0  0  0  0  0  0  0  0
   -0.1816   -2.9294    0.9728 C   0  0  0  0  0  0  0  0  0  0  0  0
   -0.7038   -4.1242    1.3806 N   0  0  0  0  0  0  0  0  0  0  0  0
   -1.9908   -4.1513    1.1635 N   0  0  0  0  0  0  0  0  0  0  0  0
   -2.9742   -5.1920    1.4249 C   0  0  0  0  0  0  0  0  0  0  0  0
   -2.3235   -2.9504    0.6014 C   0  0  0  0  0  0  0  0  0  0  0  0
   -1.2006   -2.1527    0.4666 C   0  0  0  0  0  0  0  0  0  0  0  0
   -3.9034    1.3058   -0.1652 C   0  0  1  0  0  0  0  0  0  0  0  0
   -3.7931    1.2455    1.3274 C   0  0  0  0  0  0  0  0  0  0  0  0
   -3.9267    2.6460    1.6951 N   0  0  0  0  0  0  0  0  0  0  0  0
   -3.5610    3.4736    0.6024 C   0  0  0  0  0  0  0  0  0  0  0  0
   -3.5670    4.7267    0.5465 O   0  0  0  0  0  0  0  0  0  0  0  0
   -3.1554    2.5719   -0.5042 C   0  0  0  0  0  0  0  0  0  0  0  0
   -2.9773   -0.4384   -2.8773 H   0  0  0  0  0  0  0  0  0  0  0  0
   -3.0364    1.3255   -2.6286 H   0  0  0  0  0  0  0  0  0  0  0  0
   -4.5765    0.4328   -2.5406 H   0  0  0  0  0  0  0  0  0  0  0  0
   -3.9428   -0.7384   -0.6130 H   0  0  0  0  0  0  0  0  0  0  0  0
    3.8385   -2.2564    1.4045 H   0  0  0  0  0  0  0  0  0  0  0  0
    6.1474    1.7842    0.6707 H   0  0  0  0  0  0  0  0  0  0  0  0
    4.7099    2.7288    0.0523 H   0  0  0  0  0  0  0  0  0  0  0  0
    6.2554    0.6035   -1.5859 H   0  0  0  0  0  0  0  0  0  0  0  0
    4.9149    1.6264   -2.1426 H   0  0  0  0  0  0  0  0  0  0  0  0
    2.4473    1.3785   -0.3643 H   0  0  0  0  0  0  0  0  0  0  0  0
    1.9075   -3.0175    1.3806 H   0  0  0  0  0  0  0  0  0  0  0  0
   -3.2948   -5.6730    0.4949 H   0  0  0  0  0  0  0  0  0  0  0  0
   -3.9031   -4.7577    1.8915 H   0  0  0  0  0  0  0  0  0  0  0  0
   -2.5489   -5.8728    2.1762 H   0  0  0  0  0  0  0  0  0  0  0  0
   -3.3084   -2.6601    0.3049 H   0  0  0  0  0  0  0  0  0  0  0  0
   -4.9251    1.3504   -0.5440 H   0  0  0  0  0  0  0  0  0  0  0  0
   -4.5509    0.6043    1.7887 H   0  0  0  0  0  0  0  0  0  0  0  0
   -2.7533    0.9420    1.5861 H   0  0  0  0  0  0  0  0  0  0  0  0
   -4.2448    2.9893    2.6257 H   0  0  0  0  0  0  0  0  0  0  0  0
   -2.0682    2.3289   -0.4285 H   0  0  0  0  0  0  0  0  0  0  0  0
   -3.4205    2.9801   -1.4983 H   0  0  0  0  0  0  0  0  0  0  0  0
  1  2  1  0
  2  3  1  0
  3  4  1  0
  4  5  2  0
  5  6  1  0
  6  7  1  0
  7  8  1  0
  8  9  2  0
  9 10  1  0
 10 11  1  0
 11 12  1  0
 12 13  1  0
 13 14  1  0
 13 15  1  0
 13 16  1  0
 10 17  1  0
  6 18  2  0
 18 19  1  0
 19 20  2  0
 20 21  1  0
 21 22  1  0
 21 23  1  0
 23 24  2  0
  2 25  1  0
 25 26  1  0
 26 27  1  0
 27 28  1  0
 28 29  2  0
 28 30  1  0
 24  4  1  0
 30 25  1  0
 17  7  2  0
 24 19  1  0
  1 31  1  0
  1 32  1  0
  1 33  1  0
  2 34  1  1
  8 35  1  0
 11 36  1  0
 11 37  1  0
 12 38  1  0
 12 39  1  0
 17 40  1  0
 18 41  1  0
 22 42  1  0
 22 43  1  0
 22 44  1  0
 23 45  1  0
 25 46  1  1
 26 47  1  0
 26 48  1  0
 27 49  1  0
 30 50  1  0
 30 51  1  0
M  END
$$$$
