@<TRIPOS>MOLECULE
*****
 26 27 0 0 0
SMALL
GASTEIGER

@<TRIPOS>ATOM
      1 C          -4.4394   -0.5873    0.3469 C.3     1  UNL1       -0.0307
      2 C          -4.0719    0.6828    1.0569 C.3     1  UNL1        0.0868
      3 O          -2.7726    0.6845    1.5894 O.3     1  UNL1       -0.4922
      4 C          -1.6414    0.5314    0.8404 C.ar    1  UNL1        0.1217
      5 C          -0.4768    0.5652    1.5708 C.ar    1  UNL1       -0.0041
      6 C           0.7037    0.4065    0.7971 C.ar    1  UNL1        0.0443
      7 C           0.8251    0.2243   -0.5842 C.ar    1  UNL1        0.0806
      8 C          -0.3893    0.2027   -1.2389 C.ar    1  UNL1       -0.0317
      9 C          -1.5618    0.3527   -0.5303 C.ar    1  UNL1       -0.0179
     10 N           2.0592    0.1007   -1.0602 N.ar    1  UNL1       -0.2206
     11 C           3.0645    0.1326   -0.4083 C.ar    1  UNL1        0.2332
     12 S           2.5130    0.3838    1.3422 S.2     1  UNL1       -0.0472
     13 S           4.7472   -0.0166   -0.9079 S.O2    1  UNL1        0.0798
     14 N           5.2565   -1.6504   -0.8815 N.3     1  UNL1       -0.2016
     15 O           5.6368    0.7740    0.0370 O.2     1  UNL1       -0.1512
     16 O           4.8278    0.6006   -2.2586 O.2     1  UNL1       -0.1512
     17 H          -3.6125   -1.3285    0.2874 H       1  UNL1        0.0262
     18 H          -4.8462   -0.3911   -0.6714 H       1  UNL1        0.0262
     19 H          -5.2725   -1.0921    0.9091 H       1  UNL1        0.0262
     20 H          -4.2324    1.5573    0.3919 H       1  UNL1        0.0694
     21 H          -4.7683    0.8590    1.9204 H       1  UNL1        0.0694
     22 H          -0.2921    0.6886    2.6126 H       1  UNL1        0.0666
     23 H          -0.4481    0.0691   -2.3105 H       1  UNL1        0.0640
     24 H          -2.5265    0.3338   -1.0642 H       1  UNL1        0.0655
     25 H           5.8417   -1.8214   -1.7298 H       1  UNL1        0.1443
     26 H           5.8764   -1.8554   -0.0563 H       1  UNL1        0.1443
@<TRIPOS>BOND
     1     1     2    1
     2     2     3    1
     3     3     4    1
     4     4     5   ar
     5     5     6   ar
     6     6     7   ar
     7     7     8   ar
     8     8     9   ar
     9     7    10   ar
    10    10    11   ar
    11    11    12   ar
    12    11    13    1
    13    13    14    1
    14    13    15    2
    15    13    16    2
    16     9     4   ar
    17    12     6   ar
    18     1    17    1
    19     1    18    1
    20     1    19    1
    21     2    20    1
    22     2    21    1
    23     5    22    1
    24     8    23    1
    25     9    24    1
    26    14    25    1
    27    14    26    1
