
     RDKit          3D

 48 51  0  0  0  0  0  0  0  0999 V2000
   -2.9996   -1.5517    0.8941 C   0  0  2  0  0  0  0  0  0  0  0  0
   -2.0123   -2.7025    1.0207 C   0  0  0  0  0  0  0  0  0  0  0  0
   -0.9426   -2.5088   -0.0405 C   0  0  0  0  0  0  0  0  0  0  0  0
   -0.9115   -1.1150   -0.5164 N   0  0  0  0  0  0  0  0  0  0  0  0
   -2.1295   -0.9506   -1.2744 C   0  0  0  0  0  0  0  0  0  0  0  0
   -3.3537   -1.5133   -0.5879 C   0  0  2  0  0  0  0  0  0  0  0  0
   -4.5618   -0.6994   -0.8427 C   0  0  0  0  0  0  0  0  0  0  0  0
   -4.7152    0.3811   -1.5848 C   0  0  0  0  0  0  0  0  0  0  0  0
   -0.8560   -0.3124    0.6654 C   0  0  2  0  0  0  0  0  0  0  0  0
   -2.2651   -0.2792    1.2742 C   0  0  0  0  0  0  0  0  0  0  0  0
   -0.4467    1.0912    0.3695 C   0  0  1  0  0  0  0  0  0  0  0  0
   -0.3675    1.9374    1.4476 O   0  0  0  0  0  0  0  0  0  0  0  0
    0.6348    1.2342   -0.6317 C   0  0  0  0  0  0  0  0  0  0  0  0
    1.9897    1.1847   -0.3227 C   0  0  0  0  0  0  0  0  0  0  0  0
    2.3721    0.9868    0.9632 C   0  0  0  0  0  0  0  0  0  0  0  0
    3.6925    0.9196    1.3759 C   0  0  0  0  0  0  0  0  0  0  0  0
    4.0278    0.7146    2.7097 O   0  0  0  0  0  0  0  0  0  0  0  0
    5.4077    0.6573    3.0572 C   0  0  0  0  0  0  0  0  0  0  0  0
    4.6828    1.0659    0.3996 C   0  0  0  0  0  0  0  0  0  0  0  0
    4.3291    1.2685   -0.9191 C   0  0  0  0  0  0  0  0  0  0  0  0
    2.9930    1.3249   -1.2604 C   0  0  0  0  0  0  0  0  0  0  0  0
    2.6665    1.5211   -2.5519 N   0  0  0  0  0  0  0  0  0  0  0  0
    1.3736    1.5834   -2.9477 C   0  0  0  0  0  0  0  0  0  0  0  0
    0.4118    1.4421   -2.0026 C   0  0  0  0  0  0  0  0  0  0  0  0
   -3.8854   -1.6472    1.5178 H   0  0  0  0  0  0  0  0  0  0  0  0
   -2.6087   -3.6206    0.7474 H   0  0  0  0  0  0  0  0  0  0  0  0
   -1.6289   -2.8577    2.0261 H   0  0  0  0  0  0  0  0  0  0  0  0
    0.0705   -2.7810    0.3586 H   0  0  0  0  0  0  0  0  0  0  0  0
   -1.1715   -3.1178   -0.9389 H   0  0  0  0  0  0  0  0  0  0  0  0
   -1.9929   -1.5470   -2.2164 H   0  0  0  0  0  0  0  0  0  0  0  0
   -2.3710    0.0658   -1.5686 H   0  0  0  0  0  0  0  0  0  0  0  0
   -3.5830   -2.5585   -0.8818 H   0  0  0  0  0  0  0  0  0  0  0  0
   -5.4813   -0.9852   -0.3790 H   0  0  0  0  0  0  0  0  0  0  0  0
   -5.1613    1.2362   -2.0817 H   0  0  0  0  0  0  0  0  0  0  0  0
   -4.3705    1.1639   -2.2491 H   0  0  0  0  0  0  0  0  0  0  0  0
   -0.2383   -0.8302    1.4064 H   0  0  0  0  0  0  0  0  0  0  0  0
   -2.8238    0.6297    0.9792 H   0  0  0  0  0  0  0  0  0  0  0  0
   -2.2233   -0.2676    2.3926 H   0  0  0  0  0  0  0  0  0  0  0  0
   -1.3595    1.4953   -0.1800 H   0  0  0  0  0  0  0  0  0  0  0  0
   -0.5861    1.5522    2.3171 H   0  0  0  0  0  0  0  0  0  0  0  0
    1.6599    0.8690    1.7319 H   0  0  0  0  0  0  0  0  0  0  0  0
    5.5633    0.6418    4.1391 H   0  0  0  0  0  0  0  0  0  0  0  0
    5.9914    1.5016    2.6354 H   0  0  0  0  0  0  0  0  0  0  0  0
    5.8746   -0.2661    2.6379 H   0  0  0  0  0  0  0  0  0  0  0  0
    5.7362    1.0219    0.6663 H   0  0  0  0  0  0  0  0  0  0  0  0
    5.0565    1.3844   -1.6916 H   0  0  0  0  0  0  0  0  0  0  0  0
    1.1226    1.7413   -3.9876 H   0  0  0  0  0  0  0  0  0  0  0  0
   -0.6096    1.4959   -2.3435 H   0  0  0  0  0  0  0  0  0  0  0  0
  1  2  1  0
  2  3  1  0
  3  4  1  0
  4  5  1  0
  5  6  1  0
  6  7  1  0
  7  8  2  0
  4  9  1  0
  9 10  1  0
  9 11  1  0
 11 12  1  0
 11 13  1  0
 13 14  1  0
 14 15  2  0
 15 16  1  0
 16 17  1  0
 17 18  1  0
 16 19  2  0
 19 20  1  0
 20 21  2  0
 21 22  1  0
 22 23  2  0
 23 24  1  0
  6  1  1  0
 24 13  2  0
 10  1  1  0
 21 14  1  0
  1 25  1  1
  2 26  1  0
  2 27  1  0
  3 28  1  0
  3 29  1  0
  5 30  1  0
  5 31  1  0
  6 32  1  6
  7 33  1  0
  8 34  1  0
  8 35  1  0
  9 36  1  1
 10 37  1  0
 10 38  1  0
 11 39  1  6
 12 40  1  0
 15 41  1  0
 18 42  1  0
 18 43  1  0
 18 44  1  0
 19 45  1  0
 20 46  1  0
 23 47  1  0
 24 48  1  0
M  END
$$$$
