@<TRIPOS>MOLECULE
*****
 48 51 0 0 0
SMALL
GASTEIGER

@<TRIPOS>ATOM
      1 C          -2.9996   -1.5517    0.8941 C.3     1  UNL1       -0.0310
      2 C          -2.0123   -2.7025    1.0207 C.3     1  UNL1       -0.0367
      3 C          -0.9426   -2.5088   -0.0405 C.3     1  UNL1       -0.0004
      4 N          -0.9115   -1.1150   -0.5164 N.3     1  UNL1       -0.2960
      5 C          -2.1295   -0.9506   -1.2744 C.3     1  UNL1        0.0058
      6 C          -3.3537   -1.5133   -0.5879 C.3     1  UNL1       -0.0075
      7 C          -4.5618   -0.6994   -0.8427 C.2     1  UNL1       -0.0865
      8 C          -4.7152    0.3811   -1.5848 C.2     1  UNL1       -0.1023
      9 C          -0.8560   -0.3124    0.6654 C.3     1  UNL1        0.0408
     10 C          -2.2651   -0.2792    1.2742 C.3     1  UNL1       -0.0312
     11 C          -0.4467    1.0912    0.3695 C.3     1  UNL1        0.0963
     12 O          -0.3675    1.9374    1.4476 O.3     1  UNL1       -0.3856
     13 C           0.6348    1.2342   -0.6317 C.ar    1  UNL1       -0.0070
     14 C           1.9897    1.1847   -0.3227 C.ar    1  UNL1        0.0095
     15 C           2.3721    0.9868    0.9632 C.ar    1  UNL1       -0.0104
     16 C           3.6925    0.9196    1.3759 C.ar    1  UNL1        0.1208
     17 O           4.0278    0.7146    2.7097 O.3     1  UNL1       -0.4951
     18 C           5.4077    0.6573    3.0572 C.3     1  UNL1        0.0788
     19 C           4.6828    1.0659    0.3996 C.ar    1  UNL1       -0.0179
     20 C           4.3291    1.2685   -0.9191 C.ar    1  UNL1       -0.0323
     21 C           2.9930    1.3249   -1.2604 C.ar    1  UNL1        0.0715
     22 N           2.6665    1.5211   -2.5519 N.ar    1  UNL1       -0.2550
     23 C           1.3736    1.5834   -2.9477 C.ar    1  UNL1        0.0286
     24 C           0.4118    1.4421   -2.0026 C.ar    1  UNL1       -0.0373
     25 H          -3.8854   -1.6472    1.5178 H       1  UNL1        0.0308
     26 H          -2.6087   -3.6206    0.7474 H       1  UNL1        0.0280
     27 H          -1.6289   -2.8577    2.0261 H       1  UNL1        0.0280
     28 H           0.0705   -2.7810    0.3586 H       1  UNL1        0.0427
     29 H          -1.1715   -3.1178   -0.9389 H       1  UNL1        0.0427
     30 H          -1.9929   -1.5470   -2.2164 H       1  UNL1        0.0432
     31 H          -2.3710    0.0658   -1.5686 H       1  UNL1        0.0432
     32 H          -3.5830   -2.5585   -0.8818 H       1  UNL1        0.0358
     33 H          -5.4813   -0.9852   -0.3790 H       1  UNL1        0.0570
     34 H          -5.1613    1.2362   -2.0817 H       1  UNL1        0.0532
     35 H          -4.3705    1.1639   -2.2491 H       1  UNL1        0.0532
     36 H          -0.2383   -0.8302    1.4064 H       1  UNL1        0.0491
     37 H          -2.8238    0.6297    0.9792 H       1  UNL1        0.0284
     38 H          -2.2233   -0.2676    2.3926 H       1  UNL1        0.0284
     39 H          -1.3595    1.4953   -0.1800 H       1  UNL1        0.0659
     40 H          -0.5861    1.5522    2.3171 H       1  UNL1        0.2103
     41 H           1.6599    0.8690    1.7319 H       1  UNL1        0.0661
     42 H           5.5633    0.6418    4.1391 H       1  UNL1        0.0660
     43 H           5.9914    1.5016    2.6354 H       1  UNL1        0.0660
     44 H           5.8746   -0.2661    2.6379 H       1  UNL1        0.0660
     45 H           5.7362    1.0219    0.6663 H       1  UNL1        0.0655
     46 H           5.0565    1.3844   -1.6916 H       1  UNL1        0.0640
     47 H           1.1226    1.7413   -3.9876 H       1  UNL1        0.0830
     48 H          -0.6096    1.4959   -2.3435 H       1  UNL1        0.0636
@<TRIPOS>BOND
     1     1     2    1
     2     2     3    1
     3     3     4    1
     4     4     5    1
     5     5     6    1
     6     6     7    1
     7     7     8    2
     8     4     9    1
     9     9    10    1
    10     9    11    1
    11    11    12    1
    12    11    13    1
    13    13    14   ar
    14    14    15   ar
    15    15    16   ar
    16    16    17    1
    17    17    18    1
    18    16    19   ar
    19    19    20   ar
    20    20    21   ar
    21    21    22   ar
    22    22    23   ar
    23    23    24   ar
    24     6     1    1
    25    24    13   ar
    26    10     1    1
    27    21    14   ar
    28     1    25    1
    29     2    26    1
    30     2    27    1
    31     3    28    1
    32     3    29    1
    33     5    30    1
    34     5    31    1
    35     6    32    1
    36     7    33    1
    37     8    34    1
    38     8    35    1
    39     9    36    1
    40    10    37    1
    41    10    38    1
    42    11    39    1
    43    12    40    1
    44    15    41    1
    45    18    42    1
    46    18    43    1
    47    18    44    1
    48    19    45    1
    49    20    46    1
    50    23    47    1
    51    24    48    1
