@<TRIPOS>MOLECULE
*****
 45 49 0 0 0
SMALL
GASTEIGER

@<TRIPOS>ATOM
      1 O          -5.1476    0.5835   -0.0552 O.3     1  UNL1       -0.5033
      2 C          -3.8600    0.4758   -0.5643 C.ar    1  UNL1        0.1588
      3 C          -3.5734    0.5461   -1.9091 C.ar    1  UNL1       -0.0162
      4 C          -2.3068    0.4430   -2.4622 C.ar    1  UNL1       -0.0546
      5 C          -1.3178    0.2554   -1.4991 C.ar    1  UNL1       -0.0382
      6 C           0.0699    0.1240   -1.9275 C.3     1  UNL1       -0.0089
      7 C           1.0091   -0.3862   -0.8744 C.3     1  UNL1        0.0444
      8 N           1.8861    0.6841   -0.5158 N.3     1  UNL1       -0.2927
      9 C           3.2570    0.1533   -0.5757 C.3     1  UNL1        0.0172
     10 C           4.1911    1.2988   -0.5716 C.2     1  UNL1       -0.0772
     11 C           3.9932    2.6087   -0.5198 C.2     1  UNL1       -0.1014
     12 C           1.6143    1.2542    0.7742 C.3     1  UNL1        0.0006
     13 C           0.1685    1.2470    1.1913 C.3     1  UNL1       -0.0238
     14 C          -0.5635   -0.0265    0.9162 C.3     1  UNL1        0.0746
     15 C          -1.4523   -0.5188    2.0117 C.3     1  UNL1        0.1701
     16 O          -2.6988    0.1658    1.7493 O.3     1  UNL1       -0.4764
     17 C          -2.8386    0.2869    0.3697 C.ar    1  UNL1        0.1669
     18 C          -1.5821    0.1842   -0.1770 C.ar    1  UNL1        0.0141
     19 C          -1.6241   -1.9708    2.0984 C.2     1  UNL1        0.1745
     20 O          -2.5231   -2.3447    2.8267 O.2     1  UNL1       -0.2934
     21 C          -0.7335   -2.9000    1.3282 C.3     1  UNL1        0.0123
     22 C          -0.3424   -2.2857    0.0028 C.3     1  UNL1       -0.0147
     23 C           0.3965   -0.9925    0.3255 C.3     1  UNL1        0.0957
     24 O           1.3778   -1.2885    1.2614 O.3     1  UNL1       -0.3860
     25 H          -5.3163    1.2041    0.7373 H       1  UNL1        0.2923
     26 H          -4.3794    0.6921   -2.6263 H       1  UNL1        0.0655
     27 H          -2.0873    0.4993   -3.5128 H       1  UNL1        0.0622
     28 H           0.4035    1.1487   -2.2799 H       1  UNL1        0.0329
     29 H           0.0808   -0.4822   -2.8550 H       1  UNL1        0.0329
     30 H           1.5936   -1.2161   -1.3771 H       1  UNL1        0.0494
     31 H           3.4118   -0.4968   -1.4679 H       1  UNL1        0.0470
     32 H           3.4300   -0.5166    0.3149 H       1  UNL1        0.0470
     33 H           5.2484    1.0914   -0.6185 H       1  UNL1        0.0579
     34 H           3.5170    3.5816   -0.4693 H       1  UNL1        0.0532
     35 H           4.6976    3.4117   -0.5336 H       1  UNL1        0.0532
     36 H           2.2412    0.8150    1.6017 H       1  UNL1        0.0427
     37 H           1.9069    2.3247    0.7324 H       1  UNL1        0.0427
     38 H          -0.3212    2.0894    0.6156 H       1  UNL1        0.0288
     39 H           0.1345    1.5416    2.2608 H       1  UNL1        0.0288
     40 H          -1.0940   -0.0714    2.9864 H       1  UNL1        0.0824
     41 H          -1.2150   -3.8926    1.1972 H       1  UNL1        0.0344
     42 H           0.1827   -3.0272    1.9301 H       1  UNL1        0.0344
     43 H          -1.2512   -2.1136   -0.6180 H       1  UNL1        0.0298
     44 H           0.3832   -2.9852   -0.4870 H       1  UNL1        0.0298
     45 H           1.0339   -1.1949    2.2065 H       1  UNL1        0.2103
@<TRIPOS>BOND
     1     1     2    1
     2     2     3   ar
     3     3     4   ar
     4     4     5   ar
     5     5     6    1
     6     6     7    1
     7     7     8    1
     8     8     9    1
     9     9    10    1
    10    10    11    2
    11     8    12    1
    12    12    13    1
    13    14    13    1
    14    14    15    1
    15    15    16    1
    16    16    17    1
    17    17    18   ar
    18    15    19    1
    19    19    20    2
    20    19    21    1
    21    21    22    1
    22    22    23    1
    23    23    24    1
    24    17     2   ar
    25    18     5   ar
    26    23     7    1
    27    18    14    1
    28    23    14    1
    29     1    25    1
    30     3    26    1
    31     4    27    1
    32     6    28    1
    33     6    29    1
    34     7    30    1
    35     9    31    1
    36     9    32    1
    37    10    33    1
    38    11    34    1
    39    11    35    1
    40    12    36    1
    41    12    37    1
    42    13    38    1
    43    13    39    1
    44    15    40    1
    45    21    41    1
    46    21    42    1
    47    22    43    1
    48    22    44    1
    49    24    45    1
