
     RDKit          3D

 63 65  0  0  0  0  0  0  0  0999 V2000
    6.6730    2.0360    0.0514 C   0  0  0  0  0  0  0  0  0  0  0  0
    6.1883    1.1533    1.1754 C   0  0  0  0  0  0  0  0  0  0  0  0
    4.8542    0.5098    0.8718 C   0  0  0  0  0  0  0  0  0  0  0  0
    3.6669    1.7923    0.6116 S   0  0  0  0  0  6  0  0  0  0  0  0
    4.1081    2.7739   -0.4410 O   0  0  0  0  0  0  0  0  0  0  0  0
    3.5451    2.5681    1.8964 O   0  0  0  0  0  0  0  0  0  0  0  0
    2.1003    1.1576    0.2561 N   0  0  0  0  0  0  0  0  0  0  0  0
    1.6902    0.3833    1.4069 C   0  0  0  0  0  0  0  0  0  0  0  0
    0.2593   -0.1173    1.2609 C   0  0  0  0  0  0  0  0  0  0  0  0
   -0.0447   -0.5705   -0.1458 C   0  0  0  0  0  0  0  0  0  0  0  0
   -0.6775    0.5687   -0.8853 C   0  0  0  0  0  0  0  0  0  0  0  0
   -1.9104    1.0189   -0.2784 N   0  0  0  0  0  0  0  0  0  0  0  0
   -2.6959    2.0739   -0.7801 C   0  0  0  0  0  0  0  0  0  0  0  0
   -2.2949    2.6563   -1.8206 O   0  0  0  0  0  0  0  0  0  0  0  0
   -3.9399    2.5327   -0.1725 C   0  0  0  0  0  0  0  0  0  0  0  0
   -3.9864    3.8386    0.2725 C   0  0  0  0  0  0  0  0  0  0  0  0
   -5.1362    4.3693    0.8691 C   0  0  0  0  0  0  0  0  0  0  0  0
   -6.2415    3.5457    1.0056 C   0  0  0  0  0  0  0  0  0  0  0  0
   -7.6678    4.2343    1.7556 Cl  0  0  0  0  0  0  0  0  0  0  0  0
   -6.2104    2.2355    0.5650 C   0  0  0  0  0  0  0  0  0  0  0  0
   -5.0515    1.7394   -0.0237 C   0  0  0  0  0  0  0  0  0  0  0  0
   -4.9387    0.0872   -0.6064 Cl  0  0  0  0  0  0  0  0  0  0  0  0
   -0.8874   -1.8026   -0.1126 C   0  0  0  0  0  0  0  0  0  0  0  0
   -1.2477   -2.2819   -1.5253 C   0  0  0  0  0  0  0  0  0  0  0  0
   -2.2726   -3.3859   -1.3739 C   0  0  0  0  0  0  0  0  0  0  0  0
   -1.8555   -4.4766   -0.4547 C   0  0  0  0  0  0  0  0  0  0  0  0
   -1.3219   -3.9805    0.8684 C   0  0  0  0  0  0  0  0  0  0  0  0
   -0.2101   -2.9816    0.5193 C   0  0  0  0  0  0  0  0  0  0  0  0
    0.5616   -3.6394   -0.4654 O   0  0  0  0  0  0  0  0  0  0  0  0
    1.2946   -0.9099   -0.7951 C   0  0  0  0  0  0  0  0  0  0  0  0
    2.1729    0.3179   -0.8991 C   0  0  0  0  0  0  0  0  0  0  0  0
    6.3386    3.0803    0.1838 H   0  0  0  0  0  0  0  0  0  0  0  0
    6.3197    1.7079   -0.9361 H   0  0  0  0  0  0  0  0  0  0  0  0
    7.7955    2.0786    0.0892 H   0  0  0  0  0  0  0  0  0  0  0  0
    6.9841    0.4079    1.3793 H   0  0  0  0  0  0  0  0  0  0  0  0
    6.1273    1.7928    2.0930 H   0  0  0  0  0  0  0  0  0  0  0  0
    4.9838   -0.1460    0.0097 H   0  0  0  0  0  0  0  0  0  0  0  0
    4.5461   -0.0356    1.7922 H   0  0  0  0  0  0  0  0  0  0  0  0
    2.3389   -0.4853    1.4937 H   0  0  0  0  0  0  0  0  0  0  0  0
    1.7945    1.0055    2.2961 H   0  0  0  0  0  0  0  0  0  0  0  0
   -0.3702    0.7998    1.4711 H   0  0  0  0  0  0  0  0  0  0  0  0
    0.0885   -0.8972    2.0152 H   0  0  0  0  0  0  0  0  0  0  0  0
   -0.0071    1.4774   -0.8936 H   0  0  0  0  0  0  0  0  0  0  0  0
   -0.7840    0.3001   -1.9531 H   0  0  0  0  0  0  0  0  0  0  0  0
   -2.2391    0.5327    0.5845 H   0  0  0  0  0  0  0  0  0  0  0  0
   -3.1450    4.5150    0.1847 H   0  0  0  0  0  0  0  0  0  0  0  0
   -5.1697    5.3991    1.2188 H   0  0  0  0  0  0  0  0  0  0  0  0
   -7.0634    1.6129    0.6747 H   0  0  0  0  0  0  0  0  0  0  0  0
   -1.8498   -1.6341    0.4051 H   0  0  0  0  0  0  0  0  0  0  0  0
   -1.7034   -1.5038   -2.1326 H   0  0  0  0  0  0  0  0  0  0  0  0
   -0.3440   -2.7530   -1.9738 H   0  0  0  0  0  0  0  0  0  0  0  0
   -3.2467   -2.9740   -1.0761 H   0  0  0  0  0  0  0  0  0  0  0  0
   -2.4046   -3.8274   -2.3916 H   0  0  0  0  0  0  0  0  0  0  0  0
   -1.0904   -5.1548   -0.8808 H   0  0  0  0  0  0  0  0  0  0  0  0
   -2.7461   -5.0973   -0.2277 H   0  0  0  0  0  0  0  0  0  0  0  0
   -2.0835   -3.5276    1.5007 H   0  0  0  0  0  0  0  0  0  0  0  0
   -0.8462   -4.8070    1.3930 H   0  0  0  0  0  0  0  0  0  0  0  0
    0.3458   -2.8036    1.4285 H   0  0  0  0  0  0  0  0  0  0  0  0
    0.8360   -4.4904   -0.0577 H   0  0  0  0  0  0  0  0  0  0  0  0
    1.8189   -1.6620   -0.2096 H   0  0  0  0  0  0  0  0  0  0  0  0
    1.0768   -1.2244   -1.8375 H   0  0  0  0  0  0  0  0  0  0  0  0
    3.2154   -0.0480   -0.9986 H   0  0  0  0  0  0  0  0  0  0  0  0
    1.9597    0.9152   -1.8015 H   0  0  0  0  0  0  0  0  0  0  0  0
  1  2  1  0
  2  3  1  0
  3  4  1  0
  4  5  2  0
  4  6  2  0
  4  7  1  0
  7  8  1  0
  8  9  1  0
  9 10  1  0
 10 11  1  0
 11 12  1  0
 12 13  1  0
 13 14  2  0
 13 15  1  0
 15 16  2  0
 16 17  1  0
 17 18  2  0
 18 19  1  0
 18 20  1  0
 20 21  2  0
 21 22  1  0
 10 23  1  0
 23 24  1  0
 24 25  1  0
 25 26  1  0
 26 27  1  0
 27 28  1  0
 28 29  1  0
 10 30  1  0
 30 31  1  0
 31  7  1  0
 21 15  1  0
 28 23  1  0
  1 32  1  0
  1 33  1  0
  1 34  1  0
  2 35  1  0
  2 36  1  0
  3 37  1  0
  3 38  1  0
  8 39  1  0
  8 40  1  0
  9 41  1  0
  9 42  1  0
 11 43  1  0
 11 44  1  0
 12 45  1  0
 16 46  1  0
 17 47  1  0
 20 48  1  0
 23 49  1  0
 24 50  1  0
 24 51  1  0
 25 52  1  0
 25 53  1  0
 26 54  1  0
 26 55  1  0
 27 56  1  0
 27 57  1  0
 28 58  1  0
 29 59  1  0
 30 60  1  0
 30 61  1  0
 31 62  1  0
 31 63  1  0
M  END
$$$$
