@<TRIPOS>MOLECULE
*****
 63 65 0 0 0
SMALL
GASTEIGER

@<TRIPOS>ATOM
      1 C           6.6730    2.0360    0.0514 C.3     1  UNL1       -0.0638
      2 C           6.1883    1.1533    1.1754 C.3     1  UNL1       -0.0350
      3 C           4.8542    0.5098    0.8718 C.3     1  UNL1        0.0817
      4 S           3.6669    1.7923    0.6116 S.O2    1  UNL1        0.0318
      5 O           4.1081    2.7739   -0.4410 O.2     1  UNL1       -0.1580
      6 O           3.5451    2.5681    1.8964 O.2     1  UNL1       -0.1580
      7 N           2.1003    1.1576    0.2561 N.3     1  UNL1       -0.1811
      8 C           1.6902    0.3833    1.4069 C.3     1  UNL1        0.0207
      9 C           0.2593   -0.1173    1.2609 C.3     1  UNL1       -0.0311
     10 C          -0.0447   -0.5705   -0.1458 C.3     1  UNL1       -0.0061
     11 C          -0.6775    0.5687   -0.8853 C.3     1  UNL1        0.0180
     12 N          -1.9104    1.0189   -0.2784 N.am    1  UNL1       -0.3108
     13 C          -2.6959    2.0739   -0.7801 C.2     1  UNL1        0.2455
     14 O          -2.2949    2.6563   -1.8206 O.2     1  UNL1       -0.2702
     15 C          -3.9399    2.5327   -0.1725 C.ar    1  UNL1        0.0550
     16 C          -3.9864    3.8386    0.2725 C.ar    1  UNL1       -0.0468
     17 C          -5.1362    4.3693    0.8691 C.ar    1  UNL1       -0.0426
     18 C          -6.2415    3.5457    1.0056 C.ar    1  UNL1        0.0424
     19 CL         -7.6678    4.2343    1.7556 Cl      1  UNL1       -0.0835
     20 C          -6.2104    2.2355    0.5650 C.ar    1  UNL1       -0.0243
     21 C          -5.0515    1.7394   -0.0237 C.ar    1  UNL1        0.0544
     22 CL         -4.9387    0.0872   -0.6064 Cl      1  UNL1       -0.0827
     23 C          -0.8874   -1.8026   -0.1126 C.3     1  UNL1       -0.0078
     24 C          -1.2477   -2.2819   -1.5253 C.3     1  UNL1       -0.0473
     25 C          -2.2726   -3.3859   -1.3739 C.3     1  UNL1       -0.0526
     26 C          -1.8555   -4.4766   -0.4547 C.3     1  UNL1       -0.0507
     27 C          -1.3219   -3.9805    0.8684 C.3     1  UNL1       -0.0266
     28 C          -0.2101   -2.9816    0.5193 C.3     1  UNL1        0.0586
     29 O           0.5616   -3.6394   -0.4654 O.3     1  UNL1       -0.3915
     30 C           1.2946   -0.9099   -0.7951 C.3     1  UNL1       -0.0311
     31 C           2.1729    0.3179   -0.8991 C.3     1  UNL1        0.0207
     32 H           6.3386    3.0803    0.1838 H       1  UNL1        0.0230
     33 H           6.3197    1.7079   -0.9361 H       1  UNL1        0.0230
     34 H           7.7955    2.0786    0.0892 H       1  UNL1        0.0230
     35 H           6.9841    0.4079    1.3793 H       1  UNL1        0.0279
     36 H           6.1273    1.7928    2.0930 H       1  UNL1        0.0279
     37 H           4.9838   -0.1460    0.0097 H       1  UNL1        0.0515
     38 H           4.5461   -0.0356    1.7922 H       1  UNL1        0.0515
     39 H           2.3389   -0.4853    1.4937 H       1  UNL1        0.0444
     40 H           1.7945    1.0055    2.2961 H       1  UNL1        0.0444
     41 H          -0.3702    0.7998    1.4711 H       1  UNL1        0.0284
     42 H           0.0885   -0.8972    2.0152 H       1  UNL1        0.0284
     43 H          -0.0071    1.4774   -0.8936 H       1  UNL1        0.0468
     44 H          -0.7840    0.3001   -1.9531 H       1  UNL1        0.0468
     45 H          -2.2391    0.5327    0.5845 H       1  UNL1        0.1490
     46 H          -3.1450    4.5150    0.1847 H       1  UNL1        0.0626
     47 H          -5.1697    5.3991    1.2188 H       1  UNL1        0.0632
     48 H          -7.0634    1.6129    0.6747 H       1  UNL1        0.0647
     49 H          -1.8498   -1.6341    0.4051 H       1  UNL1        0.0331
     50 H          -1.7034   -1.5038   -2.1326 H       1  UNL1        0.0269
     51 H          -0.3440   -2.7530   -1.9738 H       1  UNL1        0.0269
     52 H          -3.2467   -2.9740   -1.0761 H       1  UNL1        0.0265
     53 H          -2.4046   -3.8274   -2.3916 H       1  UNL1        0.0265
     54 H          -1.0904   -5.1548   -0.8808 H       1  UNL1        0.0266
     55 H          -2.7461   -5.0973   -0.2277 H       1  UNL1        0.0266
     56 H          -2.0835   -3.5276    1.5007 H       1  UNL1        0.0290
     57 H          -0.8462   -4.8070    1.3930 H       1  UNL1        0.0290
     58 H           0.3458   -2.8036    1.4285 H       1  UNL1        0.0596
     59 H           0.8360   -4.4904   -0.0577 H       1  UNL1        0.2098
     60 H           1.8189   -1.6620   -0.2096 H       1  UNL1        0.0284
     61 H           1.0768   -1.2244   -1.8375 H       1  UNL1        0.0284
     62 H           3.2154   -0.0480   -0.9986 H       1  UNL1        0.0444
     63 H           1.9597    0.9152   -1.8015 H       1  UNL1        0.0444
@<TRIPOS>BOND
     1     1     2    1
     2     2     3    1
     3     3     4    1
     4     4     5    2
     5     4     6    2
     6     4     7    1
     7     7     8    1
     8     8     9    1
     9     9    10    1
    10    10    11    1
    11    11    12    1
    12    12    13   am
    13    13    14    2
    14    13    15    1
    15    15    16   ar
    16    16    17   ar
    17    17    18   ar
    18    18    19    1
    19    18    20   ar
    20    20    21   ar
    21    21    22    1
    22    10    23    1
    23    23    24    1
    24    24    25    1
    25    25    26    1
    26    26    27    1
    27    27    28    1
    28    28    29    1
    29    10    30    1
    30    30    31    1
    31    31     7    1
    32    21    15   ar
    33    28    23    1
    34     1    32    1
    35     1    33    1
    36     1    34    1
    37     2    35    1
    38     2    36    1
    39     3    37    1
    40     3    38    1
    41     8    39    1
    42     8    40    1
    43     9    41    1
    44     9    42    1
    45    11    43    1
    46    11    44    1
    47    12    45    1
    48    16    46    1
    49    17    47    1
    50    20    48    1
    51    23    49    1
    52    24    50    1
    53    24    51    1
    54    25    52    1
    55    25    53    1
    56    26    54    1
    57    26    55    1
    58    27    56    1
    59    27    57    1
    60    28    58    1
    61    29    59    1
    62    30    60    1
    63    30    61    1
    64    31    62    1
    65    31    63    1
