@<TRIPOS>MOLECULE
*****
 55 58 0 0 0
SMALL
GASTEIGER

@<TRIPOS>ATOM
      1 C           4.8336    0.0962   -1.5858 C.3     1  UNL1       -0.0612
      2 C           4.5842   -1.1078   -0.7427 C.3     1  UNL1       -0.0285
      3 C           5.1054   -0.8845    0.6194 C.ar    1  UNL1       -0.0220
      4 C           6.3382   -1.3424    1.0231 C.ar    1  UNL1       -0.0566
      5 C           6.8184   -1.0939    2.2896 C.ar    1  UNL1       -0.0614
      6 C           6.0189   -0.3679    3.1423 C.ar    1  UNL1       -0.0597
      7 C           4.7706    0.0921    2.7255 C.ar    1  UNL1       -0.0358
      8 C           4.2772   -0.1595    1.4362 C.ar    1  UNL1        0.0739
      9 N           2.9941    0.3963    1.3335 N.2     1  UNL1       -0.1785
     10 C           2.7976    1.5711    0.8718 C.2     1  UNL1        0.3941
     11 O           3.8507    2.3868    0.4322 O.2     1  UNL1       -0.4652
     12 O           1.4479    1.5108    1.0366 O.3     1  UNL1       -0.4108
     13 C           0.5943    0.9056    0.1878 C.ar    1  UNL1        0.1338
     14 C          -0.7263    1.0367    0.6686 C.ar    1  UNL1       -0.0134
     15 C          -1.8773    0.5467    0.0705 C.ar    1  UNL1       -0.0096
     16 C          -1.6576   -0.1472   -1.1429 C.ar    1  UNL1        0.0378
     17 C          -0.3593   -0.3028   -1.6581 C.ar    1  UNL1       -0.0368
     18 C           0.7207    0.2232   -0.9840 C.ar    1  UNL1       -0.0174
     19 N          -2.9798   -0.5546   -1.6002 N.pl3   1  UNL1       -0.2915
     20 C          -3.1441   -1.7819   -2.3934 C.3     1  UNL1        0.0056
     21 C          -3.7937    0.4778   -1.0886 C.3     1  UNL1        0.0575
     22 C          -3.3077    0.5188    0.3457 C.3     1  UNL1        0.0600
     23 C          -3.6093   -0.7116    1.1313 C.3     1  UNL1       -0.0484
     24 C          -4.0319    1.7269    0.7472 C.3     1  UNL1        0.0037
     25 C          -5.4047    1.4136    0.1253 C.3     1  UNL1       -0.0300
     26 N          -5.1493    0.4783   -0.9847 N.3     1  UNL1        0.2313
     27 C          -5.8660   -0.7414   -0.8277 C.3     1  UNL1       -0.0420
     28 O          -5.6632    1.1203   -2.0912 O.co2   1  UNL1       -0.7736
     29 H           5.3414   -0.1750   -2.5554 H       1  UNL1        0.0233
     30 H           5.5987    0.7486   -1.0738 H       1  UNL1        0.0233
     31 H           3.9575    0.7164   -1.7409 H       1  UNL1        0.0233
     32 H           3.4879   -1.3562   -0.7175 H       1  UNL1        0.0311
     33 H           5.0619   -1.9774   -1.2211 H       1  UNL1        0.0311
     34 H           6.8779   -1.9075    0.2543 H       1  UNL1        0.0621
     35 H           7.7901   -1.5144    2.4543 H       1  UNL1        0.0618
     36 H           6.4504   -0.2064    4.1184 H       1  UNL1        0.0618
     37 H           4.2967    0.6415    3.5370 H       1  UNL1        0.0639
     38 H           4.8035    2.1992    0.7231 H       1  UNL1        0.2969
     39 H          -1.0026    1.5562    1.5987 H       1  UNL1        0.0658
     40 H          -0.2106   -0.8384   -2.5852 H       1  UNL1        0.0637
     41 H           1.7266    0.1480   -1.3061 H       1  UNL1        0.0655
     42 H          -2.2172   -1.9557   -3.0086 H       1  UNL1        0.0429
     43 H          -3.2170   -2.6269   -1.6965 H       1  UNL1        0.0429
     44 H          -3.9751   -1.6929   -3.1094 H       1  UNL1        0.0429
     45 H          -3.4484    1.4486   -1.5491 H       1  UNL1        0.1087
     46 H          -3.6223   -1.6549    0.5931 H       1  UNL1        0.0241
     47 H          -2.7590   -0.8099    1.8713 H       1  UNL1        0.0241
     48 H          -4.4870   -0.5064    1.7781 H       1  UNL1        0.0241
     49 H          -3.5884    2.6448    0.3664 H       1  UNL1        0.0328
     50 H          -4.1580    1.7176    1.8593 H       1  UNL1        0.0328
     51 H          -5.8279    2.3621   -0.1924 H       1  UNL1        0.0814
     52 H          -6.0647    0.9160    0.8625 H       1  UNL1        0.0814
     53 H          -6.2841   -0.7811    0.2165 H       1  UNL1        0.0777
     54 H          -6.7886   -0.7509   -1.4654 H       1  UNL1        0.0777
     55 H          -5.3234   -1.6509   -1.0988 H       1  UNL1        0.0777
@<TRIPOS>UNITY_ATOM_ATTR
26 1
charge 1
28 1
charge -1
@<TRIPOS>BOND
     1     1     2    1
     2     2     3    1
     3     3     4   ar
     4     4     5   ar
     5     5     6   ar
     6     6     7   ar
     7     7     8   ar
     8     8     9    1
     9     9    10    2
    10    10    11    1
    11    10    12    1
    12    12    13    1
    13    13    14   ar
    14    14    15   ar
    15    15    16   ar
    16    16    17   ar
    17    17    18   ar
    18    16    19    1
    19    19    20    1
    20    19    21    1
    21    21    22    1
    22    22    23    1
    23    22    24    1
    24    24    25    1
    25    25    26    1
    26    26    27    1
    27    26    28    1
    28     8     3   ar
    29    18    13   ar
    30    26    21    1
    31    22    15    1
    32     1    29    1
    33     1    30    1
    34     1    31    1
    35     2    32    1
    36     2    33    1
    37     4    34    1
    38     5    35    1
    39     6    36    1
    40     7    37    1
    41    11    38    1
    42    14    39    1
    43    17    40    1
    44    18    41    1
    45    20    42    1
    46    20    43    1
    47    20    44    1
    48    21    45    1
    49    23    46    1
    50    23    47    1
    51    23    48    1
    52    24    49    1
    53    24    50    1
    54    25    51    1
    55    25    52    1
    56    27    53    1
    57    27    54    1
    58    27    55    1
