
     RDKit          3D

 55 58  0  0  0  0  0  0  0  0999 V2000
    4.8336    0.0962   -1.5858 C   0  0  0  0  0  0  0  0  0  0  0  0
    4.5842   -1.1078   -0.7427 C   0  0  0  0  0  0  0  0  0  0  0  0
    5.1054   -0.8845    0.6194 C   0  0  0  0  0  0  0  0  0  0  0  0
    6.3382   -1.3424    1.0231 C   0  0  0  0  0  0  0  0  0  0  0  0
    6.8184   -1.0939    2.2896 C   0  0  0  0  0  0  0  0  0  0  0  0
    6.0189   -0.3679    3.1423 C   0  0  0  0  0  0  0  0  0  0  0  0
    4.7706    0.0921    2.7255 C   0  0  0  0  0  0  0  0  0  0  0  0
    4.2772   -0.1595    1.4362 C   0  0  0  0  0  0  0  0  0  0  0  0
    2.9941    0.3963    1.3335 N   0  0  0  0  0  0  0  0  0  0  0  0
    2.7976    1.5711    0.8718 C   0  0  0  0  0  0  0  0  0  0  0  0
    3.8507    2.3868    0.4322 O   0  0  0  0  0  0  0  0  0  0  0  0
    1.4479    1.5108    1.0366 O   0  0  0  0  0  0  0  0  0  0  0  0
    0.5943    0.9056    0.1878 C   0  0  0  0  0  0  0  0  0  0  0  0
   -0.7263    1.0367    0.6686 C   0  0  0  0  0  0  0  0  0  0  0  0
   -1.8773    0.5467    0.0705 C   0  0  0  0  0  0  0  0  0  0  0  0
   -1.6576   -0.1472   -1.1429 C   0  0  0  0  0  0  0  0  0  0  0  0
   -0.3593   -0.3028   -1.6581 C   0  0  0  0  0  0  0  0  0  0  0  0
    0.7207    0.2232   -0.9840 C   0  0  0  0  0  0  0  0  0  0  0  0
   -2.9798   -0.5546   -1.6002 N   0  0  0  0  0  0  0  0  0  0  0  0
   -3.1441   -1.7819   -2.3934 C   0  0  0  0  0  0  0  0  0  0  0  0
   -3.7937    0.4778   -1.0886 C   0  0  0  0  0  0  0  0  0  0  0  0
   -3.3077    0.5188    0.3457 C   0  0  0  0  0  0  0  0  0  0  0  0
   -3.6093   -0.7116    1.1313 C   0  0  0  0  0  0  0  0  0  0  0  0
   -4.0319    1.7269    0.7472 C   0  0  0  0  0  0  0  0  0  0  0  0
   -5.4047    1.4136    0.1253 C   0  0  0  0  0  0  0  0  0  0  0  0
   -5.1493    0.4783   -0.9847 N   0  0  0  0  0  0  0  0  0  0  0  0
   -5.8660   -0.7414   -0.8277 C   0  0  0  0  0  0  0  0  0  0  0  0
   -5.6632    1.1203   -2.0912 O   0  0  0  0  0  0  0  0  0  0  0  0
    5.3414   -0.1750   -2.5554 H   0  0  0  0  0  0  0  0  0  0  0  0
    5.5987    0.7486   -1.0738 H   0  0  0  0  0  0  0  0  0  0  0  0
    3.9575    0.7164   -1.7409 H   0  0  0  0  0  0  0  0  0  0  0  0
    3.4879   -1.3562   -0.7175 H   0  0  0  0  0  0  0  0  0  0  0  0
    5.0619   -1.9774   -1.2211 H   0  0  0  0  0  0  0  0  0  0  0  0
    6.8779   -1.9075    0.2543 H   0  0  0  0  0  0  0  0  0  0  0  0
    7.7901   -1.5144    2.4543 H   0  0  0  0  0  0  0  0  0  0  0  0
    6.4504   -0.2064    4.1184 H   0  0  0  0  0  0  0  0  0  0  0  0
    4.2967    0.6415    3.5370 H   0  0  0  0  0  0  0  0  0  0  0  0
    4.8035    2.1992    0.7231 H   0  0  0  0  0  0  0  0  0  0  0  0
   -1.0026    1.5562    1.5987 H   0  0  0  0  0  0  0  0  0  0  0  0
   -0.2106   -0.8384   -2.5852 H   0  0  0  0  0  0  0  0  0  0  0  0
    1.7266    0.1480   -1.3061 H   0  0  0  0  0  0  0  0  0  0  0  0
   -2.2172   -1.9557   -3.0086 H   0  0  0  0  0  0  0  0  0  0  0  0
   -3.2170   -2.6269   -1.6965 H   0  0  0  0  0  0  0  0  0  0  0  0
   -3.9751   -1.6929   -3.1094 H   0  0  0  0  0  0  0  0  0  0  0  0
   -3.4484    1.4486   -1.5491 H   0  0  0  0  0  0  0  0  0  0  0  0
   -3.6223   -1.6549    0.5931 H   0  0  0  0  0  0  0  0  0  0  0  0
   -2.7590   -0.8099    1.8713 H   0  0  0  0  0  0  0  0  0  0  0  0
   -4.4870   -0.5064    1.7781 H   0  0  0  0  0  0  0  0  0  0  0  0
   -3.5884    2.6448    0.3664 H   0  0  0  0  0  0  0  0  0  0  0  0
   -4.1580    1.7176    1.8593 H   0  0  0  0  0  0  0  0  0  0  0  0
   -5.8279    2.3621   -0.1924 H   0  0  0  0  0  0  0  0  0  0  0  0
   -6.0647    0.9160    0.8625 H   0  0  0  0  0  0  0  0  0  0  0  0
   -6.2841   -0.7811    0.2165 H   0  0  0  0  0  0  0  0  0  0  0  0
   -6.7886   -0.7509   -1.4654 H   0  0  0  0  0  0  0  0  0  0  0  0
   -5.3234   -1.6509   -1.0988 H   0  0  0  0  0  0  0  0  0  0  0  0
  1  2  1  0
  2  3  1  0
  3  4  2  0
  4  5  1  0
  5  6  2  0
  6  7  1  0
  7  8  2  0
  8  9  1  0
  9 10  2  3
 10 11  1  0
 10 12  1  0
 12 13  1  0
 13 14  2  0
 14 15  1  0
 15 16  2  0
 16 17  1  0
 17 18  2  0
 16 19  1  0
 19 20  1  0
 19 21  1  0
 21 22  1  0
 22 23  1  0
 22 24  1  0
 24 25  1  0
 25 26  1  0
 26 27  1  0
 26 28  1  0
  8  3  1  0
 18 13  1  0
 26 21  1  0
 22 15  1  0
  1 29  1  0
  1 30  1  0
  1 31  1  0
  2 32  1  0
  2 33  1  0
  4 34  1  0
  5 35  1  0
  6 36  1  0
  7 37  1  0
 11 38  1  0
 14 39  1  0
 17 40  1  0
 18 41  1  0
 20 42  1  0
 20 43  1  0
 20 44  1  0
 21 45  1  0
 23 46  1  0
 23 47  1  0
 23 48  1  0
 24 49  1  0
 24 50  1  0
 25 51  1  0
 25 52  1  0
 27 53  1  0
 27 54  1  0
 27 55  1  0
M  CHG  2  26   1  28  -1
M  END
$$$$
