@<TRIPOS>MOLECULE
*****
 52 53 0 0 0
SMALL
GASTEIGER

@<TRIPOS>ATOM
      1 C           6.4199    2.4611   -0.8751 C.3     1  UNL1       -0.0641
      2 C           4.9313    2.5992   -0.5385 C.3     1  UNL1       -0.0433
      3 C           4.5900    1.5262    0.5074 C.3     1  UNL1       -0.0043
      4 N           4.8879    0.2703   -0.0953 N.3     1  UNL1       -0.3134
      5 C           4.6779   -0.8892    0.6986 C.3     1  UNL1        0.0252
      6 C           3.2255   -1.1956    1.0129 C.3     1  UNL1        0.1015
      7 O           3.1818   -2.3249    1.7788 O.3     1  UNL1       -0.3872
      8 C           2.3679   -1.1871   -0.2021 C.3     1  UNL1        0.1166
      9 O           1.0246   -1.3269   -0.0853 O.3     1  UNL1       -0.4887
     10 C           0.1367   -2.2264    0.3270 C.ar    1  UNL1        0.1311
     11 C          -1.1975   -1.8050    0.2302 C.ar    1  UNL1        0.0590
     12 C          -2.2392   -2.6228    0.6162 C.ar    1  UNL1       -0.0477
     13 C          -2.0014   -3.8865    1.1118 C.ar    1  UNL1       -0.0609
     14 C          -0.7112   -4.3549    1.2291 C.ar    1  UNL1       -0.0583
     15 C           0.2898   -3.4979    0.8292 C.ar    1  UNL1       -0.0192
     16 C          -1.5795   -0.5142   -0.2644 C.2     1  UNL1        0.1670
     17 O          -0.5641    0.1989   -0.5943 O.2     1  UNL1       -0.2919
     18 C          -2.6595    0.3937   -0.5748 C.3     1  UNL1        0.0146
     19 C          -4.0647   -0.1430   -0.3790 C.3     1  UNL1       -0.0207
     20 C          -4.9905    0.9933   -0.7682 C.ar    1  UNL1       -0.0469
     21 C          -5.3945    1.9122    0.2036 C.ar    1  UNL1       -0.0586
     22 C          -6.2305    2.9812   -0.0288 C.ar    1  UNL1       -0.0615
     23 C          -6.6874    3.1367   -1.3117 C.ar    1  UNL1       -0.0617
     24 C          -6.3172    2.2581   -2.3021 C.ar    1  UNL1       -0.0615
     25 C          -5.4714    1.1867   -2.0393 C.ar    1  UNL1       -0.0586
     26 H           6.7941    1.4910   -0.4717 H       1  UNL1        0.0230
     27 H           6.5182    2.4003   -1.9783 H       1  UNL1        0.0230
     28 H           7.0200    3.3064   -0.5297 H       1  UNL1        0.0230
     29 H           4.8336    3.6189   -0.0734 H       1  UNL1        0.0275
     30 H           4.3007    2.4957   -1.4229 H       1  UNL1        0.0275
     31 H           3.4935    1.6020    0.6883 H       1  UNL1        0.0424
     32 H           5.1742    1.6516    1.4214 H       1  UNL1        0.0424
     33 H           4.6243    0.1390   -1.0738 H       1  UNL1        0.1220
     34 H           5.1927   -0.8633    1.6801 H       1  UNL1        0.0450
     35 H           5.1749   -1.7434    0.1512 H       1  UNL1        0.0450
     36 H           2.8895   -0.3410    1.6552 H       1  UNL1        0.0640
     37 H           2.6926   -2.2188    2.6286 H       1  UNL1        0.2100
     38 H           2.6532   -0.2349   -0.7726 H       1  UNL1        0.0723
     39 H           2.8224   -1.9768   -0.8995 H       1  UNL1        0.0723
     40 H          -3.3048   -2.4551    0.6077 H       1  UNL1        0.0626
     41 H          -2.7553   -4.5969    1.4388 H       1  UNL1        0.0618
     42 H          -0.4750   -5.3419    1.6139 H       1  UNL1        0.0619
     43 H           1.2780   -3.8745    0.9063 H       1  UNL1        0.0654
     44 H          -2.5828    1.3788   -0.0171 H       1  UNL1        0.0348
     45 H          -2.6420    0.7267   -1.6551 H       1  UNL1        0.0348
     46 H          -4.3257   -0.3441    0.6731 H       1  UNL1        0.0317
     47 H          -4.2803   -1.0305   -0.9745 H       1  UNL1        0.0317
     48 H          -5.0021    1.7395    1.2005 H       1  UNL1        0.0620
     49 H          -6.4855    3.6363    0.7873 H       1  UNL1        0.0618
     50 H          -7.3568    3.9759   -1.5396 H       1  UNL1        0.0618
     51 H          -6.7053    2.4310   -3.2818 H       1  UNL1        0.0618
     52 H          -5.1711    0.4851   -2.8143 H       1  UNL1        0.0620
@<TRIPOS>BOND
     1     1     2    1
     2     2     3    1
     3     3     4    1
     4     4     5    1
     5     5     6    1
     6     6     7    1
     7     6     8    1
     8     8     9    1
     9     9    10    1
    10    10    11   ar
    11    11    12   ar
    12    12    13   ar
    13    13    14   ar
    14    14    15   ar
    15    11    16    1
    16    16    17    2
    17    16    18    1
    18    18    19    1
    19    19    20    1
    20    20    21   ar
    21    21    22   ar
    22    22    23   ar
    23    23    24   ar
    24    24    25   ar
    25    15    10   ar
    26    25    20   ar
    27     1    26    1
    28     1    27    1
    29     1    28    1
    30     2    29    1
    31     2    30    1
    32     3    31    1
    33     3    32    1
    34     4    33    1
    35     5    34    1
    36     5    35    1
    37     6    36    1
    38     7    37    1
    39     8    38    1
    40     8    39    1
    41    12    40    1
    42    13    41    1
    43    14    42    1
    44    15    43    1
    45    18    44    1
    46    18    45    1
    47    19    46    1
    48    19    47    1
    49    21    48    1
    50    22    49    1
    51    23    50    1
    52    24    51    1
    53    25    52    1
