@<TRIPOS>MOLECULE
*****
 68 72 0 0 0
SMALL
GASTEIGER

@<TRIPOS>ATOM
      1 C          -5.1164   -3.4924   -2.6121 C.3     1  UNL1       -0.0380
      2 C          -3.8184   -3.0363   -2.0617 C.ar    1  UNL1       -0.0291
      3 C          -2.6778   -3.7097   -2.4118 C.ar    1  UNL1       -0.0553
      4 C          -1.4169   -3.3349   -1.9305 C.ar    1  UNL1       -0.0401
      5 C          -1.2921   -2.2727   -1.0873 C.ar    1  UNL1        0.0354
      6 N          -0.0663   -1.7916   -0.5291 N.am    1  UNL1       -0.2814
      7 C           1.2117   -2.3003   -0.7349 C.2     1  UNL1        0.2483
      8 O           1.3541   -3.2829   -1.4803 O.2     1  UNL1       -0.2699
      9 C           2.4290   -1.7310   -0.1088 C.ar    1  UNL1        0.0370
     10 C           2.4253   -0.6614    0.7323 C.ar    1  UNL1       -0.0493
     11 C           3.6229   -0.2181    1.2560 C.ar    1  UNL1       -0.0566
     12 C           4.8244   -0.8169    0.9604 C.ar    1  UNL1       -0.0333
     13 C           6.0820   -0.2921    1.5556 C.3     1  UNL1        0.0241
     14 N           6.7237    0.7101    0.7567 N.3     1  UNL1       -0.2957
     15 C           5.9254    1.8787    0.5124 C.3     1  UNL1        0.0120
     16 C           6.5373    2.7094   -0.5981 C.3     1  UNL1        0.0114
     17 N           7.9677    2.6018   -0.6188 N.3     1  UNL1       -0.3029
     18 C           8.5378    3.2496    0.5371 C.3     1  UNL1       -0.0127
     19 C           8.4372    1.2529   -0.8073 C.3     1  UNL1        0.0114
     20 C           7.4069    0.2136   -0.3958 C.3     1  UNL1        0.0120
     21 C           4.8173   -1.8986    0.1082 C.ar    1  UNL1       -0.0566
     22 C           3.6354   -2.3572   -0.4253 C.ar    1  UNL1       -0.0493
     23 C          -2.4816   -1.6043   -0.7482 C.ar    1  UNL1       -0.0190
     24 C          -3.7225   -1.9483   -1.2027 C.ar    1  UNL1        0.0383
     25 N          -4.9168   -1.2803   -0.8650 N.pl3   1  UNL1       -0.2833
     26 C          -5.0670   -0.1562   -0.0189 C.ar    1  UNL1        0.2200
     27 N          -4.1013    0.4768    0.6118 N.ar    1  UNL1       -0.2226
     28 C          -4.3376    1.5297    1.3912 C.ar    1  UNL1        0.0332
     29 C          -5.6490    2.0017    1.5642 C.ar    1  UNL1       -0.0174
     30 C          -6.6674    1.3538    0.9143 C.ar    1  UNL1        0.0775
     31 C          -8.0627    1.7489    1.0137 C.ar    1  UNL1        0.0186
     32 C          -9.0495    1.0408    0.3191 C.ar    1  UNL1       -0.0497
     33 C         -10.3782    1.3850    0.3894 C.ar    1  UNL1       -0.0430
     34 C         -10.7875    2.4528    1.1564 C.ar    1  UNL1        0.0276
     35 N          -9.8408    3.1304    1.8213 N.ar    1  UNL1       -0.2626
     36 C          -8.5191    2.8063    1.7655 C.ar    1  UNL1        0.0367
     37 N          -6.3408    0.3073    0.1530 N.ar    1  UNL1       -0.2142
     38 H          -5.8660   -3.6798   -1.8152 H       1  UNL1        0.0278
     39 H          -4.9723   -4.4634   -3.1236 H       1  UNL1        0.0278
     40 H          -5.4555   -2.7670   -3.3609 H       1  UNL1        0.0278
     41 H          -2.7288   -4.5619   -3.0810 H       1  UNL1        0.0621
     42 H          -0.5547   -3.8939   -2.2338 H       1  UNL1        0.0636
     43 H          -0.1136   -0.9475    0.1221 H       1  UNL1        0.1551
     44 H           1.4832   -0.1857    0.9691 H       1  UNL1        0.0625
     45 H           3.5919    0.6492    1.9350 H       1  UNL1        0.0621
     46 H           5.8176    0.1507    2.5336 H       1  UNL1        0.0476
     47 H           6.7851   -1.1444    1.6467 H       1  UNL1        0.0476
     48 H           4.8873    1.6546    0.1893 H       1  UNL1        0.0439
     49 H           5.8540    2.5073    1.4175 H       1  UNL1        0.0439
     50 H           6.1116    2.4005   -1.5766 H       1  UNL1        0.0439
     51 H           6.2646    3.7600   -0.4391 H       1  UNL1        0.0439
     52 H           9.4050    2.6399    0.8870 H       1  UNL1        0.0391
     53 H           8.9040    4.2795    0.2661 H       1  UNL1        0.0391
     54 H           7.8364    3.3165    1.3908 H       1  UNL1        0.0391
     55 H           8.6777    1.0981   -1.8807 H       1  UNL1        0.0439
     56 H           9.3864    1.1280   -0.2472 H       1  UNL1        0.0439
     57 H           6.7236    0.0728   -1.2549 H       1  UNL1        0.0439
     58 H           7.9610   -0.6900   -0.1115 H       1  UNL1        0.0439
     59 H           5.7769   -2.3821   -0.1322 H       1  UNL1        0.0621
     60 H           3.6988   -3.2121   -1.0884 H       1  UNL1        0.0625
     61 H          -2.3673   -0.7574   -0.0737 H       1  UNL1        0.0655
     62 H          -5.8219   -1.6628   -1.2956 H       1  UNL1        0.1550
     63 H          -3.5617    2.0649    1.9184 H       1  UNL1        0.0831
     64 H          -5.8660    2.8413    2.1816 H       1  UNL1        0.0654
     65 H          -8.7104    0.1953   -0.2863 H       1  UNL1        0.0625
     66 H         -11.1434    0.8177   -0.1641 H       1  UNL1        0.0633
     67 H         -11.8439    2.7122    1.2018 H       1  UNL1        0.0829
     68 H          -7.7877    3.3952    2.3293 H       1  UNL1        0.0836
@<TRIPOS>BOND
     1     1     2    1
     2     2     3   ar
     3     3     4   ar
     4     4     5   ar
     5     5     6    1
     6     6     7   am
     7     7     8    2
     8     7     9    1
     9     9    10   ar
    10    10    11   ar
    11    11    12   ar
    12    12    13    1
    13    13    14    1
    14    14    15    1
    15    15    16    1
    16    16    17    1
    17    17    18    1
    18    17    19    1
    19    19    20    1
    20    12    21   ar
    21    21    22   ar
    22     5    23   ar
    23    23    24   ar
    24    24    25    1
    25    25    26    1
    26    26    27   ar
    27    27    28   ar
    28    28    29   ar
    29    29    30   ar
    30    30    31    1
    31    31    32   ar
    32    32    33   ar
    33    33    34   ar
    34    34    35   ar
    35    35    36   ar
    36    30    37   ar
    37    24     2   ar
    38    37    26   ar
    39    22     9   ar
    40    36    31   ar
    41    20    14    1
    42     1    38    1
    43     1    39    1
    44     1    40    1
    45     3    41    1
    46     4    42    1
    47     6    43    1
    48    10    44    1
    49    11    45    1
    50    13    46    1
    51    13    47    1
    52    15    48    1
    53    15    49    1
    54    16    50    1
    55    16    51    1
    56    18    52    1
    57    18    53    1
    58    18    54    1
    59    19    55    1
    60    19    56    1
    61    20    57    1
    62    20    58    1
    63    21    59    1
    64    22    60    1
    65    23    61    1
    66    25    62    1
    67    28    63    1
    68    29    64    1
    69    32    65    1
    70    33    66    1
    71    34    67    1
    72    36    68    1
