@<TRIPOS>MOLECULE
*****
 25 27 0 0 0
SMALL
GASTEIGER

@<TRIPOS>ATOM
      1 CL          5.2994   -0.1338   -0.2842 Cl      1  UNL1       -0.0820
      2 C           3.5322   -0.0759   -0.1810 C.ar    1  UNL1        0.0593
      3 C           2.7866    0.3238   -1.2628 C.ar    1  UNL1       -0.0417
      4 C           1.4255    0.3608   -1.1607 C.ar    1  UNL1       -0.0565
      5 C           0.7441    0.0099   -0.0013 C.ar    1  UNL1       -0.0382
      6 C          -0.7151    0.0946   -0.0267 C.3     1  UNL1        0.0126
      7 C          -1.3984    1.3655    0.3695 C.3     1  UNL1        0.0059
      8 N          -2.7999    1.0438    0.4248 N.3     1  UNL1       -0.3148
      9 C          -2.9030   -0.3481    0.8032 C.3     1  UNL1       -0.0004
     10 C          -1.6238   -0.9945    0.3104 C.3     1  UNL1       -0.0168
     11 C          -1.3522   -0.7335   -1.1632 C.3     1  UNL1       -0.0371
     12 C           1.5011   -0.3838    1.0609 C.ar    1  UNL1       -0.0382
     13 C           2.8743   -0.4257    0.9713 C.ar    1  UNL1        0.0595
     14 CL          3.8099   -0.9444    2.3806 Cl      1  UNL1       -0.0820
     15 H           3.2748    0.6105   -2.1991 H       1  UNL1        0.0633
     16 H           0.8784    0.6873   -2.0540 H       1  UNL1        0.0621
     17 H          -1.0052    1.6663    1.3601 H       1  UNL1        0.0433
     18 H          -1.1992    2.1952   -0.3639 H       1  UNL1        0.0433
     19 H          -3.2447    1.2294   -0.5063 H       1  UNL1        0.1220
     20 H          -3.7597   -0.8619    0.2996 H       1  UNL1        0.0427
     21 H          -2.9587   -0.4415    1.9067 H       1  UNL1        0.0427
     22 H          -1.3238   -1.9499    0.7528 H       1  UNL1        0.0322
     23 H          -2.0811   -0.1531   -1.7507 H       1  UNL1        0.0278
     24 H          -0.7322   -1.4809   -1.6580 H       1  UNL1        0.0278
     25 H           0.9706   -0.6599    1.9721 H       1  UNL1        0.0635
@<TRIPOS>BOND
     1     1     2    1
     2     2     3   ar
     3     3     4   ar
     4     4     5   ar
     5     5     6    1
     6     6     7    1
     7     7     8    1
     8     8     9    1
     9     9    10    1
    10    10    11    1
    11     5    12   ar
    12    12    13   ar
    13    13    14    1
    14    13     2   ar
    15    10     6    1
    16    11     6    1
    17     3    15    1
    18     4    16    1
    19     7    17    1
    20     7    18    1
    21     8    19    1
    22     9    20    1
    23     9    21    1
    24    10    22    1
    25    11    23    1
    26    11    24    1
    27    12    25    1
