@<TRIPOS>MOLECULE
*****
 37 39 0 0 0
SMALL
GASTEIGER

@<TRIPOS>ATOM
      1 C          -4.0548    1.7529   -0.8143 C.3     1  UNL1       -0.0155
      2 N          -2.7424    1.7102   -1.4319 N.3     1  UNL1       -0.3159
      3 C          -1.8547    0.9845   -0.5522 C.3     1  UNL1        0.0122
      4 C          -2.3437   -0.4456   -0.3149 C.3     1  UNL1       -0.0119
      5 C          -1.3671   -1.0439    0.6441 C.ar    1  UNL1       -0.0421
      6 C          -1.8005   -2.1243    1.3826 C.ar    1  UNL1       -0.0582
      7 C          -0.9593   -2.7484    2.3029 C.ar    1  UNL1       -0.0615
      8 C           0.3032   -2.2669    2.4576 C.ar    1  UNL1       -0.0615
      9 C           0.7336   -1.1769    1.7095 C.ar    1  UNL1       -0.0577
     10 C          -0.0899   -0.5523    0.7967 C.ar    1  UNL1       -0.0367
     11 C           0.4542    0.5945    0.0506 C.3     1  UNL1        0.0109
     12 C           1.8594    0.4680   -0.3204 C.ar    1  UNL1       -0.0384
     13 C           2.3301   -0.0902   -1.4893 C.ar    1  UNL1       -0.0565
     14 C           3.6919   -0.1615   -1.7450 C.ar    1  UNL1       -0.0417
     15 C           4.6221    0.3208   -0.8443 C.ar    1  UNL1        0.0593
     16 CL          6.3389    0.2580   -1.1119 Cl      1  UNL1       -0.0820
     17 C           4.1652    0.8787    0.3227 C.ar    1  UNL1        0.0595
     18 CL          5.3203    1.5075    1.5017 Cl      1  UNL1       -0.0820
     19 C           2.8241    0.9434    0.5635 C.ar    1  UNL1       -0.0382
     20 C          -0.4627    0.8513   -1.1343 C.3     1  UNL1       -0.0264
     21 H          -4.6462    2.6257   -1.2024 H       1  UNL1        0.0388
     22 H          -4.5749    0.7852   -1.0560 H       1  UNL1        0.0388
     23 H          -3.9889    1.8159    0.2854 H       1  UNL1        0.0388
     24 H          -2.7972    1.2850   -2.3618 H       1  UNL1        0.1219
     25 H          -1.8369    1.4673    0.4462 H       1  UNL1        0.0464
     26 H          -3.3623   -0.4103    0.1052 H       1  UNL1        0.0328
     27 H          -2.3806   -1.0109   -1.2627 H       1  UNL1        0.0328
     28 H          -2.8065   -2.5276    1.2764 H       1  UNL1        0.0620
     29 H          -1.2925   -3.5975    2.8867 H       1  UNL1        0.0618
     30 H           0.9650   -2.7441    3.1697 H       1  UNL1        0.0618
     31 H           1.7584   -0.8570    1.8963 H       1  UNL1        0.0621
     32 H           0.3333    1.4956    0.7197 H       1  UNL1        0.0398
     33 H           1.6153   -0.4689   -2.1977 H       1  UNL1        0.0621
     34 H           4.0901   -0.5952   -2.6557 H       1  UNL1        0.0633
     35 H           2.4993    1.3898    1.4939 H       1  UNL1        0.0635
     36 H          -0.1483    1.7203   -1.7202 H       1  UNL1        0.0289
     37 H          -0.3953   -0.0331   -1.7964 H       1  UNL1        0.0289
@<TRIPOS>BOND
     1     1     2    1
     2     2     3    1
     3     3     4    1
     4     4     5    1
     5     5     6   ar
     6     6     7   ar
     7     7     8   ar
     8     8     9   ar
     9     9    10   ar
    10    10    11    1
    11    11    12    1
    12    12    13   ar
    13    13    14   ar
    14    14    15   ar
    15    15    16    1
    16    15    17   ar
    17    17    18    1
    18    17    19   ar
    19    11    20    1
    20    20     3    1
    21    10     5   ar
    22    19    12   ar
    23     1    21    1
    24     1    22    1
    25     1    23    1
    26     2    24    1
    27     3    25    1
    28     4    26    1
    29     4    27    1
    30     6    28    1
    31     7    29    1
    32     8    30    1
    33     9    31    1
    34    11    32    1
    35    13    33    1
    36    14    34    1
    37    19    35    1
    38    20    36    1
    39    20    37    1
