
     RDKit          3D

 37 39  0  0  0  0  0  0  0  0999 V2000
   -4.0548    1.7529   -0.8143 C   0  0  0  0  0  0  0  0  0  0  0  0
   -2.7424    1.7102   -1.4319 N   0  0  0  0  0  0  0  0  0  0  0  0
   -1.8547    0.9845   -0.5522 C   0  0  1  0  0  0  0  0  0  0  0  0
   -2.3437   -0.4456   -0.3149 C   0  0  0  0  0  0  0  0  0  0  0  0
   -1.3671   -1.0439    0.6441 C   0  0  0  0  0  0  0  0  0  0  0  0
   -1.8005   -2.1243    1.3826 C   0  0  0  0  0  0  0  0  0  0  0  0
   -0.9593   -2.7484    2.3029 C   0  0  0  0  0  0  0  0  0  0  0  0
    0.3032   -2.2669    2.4576 C   0  0  0  0  0  0  0  0  0  0  0  0
    0.7336   -1.1769    1.7095 C   0  0  0  0  0  0  0  0  0  0  0  0
   -0.0899   -0.5523    0.7967 C   0  0  0  0  0  0  0  0  0  0  0  0
    0.4542    0.5945    0.0506 C   0  0  1  0  0  0  0  0  0  0  0  0
    1.8594    0.4680   -0.3204 C   0  0  0  0  0  0  0  0  0  0  0  0
    2.3301   -0.0902   -1.4893 C   0  0  0  0  0  0  0  0  0  0  0  0
    3.6919   -0.1615   -1.7450 C   0  0  0  0  0  0  0  0  0  0  0  0
    4.6221    0.3208   -0.8443 C   0  0  0  0  0  0  0  0  0  0  0  0
    6.3389    0.2580   -1.1119 Cl  0  0  0  0  0  0  0  0  0  0  0  0
    4.1652    0.8787    0.3227 C   0  0  0  0  0  0  0  0  0  0  0  0
    5.3203    1.5075    1.5017 Cl  0  0  0  0  0  0  0  0  0  0  0  0
    2.8241    0.9434    0.5635 C   0  0  0  0  0  0  0  0  0  0  0  0
   -0.4627    0.8513   -1.1343 C   0  0  0  0  0  0  0  0  0  0  0  0
   -4.6462    2.6257   -1.2024 H   0  0  0  0  0  0  0  0  0  0  0  0
   -4.5749    0.7852   -1.0560 H   0  0  0  0  0  0  0  0  0  0  0  0
   -3.9889    1.8159    0.2854 H   0  0  0  0  0  0  0  0  0  0  0  0
   -2.7972    1.2850   -2.3618 H   0  0  0  0  0  0  0  0  0  0  0  0
   -1.8369    1.4673    0.4462 H   0  0  0  0  0  0  0  0  0  0  0  0
   -3.3623   -0.4103    0.1052 H   0  0  0  0  0  0  0  0  0  0  0  0
   -2.3806   -1.0109   -1.2627 H   0  0  0  0  0  0  0  0  0  0  0  0
   -2.8065   -2.5276    1.2764 H   0  0  0  0  0  0  0  0  0  0  0  0
   -1.2925   -3.5975    2.8867 H   0  0  0  0  0  0  0  0  0  0  0  0
    0.9650   -2.7441    3.1697 H   0  0  0  0  0  0  0  0  0  0  0  0
    1.7584   -0.8570    1.8963 H   0  0  0  0  0  0  0  0  0  0  0  0
    0.3333    1.4956    0.7197 H   0  0  0  0  0  0  0  0  0  0  0  0
    1.6153   -0.4689   -2.1977 H   0  0  0  0  0  0  0  0  0  0  0  0
    4.0901   -0.5952   -2.6557 H   0  0  0  0  0  0  0  0  0  0  0  0
    2.4993    1.3898    1.4939 H   0  0  0  0  0  0  0  0  0  0  0  0
   -0.1483    1.7203   -1.7202 H   0  0  0  0  0  0  0  0  0  0  0  0
   -0.3953   -0.0331   -1.7964 H   0  0  0  0  0  0  0  0  0  0  0  0
  1  2  1  0
  2  3  1  0
  3  4  1  0
  4  5  1  0
  5  6  2  0
  6  7  1  0
  7  8  2  0
  8  9  1  0
  9 10  2  0
 10 11  1  0
 11 12  1  0
 12 13  2  0
 13 14  1  0
 14 15  2  0
 15 16  1  0
 15 17  1  0
 17 18  1  0
 17 19  2  0
 11 20  1  0
 20  3  1  0
 10  5  1  0
 19 12  1  0
  1 21  1  0
  1 22  1  0
  1 23  1  0
  2 24  1  0
  3 25  1  1
  4 26  1  0
  4 27  1  0
  6 28  1  0
  7 29  1  0
  8 30  1  0
  9 31  1  0
 11 32  1  1
 13 33  1  0
 14 34  1  0
 19 35  1  0
 20 36  1  0
 20 37  1  0
M  END
$$$$
