@<TRIPOS>MOLECULE
*****
 52 55 0 0 0
SMALL
GASTEIGER

@<TRIPOS>ATOM
      1 C           5.0994   -2.3447   -0.9122 C.3     1  UNL1       -0.0307
      2 C           3.9540   -1.6107   -0.2913 C.3     1  UNL1        0.0870
      3 O           4.1403   -0.2332   -0.2114 O.3     1  UNL1       -0.4883
      4 C           3.1541    0.5628    0.3462 C.ar    1  UNL1        0.1689
      5 C           1.9882   -0.0214    0.8745 C.ar    1  UNL1       -0.0106
      6 C           1.0039    0.7651    1.4329 C.ar    1  UNL1       -0.0126
      7 C          -0.2269    0.1063    2.0180 C.3     1  UNL1        0.0777
      8 N           0.2704   -1.0775    2.7359 N.am    1  UNL1       -0.2882
      9 C          -0.1535   -2.3942    2.4465 C.2     1  UNL1        0.3046
     10 O           0.3382   -3.3771    3.0880 O.2     1  UNL1       -0.2525
     11 N          -1.1256   -2.5671    1.4364 N.am    1  UNL1       -0.2685
     12 C          -1.6518   -1.4156    0.7307 C.2     1  UNL1        0.0492
     13 C          -2.6814   -1.7432   -0.2405 C.ar    1  UNL1        0.0147
     14 C          -2.5374   -2.7522   -1.1666 C.ar    1  UNL1       -0.0499
     15 C          -3.5517   -3.0666   -2.0732 C.ar    1  UNL1       -0.0430
     16 C          -4.7158   -2.3535   -2.0377 C.ar    1  UNL1        0.0276
     17 N          -4.8599   -1.3704   -1.1374 N.ar    1  UNL1       -0.2626
     18 C          -3.8863   -1.0590   -0.2583 C.ar    1  UNL1        0.0365
     19 C          -1.2343   -0.1943    1.0070 C.2     1  UNL1        0.0062
     20 C          -1.7920    0.9266    0.2607 C.ar    1  UNL1       -0.0180
     21 C          -1.9983    0.9664   -1.0864 C.ar    1  UNL1       -0.0542
     22 C          -2.5583    2.0779   -1.6989 C.ar    1  UNL1       -0.0612
     23 C          -2.9258    3.1913   -0.9490 C.ar    1  UNL1       -0.0617
     24 C          -2.7216    3.1622    0.4028 C.ar    1  UNL1       -0.0612
     25 C          -2.1676    2.0507    0.9812 C.ar    1  UNL1       -0.0542
     26 C           1.2081    2.1147    1.4481 C.ar    1  UNL1        0.0249
     27 C           2.3380    2.7223    0.9382 C.ar    1  UNL1        0.3180
     28 N           2.4921    4.1492    0.9672 N.pl3   1  UNL1        0.0836
     29 O           3.1227    4.7400    0.0889 O.2     1  UNL1        0.0416
     30 O           1.9242    4.8372    1.9910 O.co2   1  UNL1       -0.5759
     31 C           3.3108    1.9243    0.3862 C.ar    1  UNL1        0.2372
     32 O           4.4610    2.5471   -0.1323 O.3     1  UNL1       -0.4989
     33 H           4.9420   -2.4318   -2.0214 H       1  UNL1        0.0262
     34 H           6.0886   -1.8929   -0.6877 H       1  UNL1        0.0262
     35 H           5.1723   -3.4034   -0.5570 H       1  UNL1        0.0262
     36 H           3.7224   -2.0856    0.6981 H       1  UNL1        0.0694
     37 H           3.0525   -1.8343   -0.9264 H       1  UNL1        0.0694
     38 H           1.8988   -1.0807    0.8278 H       1  UNL1        0.0659
     39 H          -0.5600    0.8080    2.8200 H       1  UNL1        0.0600
     40 H           0.9724   -0.9580    3.5010 H       1  UNL1        0.1512
     41 H          -1.4367   -3.5377    1.2296 H       1  UNL1        0.1564
     42 H          -1.6086   -3.3259   -1.2004 H       1  UNL1        0.0625
     43 H          -3.4495   -3.8575   -2.8032 H       1  UNL1        0.0633
     44 H          -5.5522   -2.5572   -2.7277 H       1  UNL1        0.0829
     45 H          -4.1180   -0.2442    0.4312 H       1  UNL1        0.0836
     46 H          -1.7229    0.1315   -1.6979 H       1  UNL1        0.0624
     47 H          -2.7293    2.1217   -2.7678 H       1  UNL1        0.0618
     48 H          -3.3612    4.0725   -1.3859 H       1  UNL1        0.0618
     49 H          -2.9908    3.9986    1.0189 H       1  UNL1        0.0618
     50 H          -2.0132    2.0443    2.0506 H       1  UNL1        0.0624
     51 H           0.4472    2.7741    1.8919 H       1  UNL1        0.0690
     52 H           5.2290    1.9951   -0.5093 H       1  UNL1        0.2925
@<TRIPOS>UNITY_ATOM_ATTR
28 1
charge 1
30 1
charge -1
@<TRIPOS>BOND
     1     1     2    1
     2     2     3    1
     3     3     4    1
     4     4     5   ar
     5     5     6   ar
     6     6     7    1
     7     7     8    1
     8     8     9   am
     9     9    10    2
    10     9    11   am
    11    11    12    1
    12    12    13    1
    13    13    14   ar
    14    14    15   ar
    15    15    16   ar
    16    16    17   ar
    17    17    18   ar
    18    12    19    2
    19    19    20    1
    20    20    21   ar
    21    21    22   ar
    22    22    23   ar
    23    23    24   ar
    24    24    25   ar
    25     6    26   ar
    26    26    27   ar
    27    27    28    1
    28    28    29    2
    29    28    30    1
    30    27    31   ar
    31    31    32    1
    32    31     4   ar
    33    19     7    1
    34    25    20   ar
    35    18    13   ar
    36     1    33    1
    37     1    34    1
    38     1    35    1
    39     2    36    1
    40     2    37    1
    41     5    38    1
    42     7    39    1
    43     8    40    1
    44    11    41    1
    45    14    42    1
    46    15    43    1
    47    16    44    1
    48    18    45    1
    49    21    46    1
    50    22    47    1
    51    23    48    1
    52    24    49    1
    53    25    50    1
    54    26    51    1
    55    32    52    1
