@<TRIPOS>MOLECULE
*****
 47 47 0 0 0
SMALL
GASTEIGER

@<TRIPOS>ATOM
      1 C           7.4973    0.3835    1.7765 C.3     1  UNL1       -0.0306
      2 C           6.5266    0.4900    2.9299 C.3     1  UNL1        0.0900
      3 O           5.2483    0.9359    2.5215 O.3     1  UNL1       -0.4618
      4 C           4.4698    0.2496    1.6022 C.2     1  UNL1        0.3321
      5 O           4.9830   -0.8219    1.1415 O.2     1  UNL1       -0.2456
      6 C           3.1650    0.6855    1.1719 C.2     1  UNL1        0.0274
      7 C           2.4927   -0.0292    0.2926 C.2     1  UNL1        0.0086
      8 C           1.1746    0.4281   -0.1303 C.2     1  UNL1        0.2562
      9 O           0.6876    1.4905    0.3437 O.2     1  UNL1       -0.2691
     10 N           0.4306   -0.3262   -1.0819 N.am    1  UNL1       -0.2080
     11 C           0.9411   -1.5312   -1.6644 C.3     1  UNL1        0.1102
     12 C           0.6461   -2.7359   -0.8933 C.2     1  UNL1        0.2297
     13 N           1.0911   -4.0133   -1.3946 N.am    1  UNL1       -0.3280
     14 O           0.0211   -2.6882    0.1844 O.2     1  UNL1       -0.2742
     15 N          -0.7873    0.2140   -1.4818 N.am    1  UNL1       -0.2296
     16 C          -1.9588    0.0496   -0.7258 C.2     1  UNL1        0.2498
     17 O          -2.0388   -0.5671    0.3492 O.2     1  UNL1       -0.2722
     18 C          -3.2337    0.6683   -1.2515 C.3     1  UNL1        0.1036
     19 C          -3.0535    2.1809   -1.2420 C.3     1  UNL1       -0.0243
     20 C          -4.0719    2.6873   -0.2616 C.3     1  UNL1       -0.0350
     21 C          -4.3237    1.4780    0.6125 C.3     1  UNL1        0.0155
     22 N          -4.3116    0.3910   -0.3428 N.am    1  UNL1       -0.2901
     23 C          -5.1976   -0.7075   -0.3508 C.2     1  UNL1        0.2131
     24 C          -6.2463   -0.8233    0.6668 C.3     1  UNL1        0.0124
     25 O          -5.0865   -1.5876   -1.2322 O.2     1  UNL1       -0.2759
     26 H           7.4339   -0.5923    1.2615 H       1  UNL1        0.0262
     27 H           8.5259    0.4435    2.2060 H       1  UNL1        0.0262
     28 H           7.3954    1.2016    1.0560 H       1  UNL1        0.0262
     29 H           6.4870   -0.4677    3.4743 H       1  UNL1        0.0695
     30 H           6.9317    1.2499    3.6290 H       1  UNL1        0.0695
     31 H           2.7384    1.5832    1.5598 H       1  UNL1        0.0690
     32 H           2.9124   -0.9597   -0.1168 H       1  UNL1        0.0672
     33 H           2.0416   -1.4542   -1.8233 H       1  UNL1        0.0579
     34 H           0.4885   -1.6030   -2.7102 H       1  UNL1        0.0579
     35 H           2.0788   -4.1018   -1.6600 H       1  UNL1        0.1450
     36 H           0.4303   -4.7977   -1.4773 H       1  UNL1        0.1450
     37 H          -0.8285    0.7599   -2.3751 H       1  UNL1        0.1731
     38 H          -3.4062    0.3206   -2.2749 H       1  UNL1        0.0597
     39 H          -2.0460    2.4786   -0.8897 H       1  UNL1        0.0288
     40 H          -3.2288    2.6026   -2.2666 H       1  UNL1        0.0288
     41 H          -4.9990    2.9374   -0.8140 H       1  UNL1        0.0281
     42 H          -3.7079    3.5548    0.3261 H       1  UNL1        0.0281
     43 H          -3.4482    1.3740    1.2969 H       1  UNL1        0.0465
     44 H          -5.2727    1.5710    1.1605 H       1  UNL1        0.0465
     45 H          -7.0362   -1.5389    0.3152 H       1  UNL1        0.0323
     46 H          -6.7105    0.1500    0.8871 H       1  UNL1        0.0323
     47 H          -5.8450   -1.2131    1.6372 H       1  UNL1        0.0323
@<TRIPOS>BOND
     1     1     2    1
     2     2     3    1
     3     3     4    1
     4     4     5    2
     5     4     6    1
     6     6     7    2
     7     7     8    1
     8     8     9    2
     9     8    10   am
    10    10    11    1
    11    11    12    1
    12    12    13   am
    13    12    14    2
    14    10    15    1
    15    15    16   am
    16    16    17    2
    17    16    18    1
    18    18    19    1
    19    19    20    1
    20    20    21    1
    21    21    22    1
    22    22    23   am
    23    23    24    1
    24    23    25    2
    25    22    18    1
    26     1    26    1
    27     1    27    1
    28     1    28    1
    29     2    29    1
    30     2    30    1
    31     6    31    1
    32     7    32    1
    33    11    33    1
    34    11    34    1
    35    13    35    1
    36    13    36    1
    37    15    37    1
    38    18    38    1
    39    19    39    1
    40    19    40    1
    41    20    41    1
    42    20    42    1
    43    21    43    1
    44    21    44    1
    45    24    45    1
    46    24    46    1
    47    24    47    1
