@<TRIPOS>MOLECULE
*****
 55 57 0 0 0
SMALL
GASTEIGER

@<TRIPOS>ATOM
      1 C           9.3058   -1.2102    0.7294 C.3     1  UNL1        0.0124
      2 C           8.5126   -0.2336   -0.0710 C.2     1  UNL1        0.2126
      3 O           9.1636    0.5690   -0.7936 O.2     1  UNL1       -0.2759
      4 N           7.0933   -0.2016   -0.0280 N.am    1  UNL1       -0.2987
      5 C           6.3425    0.7513   -0.8107 C.3     1  UNL1        0.0304
      6 C           5.0866    1.1384   -0.0165 C.3     1  UNL1        0.0281
      7 N           4.2681   -0.0217    0.1850 N.pl3   1  UNL1       -0.3257
      8 C           2.8374   -0.0022    0.1574 C.ar    1  UNL1        0.0481
      9 C           2.1233   -1.1829    0.2540 C.ar    1  UNL1       -0.0375
     10 C           0.7375   -1.1092    0.2263 C.ar    1  UNL1       -0.0386
     11 C           0.0440    0.0628    0.1091 C.ar    1  UNL1        0.0417
     12 C          -1.4312    0.0104    0.0912 C.3     1  UNL1       -0.0064
     13 C          -2.0252    1.4047   -0.0450 C.3     1  UNL1       -0.0223
     14 C          -3.5255    1.2721   -0.0562 C.ar    1  UNL1       -0.0470
     15 C          -4.2174    1.1034   -1.2277 C.ar    1  UNL1       -0.0583
     16 C          -5.6083    0.9745   -1.2953 C.ar    1  UNL1       -0.0579
     17 C          -6.2869    1.0244   -0.1013 C.ar    1  UNL1       -0.0386
     18 C          -7.7579    0.8939   -0.1031 C.3     1  UNL1        0.0503
     19 C          -8.1711   -0.5108    0.0189 C.2     1  UNL1        0.2306
     20 O          -7.2801   -1.3944    0.1063 O.2     1  UNL1       -0.2742
     21 N          -9.5166   -0.9443    0.0453 N.am    1  UNL1       -0.2533
     22 N          -9.8539   -2.2856    0.1623 N.3     1  UNL1       -0.2544
     23 C          -5.6254    1.1924    1.0910 C.ar    1  UNL1       -0.0579
     24 C          -4.2289    1.3191    1.1287 C.ar    1  UNL1       -0.0583
     25 N           0.7498    1.1933    0.0169 N.ar    1  UNL1       -0.2580
     26 C           2.1083    1.1603    0.0406 C.ar    1  UNL1        0.0489
     27 C           4.9300   -1.2868    0.4363 C.3     1  UNL1        0.0281
     28 C           6.3752   -1.1332    0.8097 C.3     1  UNL1        0.0304
     29 H          10.3593   -1.2237    0.4431 H       1  UNL1        0.0323
     30 H           9.2316   -0.9938    1.7956 H       1  UNL1        0.0323
     31 H           8.8964   -2.2218    0.5280 H       1  UNL1        0.0323
     32 H           6.0675    0.3518   -1.8059 H       1  UNL1        0.0480
     33 H           6.9218    1.6821   -0.9379 H       1  UNL1        0.0480
     34 H           4.6163    1.9577   -0.5593 H       1  UNL1        0.0479
     35 H           5.4791    1.5578    0.9529 H       1  UNL1        0.0479
     36 H           2.6445   -2.1263    0.3466 H       1  UNL1        0.0637
     37 H           0.2144   -2.0523    0.3042 H       1  UNL1        0.0636
     38 H          -1.8409   -0.6169   -0.7154 H       1  UNL1        0.0331
     39 H          -1.7685   -0.3793    1.0735 H       1  UNL1        0.0331
     40 H          -1.7370    1.9966    0.8474 H       1  UNL1        0.0317
     41 H          -1.6695    1.9396   -0.9257 H       1  UNL1        0.0317
     42 H          -3.6601    1.0678   -2.1502 H       1  UNL1        0.0620
     43 H          -6.1124    0.8415   -2.2581 H       1  UNL1        0.0620
     44 H          -8.1467    1.4472    0.7956 H       1  UNL1        0.0407
     45 H          -8.1279    1.3818   -1.0275 H       1  UNL1        0.0407
     46 H         -10.2866   -0.2443   -0.0246 H       1  UNL1        0.1687
     47 H         -10.7664   -2.4420    0.6015 H       1  UNL1        0.1405
     48 H          -9.8066   -2.8093   -0.7339 H       1  UNL1        0.1405
     49 H          -6.1433    1.2346    2.0470 H       1  UNL1        0.0620
     50 H          -3.7080    1.4516    2.0693 H       1  UNL1        0.0620
     51 H           2.6800    2.0989   -0.0343 H       1  UNL1        0.0848
     52 H           4.8629   -1.9120   -0.4722 H       1  UNL1        0.0479
     53 H           4.3848   -1.7429    1.3125 H       1  UNL1        0.0479
     54 H           6.8817   -2.1187    0.8191 H       1  UNL1        0.0480
     55 H           6.3841   -0.6793    1.8439 H       1  UNL1        0.0480
@<TRIPOS>BOND
     1     1     2    1
     2     2     3    2
     3     2     4   am
     4     4     5    1
     5     5     6    1
     6     6     7    1
     7     7     8    1
     8     8     9   ar
     9     9    10   ar
    10    10    11   ar
    11    11    12    1
    12    12    13    1
    13    13    14    1
    14    14    15   ar
    15    15    16   ar
    16    16    17   ar
    17    17    18    1
    18    18    19    1
    19    19    20    2
    20    19    21   am
    21    21    22    1
    22    17    23   ar
    23    23    24   ar
    24    11    25   ar
    25    25    26   ar
    26     7    27    1
    27    27    28    1
    28    28     4    1
    29    26     8   ar
    30    24    14   ar
    31     1    29    1
    32     1    30    1
    33     1    31    1
    34     5    32    1
    35     5    33    1
    36     6    34    1
    37     6    35    1
    38     9    36    1
    39    10    37    1
    40    12    38    1
    41    12    39    1
    42    13    40    1
    43    13    41    1
    44    15    42    1
    45    16    43    1
    46    18    44    1
    47    18    45    1
    48    21    46    1
    49    22    47    1
    50    22    48    1
    51    23    49    1
    52    24    50    1
    53    26    51    1
    54    27    52    1
    55    27    53    1
    56    28    54    1
    57    28    55    1
