@<TRIPOS>MOLECULE
*****
 56 58 0 0 0
SMALL
GASTEIGER

@<TRIPOS>ATOM
      1 C           7.8719    0.0674    0.4220 C.3     1  UNL1        0.0788
      2 O           6.8523    1.0000    0.6086 O.3     1  UNL1       -0.4948
      3 C           5.5201    0.7952    0.2714 C.ar    1  UNL1        0.1230
      4 C           5.0668   -0.3772   -0.2950 C.ar    1  UNL1       -0.0191
      5 C           3.7298   -0.5101   -0.6043 C.ar    1  UNL1       -0.0506
      6 C           2.8400    0.4996   -0.3604 C.ar    1  UNL1       -0.0174
      7 C           1.4286    0.3444   -0.6995 C.ar    1  UNL1       -0.0170
      8 C           0.6563    1.4191   -1.0657 C.ar    1  UNL1       -0.0505
      9 C          -0.6968    1.2619   -1.3903 C.ar    1  UNL1       -0.0187
     10 C          -1.3021    0.0404   -1.3554 C.ar    1  UNL1        0.1314
     11 O          -2.5929   -0.2028   -1.6534 O.3     1  UNL1       -0.4900
     12 C          -3.5813    0.6649   -2.0120 C.3     1  UNL1        0.1023
     13 C          -3.9588    1.6050   -0.8958 C.3     1  UNL1        0.0334
     14 N          -4.4405    0.8628    0.2210 N.3     1  UNL1       -0.2923
     15 C          -3.5285    0.0663    0.9492 C.3     1  UNL1       -0.0121
     16 C          -5.4842    1.4664    0.9795 C.3     1  UNL1        0.0966
     17 C          -6.7257    1.5070    0.1767 C.2     1  UNL1        0.3189
     18 O          -7.8021    2.0329    0.6122 O.2     1  UNL1       -0.2496
     19 O          -6.8326    0.9785   -1.1173 O.3     1  UNL1       -0.4797
     20 C          -0.5040   -1.0551   -0.9801 C.ar    1  UNL1        0.0649
     21 C          -1.1653   -2.3574   -0.9544 C.2     1  UNL1        0.2032
     22 O          -1.9119   -2.6937   -1.9095 O.2     1  UNL1       -0.2860
     23 C          -0.9414   -3.2358    0.1844 C.ar    1  UNL1        0.0595
     24 C          -1.4187   -4.4666    0.5265 C.ar    1  UNL1       -0.0438
     25 C          -1.0182   -5.0470    1.6684 C.ar    1  UNL1       -0.0540
     26 C          -0.1458   -4.4179    2.4786 C.ar    1  UNL1       -0.0236
     27 S           0.1845   -2.8187    1.5802 S.2     1  UNL1       -0.0934
     28 C           0.8255   -0.8884   -0.6636 C.ar    1  UNL1       -0.0396
     29 C           3.2655    1.6816    0.2050 C.ar    1  UNL1       -0.0476
     30 C           4.6214    1.8159    0.5181 C.ar    1  UNL1       -0.0082
     31 C           5.1092    3.0783    1.1258 C.3     1  UNL1       -0.0362
     32 H           7.9346   -0.7164    1.1773 H       1  UNL1        0.0660
     33 H           8.8397    0.6361    0.4498 H       1  UNL1        0.0660
     34 H           7.8495   -0.4102   -0.5790 H       1  UNL1        0.0660
     35 H           5.7717   -1.1602   -0.4808 H       1  UNL1        0.0654
     36 H           3.3384   -1.4149   -1.0500 H       1  UNL1        0.0625
     37 H           1.0838    2.4012   -1.1087 H       1  UNL1        0.0625
     38 H          -1.2600    2.1307   -1.6986 H       1  UNL1        0.0654
     39 H          -4.4882    0.0322   -2.2963 H       1  UNL1        0.0709
     40 H          -3.3439    1.2668   -2.9366 H       1  UNL1        0.0709
     41 H          -3.1999    2.3439   -0.6455 H       1  UNL1        0.0460
     42 H          -4.8586    2.1722   -1.2954 H       1  UNL1        0.0460
     43 H          -2.5418    0.5211    1.1550 H       1  UNL1        0.0391
     44 H          -3.3552   -0.8893    0.4169 H       1  UNL1        0.0391
     45 H          -4.0302   -0.2313    1.9091 H       1  UNL1        0.0391
     46 H          -5.6420    0.8900    1.9141 H       1  UNL1        0.0541
     47 H          -5.2026    2.5029    1.3304 H       1  UNL1        0.0541
     48 H          -7.2975    1.4953   -1.8727 H       1  UNL1        0.2951
     49 H          -2.1565   -4.9851   -0.1696 H       1  UNL1        0.0630
     50 H          -1.3948   -6.0691    1.9827 H       1  UNL1        0.0623
     51 H           0.3195   -4.6270    3.3939 H       1  UNL1        0.0693
     52 H           1.4004   -1.7619   -0.3823 H       1  UNL1        0.0632
     53 H           2.5458    2.4759    0.3939 H       1  UNL1        0.0627
     54 H           4.4540    3.9387    0.8518 H       1  UNL1        0.0279
     55 H           5.1948    3.0180    2.2313 H       1  UNL1        0.0279
     56 H           6.1178    3.3238    0.7385 H       1  UNL1        0.0279
@<TRIPOS>BOND
     1     1     2    1
     2     2     3    1
     3     3     4   ar
     4     4     5   ar
     5     5     6   ar
     6     6     7    1
     7     7     8   ar
     8     8     9   ar
     9     9    10   ar
    10    10    11    1
    11    11    12    1
    12    12    13    1
    13    13    14    1
    14    14    15    1
    15    14    16    1
    16    16    17    1
    17    17    18    2
    18    17    19    1
    19    10    20   ar
    20    20    21    1
    21    21    22    2
    22    21    23    1
    23    23    24   ar
    24    24    25   ar
    25    25    26   ar
    26    26    27   ar
    27    20    28   ar
    28     6    29   ar
    29    29    30   ar
    30    30    31    1
    31    30     3   ar
    32    28     7   ar
    33    27    23   ar
    34     1    32    1
    35     1    33    1
    36     1    34    1
    37     4    35    1
    38     5    36    1
    39     8    37    1
    40     9    38    1
    41    12    39    1
    42    12    40    1
    43    13    41    1
    44    13    42    1
    45    15    43    1
    46    15    44    1
    47    15    45    1
    48    16    46    1
    49    16    47    1
    50    19    48    1
    51    24    49    1
    52    25    50    1
    53    26    51    1
    54    28    52    1
    55    29    53    1
    56    31    54    1
    57    31    55    1
    58    31    56    1
