
     RDKit          3D

 52 55  0  0  0  0  0  0  0  0999 V2000
    2.8977    0.4289   -1.5109 C   0  0  1  0  0  0  0  0  0  0  0  0
    2.0311   -0.0594   -2.4547 F   0  0  0  0  0  0  0  0  0  0  0  0
    2.2195    1.2967   -0.4754 C   0  0  0  0  0  0  0  0  0  0  0  0
    2.1595    0.5376    0.6906 N   0  0  0  0  0  0  0  0  0  0  0  0
    1.3273    0.8976    1.7621 C   0  0  0  0  0  0  0  0  0  0  0  0
   -0.1144    0.7918    1.6045 C   0  0  0  0  0  0  0  0  0  0  0  0
   -0.6616    1.1744    2.6679 O   0  0  0  0  0  0  0  0  0  0  0  0
   -1.0012    0.3817    0.5923 N   0  0  0  0  0  0  0  0  0  0  0  0
   -2.3939    0.2797    0.4369 C   0  0  0  0  0  0  0  0  0  0  0  0
   -2.8315   -0.1326   -0.8003 C   0  0  0  0  0  0  0  0  0  0  0  0
   -4.1750   -0.2638   -1.0485 C   0  0  0  0  0  0  0  0  0  0  0  0
   -5.1096    0.0099   -0.0789 C   0  0  0  0  0  0  0  0  0  0  0  0
   -4.7262    0.4261    1.1781 C   0  0  0  0  0  0  0  0  0  0  0  0
   -3.3681    0.5393    1.3679 C   0  0  0  0  0  0  0  0  0  0  0  0
   -3.0459    0.9424    2.6082 F   0  0  0  0  0  0  0  0  0  0  0  0
   -6.4845   -0.1446   -0.4020 N   0  0  0  0  0  0  0  0  0  0  0  0
   -7.0017   -1.1987   -1.0813 C   0  0  0  0  0  0  0  0  0  0  0  0
   -8.3414   -1.3137   -1.3745 C   0  0  0  0  0  0  0  0  0  0  0  0
   -9.1928   -0.3028   -0.9531 C   0  0  0  0  0  0  0  0  0  0  0  0
   -8.6854    0.7762   -0.2615 C   0  0  0  0  0  0  0  0  0  0  0  0
   -7.3223    0.8131   -0.0082 C   0  0  0  0  0  0  0  0  0  0  0  0
   -6.9806    1.8612    0.6377 O   0  0  0  0  0  0  0  0  0  0  0  0
    2.4341   -0.8021    0.4209 C   0  0  0  0  0  0  0  0  0  0  0  0
    3.4723   -0.7266   -0.6734 C   0  0  2  0  0  0  0  0  0  0  0  0
    4.7973   -0.4425   -0.2347 N   0  0  0  0  0  0  0  0  0  0  0  0
    5.9253   -1.2362   -0.5449 C   0  0  0  0  0  0  0  0  0  0  0  0
    5.8283   -2.2637   -1.2395 O   0  0  0  0  0  0  0  0  0  0  0  0
    7.1777   -0.7790   -0.0090 C   0  0  0  0  0  0  0  0  0  0  0  0
    8.4600   -1.4308   -0.2013 C   0  0  0  0  0  0  0  0  0  0  0  0
    9.5394   -0.8347    0.3907 C   0  0  0  0  0  0  0  0  0  0  0  0
    9.3366    0.3432    1.1292 C   0  0  0  0  0  0  0  0  0  0  0  0
   10.6860    1.2145    1.9513 Cl  0  0  0  0  0  0  0  0  0  0  0  0
    7.5033    0.6344    0.9824 S   0  0  0  0  0  0  0  0  0  0  0  0
    3.7374    0.9770   -1.9672 H   0  0  0  0  0  0  0  0  0  0  0  0
    1.2317    1.5747   -0.9539 H   0  0  0  0  0  0  0  0  0  0  0  0
    2.7986    2.2645   -0.3457 H   0  0  0  0  0  0  0  0  0  0  0  0
    1.6122    0.2687    2.6666 H   0  0  0  0  0  0  0  0  0  0  0  0
    1.6027    1.9461    2.1206 H   0  0  0  0  0  0  0  0  0  0  0  0
   -0.3738    0.0906   -0.1887 H   0  0  0  0  0  0  0  0  0  0  0  0
   -2.1491   -0.3705   -1.6290 H   0  0  0  0  0  0  0  0  0  0  0  0
   -4.4923   -0.5879   -2.0240 H   0  0  0  0  0  0  0  0  0  0  0  0
   -5.4639    0.6305    1.9112 H   0  0  0  0  0  0  0  0  0  0  0  0
   -6.2696   -1.9545   -1.3804 H   0  0  0  0  0  0  0  0  0  0  0  0
   -8.6078   -2.2118   -1.9234 H   0  0  0  0  0  0  0  0  0  0  0  0
  -10.2384   -0.4431   -1.2099 H   0  0  0  0  0  0  0  0  0  0  0  0
   -9.3829    1.5465    0.0508 H   0  0  0  0  0  0  0  0  0  0  0  0
    2.7721   -1.4156    1.2799 H   0  0  0  0  0  0  0  0  0  0  0  0
    1.5525   -1.3042   -0.0387 H   0  0  0  0  0  0  0  0  0  0  0  0
    3.4522   -1.6529   -1.2787 H   0  0  0  0  0  0  0  0  0  0  0  0
    4.8568    0.4277    0.3512 H   0  0  0  0  0  0  0  0  0  0  0  0
    8.4836   -2.3342   -0.7913 H   0  0  0  0  0  0  0  0  0  0  0  0
   10.5188   -1.2735    0.2822 H   0  0  0  0  0  0  0  0  0  0  0  0
  1  2  1  0
  1  3  1  0
  3  4  1  0
  4  5  1  0
  5  6  1  0
  6  7  2  0
  6  8  1  0
  8  9  1  0
  9 10  2  0
 10 11  1  0
 11 12  2  0
 12 13  1  0
 13 14  2  0
 14 15  1  0
 12 16  1  0
 16 17  1  0
 17 18  2  0
 18 19  1  0
 19 20  2  0
 20 21  1  0
 21 22  2  0
  4 23  1  0
 23 24  1  0
 24 25  1  0
 25 26  1  0
 26 27  2  0
 26 28  1  0
 28 29  2  0
 29 30  1  0
 30 31  2  0
 31 32  1  0
 31 33  1  0
 24  1  1  0
 33 28  1  0
 14  9  1  0
 21 16  1  0
  1 34  1  6
  3 35  1  0
  3 36  1  0
  5 37  1  0
  5 38  1  0
  8 39  1  0
 10 40  1  0
 11 41  1  0
 13 42  1  0
 17 43  1  0
 18 44  1  0
 19 45  1  0
 20 46  1  0
 23 47  1  0
 23 48  1  0
 24 49  1  6
 25 50  1  0
 29 51  1  0
 30 52  1  0
M  END
$$$$
