@<TRIPOS>MOLECULE
*****
 52 55 0 0 0
SMALL
GASTEIGER

@<TRIPOS>ATOM
      1 C           2.8977    0.4289   -1.5109 C.3     1  UNL1        0.1330
      2 F           2.0311   -0.0594   -2.4547 F       1  UNL1       -0.2422
      3 C           2.2195    1.2967   -0.4754 C.3     1  UNL1        0.0324
      4 N           2.1595    0.5376    0.6906 N.3     1  UNL1       -0.2894
      5 C           1.3273    0.8976    1.7621 C.3     1  UNL1        0.0762
      6 C          -0.1144    0.7918    1.6045 C.2     1  UNL1        0.2313
      7 O          -0.6616    1.1744    2.6679 O.2     1  UNL1       -0.2741
      8 N          -1.0012    0.3817    0.5923 N.am    1  UNL1       -0.2821
      9 C          -2.3939    0.2797    0.4369 C.ar    1  UNL1        0.0692
     10 C          -2.8315   -0.1326   -0.8003 C.ar    1  UNL1       -0.0357
     11 C          -4.1750   -0.2638   -1.0485 C.ar    1  UNL1       -0.0358
     12 C          -5.1096    0.0099   -0.0789 C.ar    1  UNL1        0.0523
     13 C          -4.7262    0.4261    1.1781 C.ar    1  UNL1       -0.0006
     14 C          -3.3681    0.5393    1.3679 C.ar    1  UNL1        0.1464
     15 F          -3.0459    0.9424    2.6082 F       1  UNL1       -0.2035
     16 N          -6.4845   -0.1446   -0.4020 N.ar    1  UNL1       -0.2841
     17 C          -7.0017   -1.1987   -1.0813 C.ar    1  UNL1        0.0132
     18 C          -8.3414   -1.3137   -1.3745 C.ar    1  UNL1       -0.0449
     19 C          -9.1928   -0.3028   -0.9531 C.ar    1  UNL1       -0.0552
     20 C          -8.6854    0.7762   -0.2615 C.ar    1  UNL1        0.0033
     21 C          -7.3223    0.8131   -0.0082 C.ar    1  UNL1        0.2557
     22 O          -6.9806    1.8612    0.6377 O.2     1  UNL1       -0.2673
     23 C           2.4341   -0.8021    0.4209 C.3     1  UNL1        0.0207
     24 C           3.4723   -0.7266   -0.6734 C.3     1  UNL1        0.0683
     25 N           4.7973   -0.4425   -0.2347 N.am    1  UNL1       -0.3040
     26 C           5.9253   -1.2362   -0.5449 C.2     1  UNL1        0.2511
     27 O           5.8283   -2.2637   -1.2395 O.2     1  UNL1       -0.2696
     28 C           7.1777   -0.7790   -0.0090 C.ar    1  UNL1        0.0752
     29 C           8.4600   -1.4308   -0.2013 C.ar    1  UNL1       -0.0411
     30 C           9.5394   -0.8347    0.3907 C.ar    1  UNL1       -0.0355
     31 C           9.3366    0.3432    1.1292 C.ar    1  UNL1        0.0787
     32 CL         10.6860    1.2145    1.9513 Cl      1  UNL1       -0.0758
     33 S           7.5033    0.6344    0.9824 S.2     1  UNL1       -0.0722
     34 H           3.7374    0.9770   -1.9672 H       1  UNL1        0.0683
     35 H           1.2317    1.5747   -0.9539 H       1  UNL1        0.0455
     36 H           2.7986    2.2645   -0.3457 H       1  UNL1        0.0455
     37 H           1.6122    0.2687    2.6666 H       1  UNL1        0.0522
     38 H           1.6027    1.9461    2.1206 H       1  UNL1        0.0522
     39 H          -0.3738    0.0906   -0.1887 H       1  UNL1        0.1549
     40 H          -2.1491   -0.3705   -1.6290 H       1  UNL1        0.0638
     41 H          -4.4923   -0.5879   -2.0240 H       1  UNL1        0.0639
     42 H          -5.4639    0.6305    1.9112 H       1  UNL1        0.0668
     43 H          -6.2696   -1.9545   -1.3804 H       1  UNL1        0.0814
     44 H          -8.6078   -2.2118   -1.9234 H       1  UNL1        0.0632
     45 H         -10.2384   -0.4431   -1.2099 H       1  UNL1        0.0620
     46 H          -9.3829    1.5465    0.0508 H       1  UNL1        0.0672
     47 H           2.7721   -1.4156    1.2799 H       1  UNL1        0.0446
     48 H           1.5525   -1.3042   -0.0387 H       1  UNL1        0.0446
     49 H           3.4522   -1.6529   -1.2787 H       1  UNL1        0.0540
     50 H           4.8568    0.4277    0.3512 H       1  UNL1        0.1495
     51 H           8.4836   -2.3342   -0.7913 H       1  UNL1        0.0631
     52 H          10.5188   -1.2735    0.2822 H       1  UNL1        0.0638
@<TRIPOS>BOND
     1     1     2    1
     2     1     3    1
     3     3     4    1
     4     4     5    1
     5     5     6    1
     6     6     7    2
     7     6     8   am
     8     8     9    1
     9     9    10   ar
    10    10    11   ar
    11    11    12   ar
    12    12    13   ar
    13    13    14   ar
    14    14    15    1
    15    12    16    1
    16    16    17   ar
    17    17    18   ar
    18    18    19   ar
    19    19    20   ar
    20    20    21   ar
    21    21    22    2
    22     4    23    1
    23    23    24    1
    24    24    25    1
    25    25    26   am
    26    26    27    2
    27    26    28    1
    28    28    29   ar
    29    29    30   ar
    30    30    31   ar
    31    31    32    1
    32    31    33   ar
    33    24     1    1
    34    33    28   ar
    35    14     9   ar
    36    21    16   ar
    37     1    34    1
    38     3    35    1
    39     3    36    1
    40     5    37    1
    41     5    38    1
    42     8    39    1
    43    10    40    1
    44    11    41    1
    45    13    42    1
    46    17    43    1
    47    18    44    1
    48    19    45    1
    49    20    46    1
    50    23    47    1
    51    23    48    1
    52    24    49    1
    53    25    50    1
    54    29    51    1
    55    30    52    1
