
     RDKit          3D

 63 67  0  0  0  0  0  0  0  0999 V2000
    1.8953    2.3400   -3.0005 C   0  0  0  0  0  0  0  0  0  0  0  0
    1.7918    1.0972   -2.2816 N   0  0  0  0  0  0  0  0  0  0  0  0
    2.7767    0.1662   -2.3552 C   0  0  0  0  0  0  0  0  0  0  0  0
    3.7572    0.4629   -3.0794 O   0  0  0  0  0  0  0  0  0  0  0  0
    2.7263   -1.0367   -1.6864 C   0  0  0  0  0  0  0  0  0  0  0  0
    3.7926   -2.0627   -1.7521 C   0  0  0  0  0  0  0  0  0  0  0  0
    4.9666   -1.7141   -0.9294 C   0  0  0  0  0  0  0  0  0  0  0  0
    5.0151   -2.0192    0.4355 C   0  0  0  0  0  0  0  0  0  0  0  0
    6.0860   -1.7185    1.2365 C   0  0  0  0  0  0  0  0  0  0  0  0
    7.1880   -1.0830    0.7020 C   0  0  0  0  0  0  0  0  0  0  0  0
    8.3365   -0.7522    1.5329 C   0  0  0  0  0  0  0  0  0  0  0  0
    9.0341    0.2854    1.2243 N   0  0  0  0  0  0  0  0  0  0  0  0
    8.7167   -1.5144    2.6558 N   0  0  0  0  0  0  0  0  0  0  0  0
    7.1575   -0.7733   -0.6483 C   0  0  0  0  0  0  0  0  0  0  0  0
    6.0708   -1.0794   -1.4576 C   0  0  0  0  0  0  0  0  0  0  0  0
    1.6383   -1.2789   -0.9297 N   0  0  0  0  0  0  0  0  0  0  0  0
    0.6330   -0.3952   -0.8192 C   0  0  0  0  0  0  0  0  0  0  0  0
   -0.4872   -0.6587   -0.0321 C   0  0  0  0  0  0  0  0  0  0  0  0
   -1.5062    0.2301    0.0838 C   0  0  0  0  0  0  0  0  0  0  0  0
   -2.7465   -0.0071    0.9175 C   0  0  0  0  0  0  0  0  0  0  0  0
   -3.9716    0.4025    0.2540 C   0  0  0  0  0  0  0  0  0  0  0  0
   -3.8896    0.4774   -1.0395 O   0  0  0  0  0  0  0  0  0  0  0  0
   -5.2491    0.7354    0.7720 N   0  0  0  0  0  0  0  0  0  0  0  0
   -5.7816    0.8103    2.1000 C   0  0  0  0  0  0  0  0  0  0  0  0
   -6.5586    2.1392    2.0257 C   0  0  0  0  0  0  0  0  0  0  0  0
   -7.3234    1.8628    0.7277 C   0  0  0  0  0  0  0  0  0  0  0  0
   -6.3757    1.0799   -0.1240 C   0  0  0  0  0  0  0  0  0  0  0  0
   -6.9585   -0.2209   -0.6117 C   0  0  0  0  0  0  0  0  0  0  0  0
   -7.4142   -0.9846    0.4392 O   0  0  0  0  0  0  0  0  0  0  0  0
   -2.9048   -1.4437    1.4931 C   0  0  0  0  0  0  0  0  0  0  0  0
   -2.4928   -0.2791    2.3213 C   0  0  0  0  0  0  0  0  0  0  0  0
   -1.4259    1.4195   -0.5948 C   0  0  0  0  0  0  0  0  0  0  0  0
   -0.3019    1.7017   -1.3939 C   0  0  0  0  0  0  0  0  0  0  0  0
    0.7196    0.7817   -1.4950 C   0  0  0  0  0  0  0  0  0  0  0  0
    1.3336    2.3556   -3.9487 H   0  0  0  0  0  0  0  0  0  0  0  0
    1.6772    3.2314   -2.3587 H   0  0  0  0  0  0  0  0  0  0  0  0
    2.9787    2.4583   -3.2960 H   0  0  0  0  0  0  0  0  0  0  0  0
    4.1000   -2.2231   -2.8233 H   0  0  0  0  0  0  0  0  0  0  0  0
    3.3890   -3.0370   -1.4195 H   0  0  0  0  0  0  0  0  0  0  0  0
    4.1689   -2.5166    0.8862 H   0  0  0  0  0  0  0  0  0  0  0  0
    6.0715   -1.9745    2.2774 H   0  0  0  0  0  0  0  0  0  0  0  0
    9.8685    0.5761    1.7792 H   0  0  0  0  0  0  0  0  0  0  0  0
    9.7207   -1.6840    2.8377 H   0  0  0  0  0  0  0  0  0  0  0  0
    8.0138   -1.9095    3.3040 H   0  0  0  0  0  0  0  0  0  0  0  0
    8.0357   -0.2725   -1.0520 H   0  0  0  0  0  0  0  0  0  0  0  0
    6.1046   -0.8123   -2.5205 H   0  0  0  0  0  0  0  0  0  0  0  0
   -0.4979   -1.5953    0.4788 H   0  0  0  0  0  0  0  0  0  0  0  0
   -6.5818    0.0406    2.3085 H   0  0  0  0  0  0  0  0  0  0  0  0
   -5.0821    0.8210    2.9233 H   0  0  0  0  0  0  0  0  0  0  0  0
   -7.2119    2.2899    2.8805 H   0  0  0  0  0  0  0  0  0  0  0  0
   -5.8249    2.9149    1.8052 H   0  0  0  0  0  0  0  0  0  0  0  0
   -7.6272    2.7817    0.2099 H   0  0  0  0  0  0  0  0  0  0  0  0
   -8.2154    1.2544    1.0321 H   0  0  0  0  0  0  0  0  0  0  0  0
   -5.9813    1.6879   -0.9802 H   0  0  0  0  0  0  0  0  0  0  0  0
   -7.7638   -0.0419   -1.3826 H   0  0  0  0  0  0  0  0  0  0  0  0
   -6.2112   -0.8380   -1.1539 H   0  0  0  0  0  0  0  0  0  0  0  0
   -8.3817   -0.9776    0.5397 H   0  0  0  0  0  0  0  0  0  0  0  0
   -2.2388   -2.2055    1.1152 H   0  0  0  0  0  0  0  0  0  0  0  0
   -3.9399   -1.7931    1.7078 H   0  0  0  0  0  0  0  0  0  0  0  0
   -3.0455    0.0305    3.1980 H   0  0  0  0  0  0  0  0  0  0  0  0
   -1.3794   -0.3522    2.5990 H   0  0  0  0  0  0  0  0  0  0  0  0
   -2.1743    2.1885   -0.5718 H   0  0  0  0  0  0  0  0  0  0  0  0
   -0.2192    2.6319   -1.9371 H   0  0  0  0  0  0  0  0  0  0  0  0
  1  2  1  0
  2  3  1  0
  3  4  2  0
  3  5  1  0
  5  6  1  0
  6  7  1  0
  7  8  2  0
  8  9  1  0
  9 10  2  0
 10 11  1  0
 11 12  2  3
 11 13  1  0
 10 14  1  0
 14 15  2  0
  5 16  2  0
 16 17  1  0
 17 18  2  0
 18 19  1  0
 19 20  1  0
 20 21  1  0
 21 22  2  0
 21 23  1  0
 23 24  1  0
 24 25  1  0
 25 26  1  0
 26 27  1  0
 27 28  1  0
 28 29  1  0
 20 30  1  0
 30 31  1  0
 19 32  2  0
 32 33  1  0
 33 34  2  0
 34  2  1  0
 15  7  1  0
 34 17  1  0
 31 20  1  0
 27 23  1  0
  1 35  1  0
  1 36  1  0
  1 37  1  0
  6 38  1  0
  6 39  1  0
  8 40  1  0
  9 41  1  0
 12 42  1  0
 13 43  1  0
 13 44  1  0
 14 45  1  0
 15 46  1  0
 18 47  1  0
 24 48  1  0
 24 49  1  0
 25 50  1  0
 25 51  1  0
 26 52  1  0
 26 53  1  0
 27 54  1  0
 28 55  1  0
 28 56  1  0
 29 57  1  0
 30 58  1  0
 30 59  1  0
 31 60  1  0
 31 61  1  0
 32 62  1  0
 33 63  1  0
M  END
$$$$
