@<TRIPOS>MOLECULE
*****
 63 67 0 0 0
SMALL
GASTEIGER

@<TRIPOS>ATOM
      1 C           1.8953    2.3400   -3.0005 C.3     1  UNL1        0.0154
      2 N           1.7918    1.0972   -2.2816 N.ar    1  UNL1       -0.3083
      3 C           2.7767    0.1662   -2.3552 C.ar    1  UNL1        0.2732
      4 O           3.7572    0.4629   -3.0794 O.2     1  UNL1       -0.2657
      5 C           2.7263   -1.0367   -1.6864 C.ar    1  UNL1        0.1105
      6 C           3.7926   -2.0627   -1.7521 C.3     1  UNL1        0.0201
      7 C           4.9666   -1.7141   -0.9294 C.ar    1  UNL1       -0.0414
      8 C           5.0151   -2.0192    0.4355 C.ar    1  UNL1       -0.0574
      9 C           6.0860   -1.7185    1.2365 C.ar    1  UNL1       -0.0466
     10 C           7.1880   -1.0830    0.7020 C.ar    1  UNL1        0.0647
     11 C           8.3365   -0.7522    1.5329 C.2     1  UNL1        0.3081
     12 N           9.0341    0.2854    1.2243 N.2     1  UNL1       -0.0994
     13 N           8.7167   -1.5144    2.6558 N.pl3   1  UNL1       -0.2466
     14 C           7.1575   -0.7733   -0.6483 C.ar    1  UNL1       -0.0466
     15 C           6.0708   -1.0794   -1.4576 C.ar    1  UNL1       -0.0574
     16 N           1.6383   -1.2789   -0.9297 N.ar    1  UNL1       -0.2444
     17 C           0.6330   -0.3952   -0.8192 C.ar    1  UNL1        0.0881
     18 C          -0.4872   -0.6587   -0.0321 C.ar    1  UNL1       -0.0301
     19 C          -1.5062    0.2301    0.0838 C.ar    1  UNL1       -0.0303
     20 C          -2.7465   -0.0071    0.9175 C.3     1  UNL1        0.0721
     21 C          -3.9716    0.4025    0.2540 C.2     1  UNL1        0.2264
     22 O          -3.8896    0.4774   -1.0395 O.2     1  UNL1       -0.2746
     23 N          -5.2491    0.7354    0.7720 N.am    1  UNL1       -0.2955
     24 C          -5.7816    0.8103    2.1000 C.3     1  UNL1        0.0151
     25 C          -6.5586    2.1392    2.0257 C.3     1  UNL1       -0.0354
     26 C          -7.3234    1.8628    0.7277 C.3     1  UNL1       -0.0307
     27 C          -6.3757    1.0799   -0.1240 C.3     1  UNL1        0.0491
     28 C          -6.9585   -0.2209   -0.6117 C.3     1  UNL1        0.0628
     29 O          -7.4142   -0.9846    0.4392 O.3     1  UNL1       -0.3932
     30 C          -2.9048   -1.4437    1.4931 C.3     1  UNL1       -0.0337
     31 C          -2.4928   -0.2791    2.3213 C.3     1  UNL1       -0.0337
     32 C          -1.4259    1.4195   -0.5948 C.ar    1  UNL1       -0.0555
     33 C          -0.3019    1.7017   -1.3939 C.ar    1  UNL1       -0.0357
     34 C           0.7196    0.7817   -1.4950 C.ar    1  UNL1        0.0700
     35 H           1.3336    2.3556   -3.9487 H       1  UNL1        0.0457
     36 H           1.6772    3.2314   -2.3587 H       1  UNL1        0.0457
     37 H           2.9787    2.4583   -3.2960 H       1  UNL1        0.0457
     38 H           4.1000   -2.2231   -2.8233 H       1  UNL1        0.0378
     39 H           3.3890   -3.0370   -1.4195 H       1  UNL1        0.0378
     40 H           4.1689   -2.5166    0.8862 H       1  UNL1        0.0621
     41 H           6.0715   -1.9745    2.2774 H       1  UNL1        0.0626
     42 H           9.8685    0.5761    1.7792 H       1  UNL1        0.3633
     43 H           9.7207   -1.6840    2.8377 H       1  UNL1        0.2884
     44 H           8.0138   -1.9095    3.3040 H       1  UNL1        0.2884
     45 H           8.0357   -0.2725   -1.0520 H       1  UNL1        0.0626
     46 H           6.1046   -0.8123   -2.5205 H       1  UNL1        0.0621
     47 H          -0.4979   -1.5953    0.4788 H       1  UNL1        0.0642
     48 H          -6.5818    0.0406    2.3085 H       1  UNL1        0.0465
     49 H          -5.0821    0.8210    2.9233 H       1  UNL1        0.0465
     50 H          -7.2119    2.2899    2.8805 H       1  UNL1        0.0281
     51 H          -5.8249    2.9149    1.8052 H       1  UNL1        0.0281
     52 H          -7.6272    2.7817    0.2099 H       1  UNL1        0.0284
     53 H          -8.2154    1.2544    1.0321 H       1  UNL1        0.0284
     54 H          -5.9813    1.6879   -0.9802 H       1  UNL1        0.0523
     55 H          -7.7638   -0.0419   -1.3826 H       1  UNL1        0.0576
     56 H          -6.2112   -0.8380   -1.1539 H       1  UNL1        0.0576
     57 H          -8.3817   -0.9776    0.5397 H       1  UNL1        0.2095
     58 H          -2.2388   -2.2055    1.1152 H       1  UNL1        0.0279
     59 H          -3.9399   -1.7931    1.7078 H       1  UNL1        0.0279
     60 H          -3.0455    0.0305    3.1980 H       1  UNL1        0.0279
     61 H          -1.3794   -0.3522    2.5990 H       1  UNL1        0.0279
     62 H          -2.1743    2.1885   -0.5718 H       1  UNL1        0.0621
     63 H          -0.2192    2.6319   -1.9371 H       1  UNL1        0.0639
@<TRIPOS>BOND
     1     1     2    1
     2     2     3   ar
     3     3     4    2
     4     3     5   ar
     5     5     6    1
     6     6     7    1
     7     7     8   ar
     8     8     9   ar
     9     9    10   ar
    10    10    11    1
    11    11    12    2
    12    11    13    1
    13    10    14   ar
    14    14    15   ar
    15     5    16   ar
    16    16    17   ar
    17    17    18   ar
    18    18    19   ar
    19    19    20    1
    20    20    21    1
    21    21    22    2
    22    21    23   am
    23    23    24    1
    24    24    25    1
    25    25    26    1
    26    26    27    1
    27    27    28    1
    28    28    29    1
    29    20    30    1
    30    30    31    1
    31    19    32   ar
    32    32    33   ar
    33    33    34   ar
    34    34     2   ar
    35    15     7   ar
    36    34    17   ar
    37    31    20    1
    38    27    23    1
    39     1    35    1
    40     1    36    1
    41     1    37    1
    42     6    38    1
    43     6    39    1
    44     8    40    1
    45     9    41    1
    46    12    42    1
    47    13    43    1
    48    13    44    1
    49    14    45    1
    50    15    46    1
    51    18    47    1
    52    24    48    1
    53    24    49    1
    54    25    50    1
    55    25    51    1
    56    26    52    1
    57    26    53    1
    58    27    54    1
    59    28    55    1
    60    28    56    1
    61    29    57    1
    62    30    58    1
    63    30    59    1
    64    31    60    1
    65    31    61    1
    66    32    62    1
    67    33    63    1
