@<TRIPOS>MOLECULE
*****
 60 62 0 0 0
SMALL
GASTEIGER

@<TRIPOS>ATOM
      1 C           8.7097    0.2338   -0.4906 C.3     1  UNL1       -0.0453
      2 C           8.4373   -1.2532   -0.4495 C.3     1  UNL1        0.0697
      3 S           7.3305   -1.6724    0.8768 S.O2    1  UNL1        0.0136
      4 O           7.9261   -1.2820    2.1957 O.2     1  UNL1       -0.1679
      5 O           7.1371   -3.1594    0.8488 O.2     1  UNL1       -0.1679
      6 C           5.7899   -0.8425    0.6789 C.ar    1  UNL1        0.1769
      7 C           4.6451   -1.5997    0.5532 C.ar    1  UNL1       -0.0090
      8 C           3.3989   -0.9936    0.3942 C.ar    1  UNL1        0.0047
      9 C           2.1387   -1.4752    0.2498 C.ar    1  UNL1       -0.0332
     10 C           1.2660   -0.3765    0.1271 C.ar    1  UNL1        0.0200
     11 C          -0.1605   -0.5585   -0.0883 C.3     1  UNL1        0.0250
     12 C          -0.9141    0.7706   -0.3848 C.3     1  UNL1        0.1664
     13 O          -0.6434    1.6163    0.6311 O.3     1  UNL1       -0.3793
     14 C          -2.3696    0.2818   -0.2466 C.3     1  UNL1       -0.0059
     15 C          -3.4773    1.1894   -0.4204 C.3     1  UNL1       -0.0062
     16 C          -3.7564    1.9060   -1.6769 C.3     1  UNL1       -0.0557
     17 C          -3.2264    2.3731    0.5869 C.3     1  UNL1       -0.0557
     18 C          -4.7003    0.4996    0.1645 C.ar    1  UNL1       -0.0294
     19 C          -5.2797    1.0379    1.3151 C.ar    1  UNL1       -0.0546
     20 C          -6.3414    0.4067    1.9787 C.ar    1  UNL1       -0.0261
     21 C          -6.8185   -0.7657    1.4833 C.ar    1  UNL1        0.1241
     22 F          -7.8524   -1.4434    2.0767 F       1  UNL1       -0.2055
     23 C          -6.2485   -1.2835    0.3584 C.ar    1  UNL1       -0.0141
     24 C          -5.1759   -0.6605   -0.3288 C.ar    1  UNL1        0.0429
     25 C          -4.7593   -1.2618   -1.5503 C.2     1  UNL1        0.2419
     26 N          -5.0087   -2.6812   -1.7376 N.am    1  UNL1       -0.3253
     27 O          -4.2022   -0.7121   -2.4822 O.2     1  UNL1       -0.2704
     28 C          -0.5754    1.1241   -1.7760 C.3     1  UNL1        0.4186
     29 F           0.7963    1.2529   -2.0452 F       1  UNL1       -0.1676
     30 F          -1.0398    0.2443   -2.7164 F       1  UNL1       -0.1676
     31 F          -1.0175    2.4504   -2.0283 F       1  UNL1       -0.1676
     32 N           2.0441    0.6884    0.2058 N.ar    1  UNL1       -0.3566
     33 C           3.3551    0.3624    0.3679 C.ar    1  UNL1        0.0651
     34 C           4.5049    1.0929    0.4946 C.ar    1  UNL1        0.0536
     35 N           5.7012    0.4875    0.6476 N.ar    1  UNL1       -0.2348
     36 H           8.5310    0.6424    0.5399 H       1  UNL1        0.0245
     37 H           9.7723    0.4004   -0.7734 H       1  UNL1        0.0245
     38 H           8.0383    0.6889   -1.2238 H       1  UNL1        0.0245
     39 H           9.3886   -1.7817   -0.2630 H       1  UNL1        0.0502
     40 H           8.0147   -1.5875   -1.4066 H       1  UNL1        0.0502
     41 H           4.7281   -2.6833    0.5800 H       1  UNL1        0.0659
     42 H           1.8757   -2.5183    0.2345 H       1  UNL1        0.0641
     43 H          -0.3098   -1.1581   -1.0162 H       1  UNL1        0.0358
     44 H          -0.6740   -1.1211    0.7204 H       1  UNL1        0.0358
     45 H          -0.3543    1.1510    1.4531 H       1  UNL1        0.2106
     46 H          -2.4364   -0.0847    0.8525 H       1  UNL1        0.0304
     47 H          -2.3998   -0.6646   -0.7943 H       1  UNL1        0.0304
     48 H          -3.3079    1.6124   -2.6053 H       1  UNL1        0.0238
     49 H          -3.6395    3.0425   -1.6088 H       1  UNL1        0.0238
     50 H          -4.8950    1.8541   -1.8074 H       1  UNL1        0.0238
     51 H          -3.0193    2.0202    1.5769 H       1  UNL1        0.0238
     52 H          -4.1020    3.0371    0.4807 H       1  UNL1        0.0238
     53 H          -2.3865    2.9860    0.1443 H       1  UNL1        0.0238
     54 H          -4.9601    1.9587    1.7692 H       1  UNL1        0.0622
     55 H          -6.7773    0.8387    2.8685 H       1  UNL1        0.0646
     56 H          -6.6133   -2.2148   -0.0530 H       1  UNL1        0.0654
     57 H          -4.2404   -3.3539   -1.6803 H       1  UNL1        0.1453
     58 H          -5.9983   -2.9227   -1.9255 H       1  UNL1        0.1453
     59 H           1.7316    1.6856    0.1871 H       1  UNL1        0.1656
     60 H           4.4200    2.1757    0.4676 H       1  UNL1        0.0851
@<TRIPOS>BOND
     1     1     2    1
     2     2     3    1
     3     3     4    2
     4     3     5    2
     5     3     6    1
     6     6     7   ar
     7     7     8   ar
     8     8     9   ar
     9     9    10   ar
    10    10    11    1
    11    11    12    1
    12    12    13    1
    13    12    14    1
    14    14    15    1
    15    15    16    1
    16    15    17    1
    17    15    18    1
    18    18    19   ar
    19    19    20   ar
    20    20    21   ar
    21    21    22    1
    22    21    23   ar
    23    23    24   ar
    24    24    25    1
    25    25    26   am
    26    25    27    2
    27    12    28    1
    28    28    29    1
    29    28    30    1
    30    28    31    1
    31    10    32   ar
    32    32    33   ar
    33    33    34   ar
    34    34    35   ar
    35    35     6   ar
    36    33     8   ar
    37    24    18   ar
    38     1    36    1
    39     1    37    1
    40     1    38    1
    41     2    39    1
    42     2    40    1
    43     7    41    1
    44     9    42    1
    45    11    43    1
    46    11    44    1
    47    13    45    1
    48    14    46    1
    49    14    47    1
    50    16    48    1
    51    16    49    1
    52    16    50    1
    53    17    51    1
    54    17    52    1
    55    17    53    1
    56    19    54    1
    57    20    55    1
    58    23    56    1
    59    26    57    1
    60    26    58    1
    61    32    59    1
    62    34    60    1
