@<TRIPOS>MOLECULE
*****
 49 52 0 0 0
SMALL
GASTEIGER

@<TRIPOS>ATOM
      1 O           6.1592   -1.8003    0.7069 O.3     1  UNL1       -0.3918
      2 C           5.7455   -0.4840    0.9474 C.3     1  UNL1        0.0553
      3 C           5.1626    0.0615   -0.3242 C.3     1  UNL1       -0.0263
      4 C           3.7267   -0.3349   -0.4976 C.3     1  UNL1       -0.0424
      5 C           2.8326    0.0364    0.6647 C.3     1  UNL1        0.0016
      6 C           1.8129    1.0170    0.2985 C.ar    1  UNL1        0.0483
      7 N           2.0205    2.3582    0.4456 N.ar    1  UNL1       -0.2807
      8 N           0.9328    2.9824    0.0539 N.ar    1  UNL1       -0.1814
      9 C           0.0219    2.1179   -0.3437 C.ar    1  UNL1        0.0586
     10 C           0.5633    0.8423   -0.1971 C.ar    1  UNL1        0.0411
     11 C          -0.2012   -0.3399   -0.5214 C.ar    1  UNL1        0.0792
     12 C           0.3602   -1.5783   -0.5949 C.ar    1  UNL1       -0.0173
     13 C          -0.4768   -2.6575   -0.9329 C.ar    1  UNL1        0.0332
     14 N          -1.7713   -2.4556   -1.1706 N.ar    1  UNL1       -0.2229
     15 C          -2.3440   -1.2392   -1.1044 C.ar    1  UNL1        0.2159
     16 N          -3.7290   -1.0799   -1.3715 N.pl3   1  UNL1       -0.3106
     17 C          -4.4232    0.1897   -1.3328 C.3     1  UNL1        0.0233
     18 C          -4.3342    0.7722    0.0641 C.3     1  UNL1       -0.0345
     19 C          -5.7628    1.1794    0.4100 C.3     1  UNL1       -0.0513
     20 C          -6.5357    0.0655   -0.2800 C.3     1  UNL1       -0.0513
     21 C          -5.8887    0.0108   -1.6357 C.3     1  UNL1       -0.0345
     22 N          -1.5444   -0.2249   -0.7834 N.ar    1  UNL1       -0.2144
     23 C           3.7564    0.6629    1.7584 C.3     1  UNL1       -0.0424
     24 C           4.7544   -0.4343    2.0887 C.3     1  UNL1       -0.0263
     25 H           6.0565   -2.0295   -0.2361 H       1  UNL1        0.2098
     26 H           6.6613    0.1140    1.1846 H       1  UNL1        0.0593
     27 H           5.7095   -0.3359   -1.2239 H       1  UNL1        0.0290
     28 H           5.2526    1.1654   -0.3401 H       1  UNL1        0.0290
     29 H           3.7399   -1.4521   -0.6669 H       1  UNL1        0.0272
     30 H           3.3292    0.1016   -1.4488 H       1  UNL1        0.0272
     31 H           2.4936   -0.8762    1.1545 H       1  UNL1        0.0364
     32 H           2.8663    2.8227    0.7988 H       1  UNL1        0.1885
     33 H          -0.9443    2.3581   -0.7078 H       1  UNL1        0.0854
     34 H           1.3951   -1.8110   -0.4339 H       1  UNL1        0.0654
     35 H          -0.0102   -3.6487   -0.9864 H       1  UNL1        0.0831
     36 H          -4.2815   -1.9268   -1.6106 H       1  UNL1        0.1492
     37 H          -3.9995    0.9053   -2.0717 H       1  UNL1        0.0498
     38 H          -4.0624   -0.0218    0.7707 H       1  UNL1        0.0283
     39 H          -3.6676    1.6488    0.0680 H       1  UNL1        0.0283
     40 H          -6.0204    2.1551   -0.0386 H       1  UNL1        0.0266
     41 H          -5.9518    1.1434    1.4854 H       1  UNL1        0.0266
     42 H          -7.6104    0.2691   -0.3142 H       1  UNL1        0.0266
     43 H          -6.2766   -0.8581    0.2828 H       1  UNL1        0.0266
     44 H          -6.2884    0.8274   -2.2889 H       1  UNL1        0.0283
     45 H          -6.0999   -0.9700   -2.1168 H       1  UNL1        0.0283
     46 H           4.2553    1.5350    1.3481 H       1  UNL1        0.0272
     47 H           3.1513    0.8426    2.6571 H       1  UNL1        0.0272
     48 H           4.1976   -1.4082    2.1440 H       1  UNL1        0.0290
     49 H           5.2669   -0.2176    3.0466 H       1  UNL1        0.0290
@<TRIPOS>BOND
     1     1     2    1
     2     2     3    1
     3     3     4    1
     4     4     5    1
     5     5     6    1
     6     6     7   ar
     7     7     8   ar
     8     8     9   ar
     9     9    10   ar
    10    10    11    1
    11    11    12   ar
    12    12    13   ar
    13    13    14   ar
    14    14    15   ar
    15    15    16    1
    16    16    17    1
    17    17    18    1
    18    18    19    1
    19    19    20    1
    20    20    21    1
    21    15    22   ar
    22     5    23    1
    23    23    24    1
    24    24     2    1
    25    10     6   ar
    26    22    11   ar
    27    21    17    1
    28     1    25    1
    29     2    26    1
    30     3    27    1
    31     3    28    1
    32     4    29    1
    33     4    30    1
    34     5    31    1
    35     7    32    1
    36     9    33    1
    37    12    34    1
    38    13    35    1
    39    16    36    1
    40    17    37    1
    41    18    38    1
    42    18    39    1
    43    19    40    1
    44    19    41    1
    45    20    42    1
    46    20    43    1
    47    21    44    1
    48    21    45    1
    49    23    46    1
    50    23    47    1
    51    24    48    1
    52    24    49    1
