
     RDKit          3D

 49 52  0  0  0  0  0  0  0  0999 V2000
    6.1592   -1.8003    0.7069 O   0  0  0  0  0  0  0  0  0  0  0  0
    5.7455   -0.4840    0.9474 C   0  0  1  0  0  0  0  0  0  0  0  0
    5.1626    0.0615   -0.3242 C   0  0  0  0  0  0  0  0  0  0  0  0
    3.7267   -0.3349   -0.4976 C   0  0  0  0  0  0  0  0  0  0  0  0
    2.8326    0.0364    0.6647 C   0  0  2  0  0  0  0  0  0  0  0  0
    1.8129    1.0170    0.2985 C   0  0  0  0  0  0  0  0  0  0  0  0
    2.0205    2.3582    0.4456 N   0  0  0  0  0  0  0  0  0  0  0  0
    0.9328    2.9824    0.0539 N   0  0  0  0  0  0  0  0  0  0  0  0
    0.0219    2.1179   -0.3437 C   0  0  0  0  0  0  0  0  0  0  0  0
    0.5633    0.8423   -0.1971 C   0  0  0  0  0  0  0  0  0  0  0  0
   -0.2012   -0.3399   -0.5214 C   0  0  0  0  0  0  0  0  0  0  0  0
    0.3602   -1.5783   -0.5949 C   0  0  0  0  0  0  0  0  0  0  0  0
   -0.4768   -2.6575   -0.9329 C   0  0  0  0  0  0  0  0  0  0  0  0
   -1.7713   -2.4556   -1.1706 N   0  0  0  0  0  0  0  0  0  0  0  0
   -2.3440   -1.2392   -1.1044 C   0  0  0  0  0  0  0  0  0  0  0  0
   -3.7290   -1.0799   -1.3715 N   0  0  0  0  0  0  0  0  0  0  0  0
   -4.4232    0.1897   -1.3328 C   0  0  0  0  0  0  0  0  0  0  0  0
   -4.3342    0.7722    0.0641 C   0  0  0  0  0  0  0  0  0  0  0  0
   -5.7628    1.1794    0.4100 C   0  0  0  0  0  0  0  0  0  0  0  0
   -6.5357    0.0655   -0.2800 C   0  0  0  0  0  0  0  0  0  0  0  0
   -5.8887    0.0108   -1.6357 C   0  0  0  0  0  0  0  0  0  0  0  0
   -1.5444   -0.2249   -0.7834 N   0  0  0  0  0  0  0  0  0  0  0  0
    3.7564    0.6629    1.7584 C   0  0  0  0  0  0  0  0  0  0  0  0
    4.7544   -0.4343    2.0887 C   0  0  0  0  0  0  0  0  0  0  0  0
    6.0565   -2.0295   -0.2361 H   0  0  0  0  0  0  0  0  0  0  0  0
    6.6613    0.1140    1.1846 H   0  0  0  0  0  0  0  0  0  0  0  0
    5.7095   -0.3359   -1.2239 H   0  0  0  0  0  0  0  0  0  0  0  0
    5.2526    1.1654   -0.3401 H   0  0  0  0  0  0  0  0  0  0  0  0
    3.7399   -1.4521   -0.6669 H   0  0  0  0  0  0  0  0  0  0  0  0
    3.3292    0.1016   -1.4488 H   0  0  0  0  0  0  0  0  0  0  0  0
    2.4936   -0.8762    1.1545 H   0  0  0  0  0  0  0  0  0  0  0  0
    2.8663    2.8227    0.7988 H   0  0  0  0  0  0  0  0  0  0  0  0
   -0.9443    2.3581   -0.7078 H   0  0  0  0  0  0  0  0  0  0  0  0
    1.3951   -1.8110   -0.4339 H   0  0  0  0  0  0  0  0  0  0  0  0
   -0.0102   -3.6487   -0.9864 H   0  0  0  0  0  0  0  0  0  0  0  0
   -4.2815   -1.9268   -1.6106 H   0  0  0  0  0  0  0  0  0  0  0  0
   -3.9995    0.9053   -2.0717 H   0  0  0  0  0  0  0  0  0  0  0  0
   -4.0624   -0.0218    0.7707 H   0  0  0  0  0  0  0  0  0  0  0  0
   -3.6676    1.6488    0.0680 H   0  0  0  0  0  0  0  0  0  0  0  0
   -6.0204    2.1551   -0.0386 H   0  0  0  0  0  0  0  0  0  0  0  0
   -5.9518    1.1434    1.4854 H   0  0  0  0  0  0  0  0  0  0  0  0
   -7.6104    0.2691   -0.3142 H   0  0  0  0  0  0  0  0  0  0  0  0
   -6.2766   -0.8581    0.2828 H   0  0  0  0  0  0  0  0  0  0  0  0
   -6.2884    0.8274   -2.2889 H   0  0  0  0  0  0  0  0  0  0  0  0
   -6.0999   -0.9700   -2.1168 H   0  0  0  0  0  0  0  0  0  0  0  0
    4.2553    1.5350    1.3481 H   0  0  0  0  0  0  0  0  0  0  0  0
    3.1513    0.8426    2.6571 H   0  0  0  0  0  0  0  0  0  0  0  0
    4.1976   -1.4082    2.1440 H   0  0  0  0  0  0  0  0  0  0  0  0
    5.2669   -0.2176    3.0466 H   0  0  0  0  0  0  0  0  0  0  0  0
  1  2  1  0
  2  3  1  0
  3  4  1  0
  4  5  1  0
  5  6  1  0
  6  7  1  0
  7  8  1  0
  8  9  2  0
  9 10  1  0
 10 11  1  0
 11 12  2  0
 12 13  1  0
 13 14  2  0
 14 15  1  0
 15 16  1  0
 16 17  1  0
 17 18  1  0
 18 19  1  0
 19 20  1  0
 20 21  1  0
 15 22  2  0
  5 23  1  0
 23 24  1  0
 24  2  1  0
 10  6  2  0
 22 11  1  0
 21 17  1  0
  1 25  1  0
  2 26  1  1
  3 27  1  0
  3 28  1  0
  4 29  1  0
  4 30  1  0
  5 31  1  1
  7 32  1  0
  9 33  1  0
 12 34  1  0
 13 35  1  0
 16 36  1  0
 17 37  1  0
 18 38  1  0
 18 39  1  0
 19 40  1  0
 19 41  1  0
 20 42  1  0
 20 43  1  0
 21 44  1  0
 21 45  1  0
 23 46  1  0
 23 47  1  0
 24 48  1  0
 24 49  1  0
M  END
$$$$
