
     RDKit          3D

 71 72  0  0  0  0  0  0  0  0999 V2000
   -6.8953   -0.5066   -1.6802 C   0  0  0  0  0  0  0  0  0  0  0  0
   -6.6353   -1.6123   -0.6972 C   0  0  0  0  0  0  0  0  0  0  0  0
   -7.4086   -1.3412    0.5844 C   0  0  0  0  0  0  0  0  0  0  0  0
   -7.0820   -2.9625   -1.2053 C   0  0  0  0  0  0  0  0  0  0  0  0
   -5.2260   -1.6278   -0.4229 O   0  0  0  0  0  0  0  0  0  0  0  0
   -4.6355   -0.4936    0.1214 C   0  0  0  0  0  0  0  0  0  0  0  0
   -5.3588    0.4844    0.3458 O   0  0  0  0  0  0  0  0  0  0  0  0
   -3.2434   -0.4321    0.4213 N   0  0  0  0  0  0  0  0  0  0  0  0
   -2.6578    0.7571    0.9796 C   0  0  1  0  0  0  0  0  0  0  0  0
   -3.5105    1.0463    2.2594 C   0  0  0  0  0  0  0  0  0  0  0  0
   -1.2958    0.5971    1.5025 C   0  0  0  0  0  0  0  0  0  0  0  0
   -0.6910    1.6683    1.8540 O   0  0  0  0  0  0  0  0  0  0  0  0
   -0.5489   -0.5936    1.6757 N   0  0  0  0  0  0  0  0  0  0  0  0
   -0.7711   -2.0020    1.4836 C   0  0  0  0  0  0  0  0  0  0  0  0
    0.4271   -2.2949    2.3740 C   0  0  0  0  0  0  0  0  0  0  0  0
    0.8187   -0.8926    2.1201 C   0  0  1  0  0  0  0  0  0  0  0  0
    1.8384   -0.6615    1.0632 C   0  0  0  0  0  0  0  0  0  0  0  0
    1.4343   -0.2578   -0.0566 O   0  0  0  0  0  0  0  0  0  0  0  0
    3.2050   -0.8690    1.2537 N   0  0  0  0  0  0  0  0  0  0  0  0
    4.2062   -0.6156    0.1328 C   0  0  2  0  0  0  0  0  0  0  0  0
    4.8459   -1.9443   -0.0447 C   0  0  0  0  0  0  0  0  0  0  0  0
    5.6091   -2.2938   -0.8875 O   0  0  0  0  0  0  0  0  0  0  0  0
    5.1151    0.4095    0.7151 C   0  0  0  0  0  0  0  0  0  0  0  0
    6.1845    1.0466   -0.0419 C   0  0  0  0  0  0  0  0  0  0  0  0
    7.2127    0.1895   -0.6487 C   0  0  0  0  0  0  0  0  0  0  0  0
    8.2611    1.0779   -1.2305 N   0  0  0  0  0  0  0  0  0  0  0  0
    9.3643    0.5273   -1.5532 C   0  0  0  0  0  0  0  0  0  0  0  0
    9.5618   -0.8476   -1.3622 N   0  0  0  0  0  0  0  0  0  0  0  0
   10.3942    1.3113   -2.1066 N   0  0  0  0  0  0  0  0  0  0  0  0
   -2.8296    1.9559    0.1152 C   0  0  0  0  0  0  0  0  0  0  0  0
   -2.5138    3.2204    0.5488 C   0  0  0  0  0  0  0  0  0  0  0  0
   -2.6355    4.3493   -0.2639 C   0  0  0  0  0  0  0  0  0  0  0  0
   -3.0874    4.2221   -1.5540 C   0  0  0  0  0  0  0  0  0  0  0  0
   -3.4096    2.9677   -2.0095 C   0  0  0  0  0  0  0  0  0  0  0  0
   -3.2868    1.8411   -1.1966 C   0  0  0  0  0  0  0  0  0  0  0  0
   -5.9674   -0.2524   -2.2323 H   0  0  0  0  0  0  0  0  0  0  0  0
   -7.7110   -0.8427   -2.3515 H   0  0  0  0  0  0  0  0  0  0  0  0
   -7.2002    0.4205   -1.1425 H   0  0  0  0  0  0  0  0  0  0  0  0
   -6.7359   -1.0790    1.4263 H   0  0  0  0  0  0  0  0  0  0  0  0
   -8.0926   -0.4585    0.4609 H   0  0  0  0  0  0  0  0  0  0  0  0
   -7.9999   -2.2262    0.9090 H   0  0  0  0  0  0  0  0  0  0  0  0
   -6.5382   -3.7728   -0.6677 H   0  0  0  0  0  0  0  0  0  0  0  0
   -8.1581   -3.0821   -0.9525 H   0  0  0  0  0  0  0  0  0  0  0  0
   -6.9212   -3.0845   -2.2975 H   0  0  0  0  0  0  0  0  0  0  0  0
   -2.7110   -1.2950    0.1870 H   0  0  0  0  0  0  0  0  0  0  0  0
   -3.9931    0.1069    2.5691 H   0  0  0  0  0  0  0  0  0  0  0  0
   -4.3013    1.7511    1.9521 H   0  0  0  0  0  0  0  0  0  0  0  0
   -2.8747    1.4871    3.0491 H   0  0  0  0  0  0  0  0  0  0  0  0
   -1.7217   -2.4098    1.9298 H   0  0  0  0  0  0  0  0  0  0  0  0
   -0.6036   -2.3298    0.4558 H   0  0  0  0  0  0  0  0  0  0  0  0
    1.0940   -3.0886    1.9795 H   0  0  0  0  0  0  0  0  0  0  0  0
    0.1136   -2.5318    3.4113 H   0  0  0  0  0  0  0  0  0  0  0  0
    1.0534   -0.3577    3.0710 H   0  0  0  0  0  0  0  0  0  0  0  0
    3.6056   -1.1905    2.1198 H   0  0  0  0  0  0  0  0  0  0  0  0
    3.6876   -0.2816   -0.7595 H   0  0  0  0  0  0  0  0  0  0  0  0
    4.6003   -2.7447    0.6935 H   0  0  0  0  0  0  0  0  0  0  0  0
    5.6225   -0.0313    1.6623 H   0  0  0  0  0  0  0  0  0  0  0  0
    4.4711    1.2575    1.1473 H   0  0  0  0  0  0  0  0  0  0  0  0
    5.6627    1.6706   -0.8645 H   0  0  0  0  0  0  0  0  0  0  0  0
    6.6948    1.8772    0.5810 H   0  0  0  0  0  0  0  0  0  0  0  0
    7.6522   -0.6082   -0.0695 H   0  0  0  0  0  0  0  0  0  0  0  0
    6.7275   -0.2912   -1.5713 H   0  0  0  0  0  0  0  0  0  0  0  0
    9.1584   -1.5285   -2.0264 H   0  0  0  0  0  0  0  0  0  0  0  0
   10.1118   -1.1867   -0.5562 H   0  0  0  0  0  0  0  0  0  0  0  0
   11.1511    1.6703   -1.5095 H   0  0  0  0  0  0  0  0  0  0  0  0
   10.3880    1.5257   -3.1159 H   0  0  0  0  0  0  0  0  0  0  0  0
   -2.1629    3.3443    1.5824 H   0  0  0  0  0  0  0  0  0  0  0  0
   -2.3626    5.2996    0.1654 H   0  0  0  0  0  0  0  0  0  0  0  0
   -3.1948    5.0881   -2.2173 H   0  0  0  0  0  0  0  0  0  0  0  0
   -3.7650    2.8843   -3.0298 H   0  0  0  0  0  0  0  0  0  0  0  0
   -3.5352    0.8670   -1.5877 H   0  0  0  0  0  0  0  0  0  0  0  0
  1  2  1  0
  2  3  1  0
  2  4  1  0
  2  5  1  0
  5  6  1  0
  6  7  2  0
  6  8  1  0
  9  8  1  6
  9 10  1  0
  9 11  1  0
 11 12  2  0
 11 13  1  0
 13 14  1  0
 14 15  1  0
 15 16  1  0
 16 17  1  0
 17 18  2  0
 17 19  1  0
 19 20  1  0
 20 21  1  0
 21 22  2  0
 20 23  1  0
 23 24  1  0
 24 25  1  0
 25 26  1  0
 26 27  2  3
 27 28  1  0
 27 29  1  0
  9 30  1  0
 30 31  2  0
 31 32  1  0
 32 33  2  0
 33 34  1  0
 34 35  2  0
 16 13  1  0
 35 30  1  0
  1 36  1  0
  1 37  1  0
  1 38  1  0
  3 39  1  0
  3 40  1  0
  3 41  1  0
  4 42  1  0
  4 43  1  0
  4 44  1  0
  8 45  1  0
 10 46  1  0
 10 47  1  0
 10 48  1  0
 14 49  1  0
 14 50  1  0
 15 51  1  0
 15 52  1  0
 16 53  1  1
 19 54  1  0
 20 55  1  6
 21 56  1  0
 23 57  1  0
 23 58  1  0
 24 59  1  0
 24 60  1  0
 25 61  1  0
 25 62  1  0
 28 63  1  0
 28 64  1  0
 29 65  1  0
 29 66  1  0
 31 67  1  0
 32 68  1  0
 33 69  1  0
 34 70  1  0
 35 71  1  0
M  END
$$$$
