@<TRIPOS>MOLECULE
*****
 71 72 0 0 0
SMALL
GASTEIGER

@<TRIPOS>ATOM
      1 C          -6.8953   -0.5066   -1.6802 C.3     0  UNK0       -0.0253
      2 C          -6.6353   -1.6123   -0.6972 C.3     0  UNK0        0.1068
      3 C          -7.4086   -1.3412    0.5844 C.3     0  UNK0       -0.0253
      4 C          -7.0820   -2.9625   -1.2053 C.3     0  UNK0       -0.0253
      5 O          -5.2260   -1.6278   -0.4229 O.3     0  UNK0       -0.4446
      6 C          -4.6355   -0.4936    0.1214 C.2     0  UNK0        0.4018
      7 O          -5.3588    0.4844    0.3458 O.2     0  UNK0       -0.2264
      8 N          -3.2434   -0.4321    0.4213 N.am    0  UNK0       -0.2633
      9 C          -2.6578    0.7571    0.9796 C.3     0  UNK0        0.1361
     10 C          -3.5105    1.0463    2.2594 C.3     0  UNK0       -0.0308
     11 C          -1.2958    0.5971    1.5025 C.2     0  UNK0        0.2440
     12 O          -0.6910    1.6683    1.8540 O.2     0  UNK0       -0.2729
     13 N          -0.5489   -0.5936    1.6757 N.am    0  UNK0       -0.2878
     14 C          -0.7711   -2.0020    1.4836 C.3     0  UNK0        0.0177
     15 C           0.4271   -2.2949    2.3740 C.3     0  UNK0       -0.0099
     16 C           0.8187   -0.8926    2.1201 C.3     0  UNK0        0.1037
     17 C           1.8384   -0.6615    1.0632 C.2     0  UNK0        0.2342
     18 O           1.4343   -0.2578   -0.0566 O.2     0  UNK0       -0.2738
     19 N           3.2050   -0.8690    1.2537 N.am    1  ARG1       -0.3044
     20 CA          4.2062   -0.6156    0.1328 C.3     1  ARG1        0.0786
     21 C           4.8459   -1.9443   -0.0447 C.2     1  ARG1        0.1404
     22 O           5.6091   -2.2938   -0.8875 O.2     1  ARG1       -0.2991
     23 CB          5.1151    0.4095    0.7151 C.3     1  ARG1       -0.0249
     24 CG          6.1845    1.0466   -0.0419 C.3     1  ARG1       -0.0166
     25 CD          7.2127    0.1895   -0.6487 C.3     1  ARG1        0.1048
     26 NE          8.2611    1.0779   -1.2305 N.pl3   1  ARG1       -0.1138
     27 CZ          9.3643    0.5273   -1.5532 C.cat   1  ARG1        0.3765
     28 NH1         9.5618   -0.8476   -1.3622 N.pl3   1  ARG1       -0.2893
     29 NH2        10.3942    1.3113   -2.1066 N.pl3   1  ARG1       -0.2893
     30 C          -2.8296    1.9559    0.1152 C.ar    0  UNK0       -0.0155
     31 C          -2.5138    3.2204    0.5488 C.ar    0  UNK0       -0.0561
     32 C          -2.6355    4.3493   -0.2639 C.ar    0  UNK0       -0.0614
     33 C          -3.0874    4.2221   -1.5540 C.ar    0  UNK0       -0.0617
     34 C          -3.4096    2.9677   -2.0095 C.ar    0  UNK0       -0.0614
     35 C          -3.2868    1.8411   -1.1966 C.ar    0  UNK0       -0.0561
     36 H          -5.9674   -0.2524   -2.2323 H       0  UNK0        0.0268
     37 H          -7.7110   -0.8427   -2.3515 H       0  UNK0        0.0268
     38 H          -7.2002    0.4205   -1.1425 H       0  UNK0        0.0268
     39 H          -6.7359   -1.0790    1.4263 H       0  UNK0        0.0268
     40 H          -8.0926   -0.4585    0.4609 H       0  UNK0        0.0268
     41 H          -7.9999   -2.2262    0.9090 H       0  UNK0        0.0268
     42 H          -6.5382   -3.7728   -0.6677 H       0  UNK0        0.0268
     43 H          -8.1581   -3.0821   -0.9525 H       0  UNK0        0.0268
     44 H          -6.9212   -3.0845   -2.2975 H       0  UNK0        0.0268
     45 H          -2.7110   -1.2950    0.1870 H       0  UNK0        0.1534
     46 H          -3.9931    0.1069    2.5691 H       0  UNK0        0.0258
     47 H          -4.3013    1.7511    1.9521 H       0  UNK0        0.0258
     48 H          -2.8747    1.4871    3.0491 H       0  UNK0        0.0258
     49 H          -1.7217   -2.4098    1.9298 H       0  UNK0        0.0465
     50 H          -0.6036   -2.3298    0.4558 H       0  UNK0        0.0465
     51 H           1.0940   -3.0886    1.9795 H       0  UNK0        0.0303
     52 H           0.1136   -2.5318    3.4113 H       0  UNK0        0.0303
     53 H           1.0534   -0.3577    3.0710 H       0  UNK0        0.0597
     54 H           3.6056   -1.1905    2.1198 H       1  ARG1        0.1494
     55 HA          3.6876   -0.2816   -0.7595 H       1  ARG1        0.0574
     56 H           4.6003   -2.7447    0.6935 H       1  ARG1        0.1046
     57 HB1         5.6225   -0.0313    1.6623 H       1  ARG1        0.0288
     58 HB2         4.4711    1.2575    1.1473 H       1  ARG1        0.0288
     59 HG1         5.6627    1.6706   -0.8645 H       1  ARG1        0.0298
     60 HG2         6.6948    1.8772    0.5810 H       1  ARG1        0.0298
     61 HD1         7.6522   -0.6082   -0.0695 H       1  ARG1        0.0693
     62 HD2         6.7275   -0.2912   -1.5713 H       1  ARG1        0.0693
     63 HH11        9.1584   -1.5285   -2.0264 H       1  ARG1        0.2546
     64 HH12       10.1118   -1.1867   -0.5562 H       1  ARG1        0.2546
     65 HH21       11.1511    1.6703   -1.5095 H       1  ARG1        0.2546
     66 HH22       10.3880    1.5257   -3.1159 H       1  ARG1        0.2546
     67 H          -2.1629    3.3443    1.5824 H       0  UNK0        0.0621
     68 H          -2.3626    5.2996    0.1654 H       0  UNK0        0.0618
     69 H          -3.1948    5.0881   -2.2173 H       0  UNK0        0.0618
     70 H          -3.7650    2.8843   -3.0298 H       0  UNK0        0.0618
     71 H          -3.5352    0.8670   -1.5877 H       0  UNK0        0.0621
@<TRIPOS>BOND
     1     1     2    1
     2     2     3    1
     3     2     4    1
     4     2     5    1
     5     5     6    1
     6     6     7    2
     7     6     8   am
     8     9     8    1
     9     9    10    1
    10     9    11    1
    11    11    12    2
    12    11    13   am
    13    13    14    1
    14    14    15    1
    15    15    16    1
    16    16    17    1
    17    17    18    2
    18    17    19   am
    19    19    20    1
    20    20    21    1
    21    21    22    2
    22    20    23    1
    23    23    24    1
    24    24    25    1
    25    25    26    1
    26    26    27    2
    27    27    28    1
    28    27    29    1
    29     9    30    1
    30    30    31   ar
    31    31    32   ar
    32    32    33   ar
    33    33    34   ar
    34    34    35   ar
    35    16    13    1
    36    35    30   ar
    37     1    36    1
    38     1    37    1
    39     1    38    1
    40     3    39    1
    41     3    40    1
    42     3    41    1
    43     4    42    1
    44     4    43    1
    45     4    44    1
    46     8    45    1
    47    10    46    1
    48    10    47    1
    49    10    48    1
    50    14    49    1
    51    14    50    1
    52    15    51    1
    53    15    52    1
    54    16    53    1
    55    19    54    1
    56    20    55    1
    57    21    56    1
    58    23    57    1
    59    23    58    1
    60    24    59    1
    61    24    60    1
    62    25    61    1
    63    25    62    1
    64    28    63    1
    65    28    64    1
    66    29    65    1
    67    29    66    1
    68    31    67    1
    69    32    68    1
    70    33    69    1
    71    34    70    1
    72    35    71    1
