@<TRIPOS>MOLECULE
*****
 79 83 0 0 0
SMALL
GASTEIGER

@<TRIPOS>ATOM
      1 C           6.4616   -2.7756   -1.4643 C.3     1  UNL1       -0.0523
      2 C           6.6964   -1.8763   -0.2587 C.3     1  UNL1       -0.0036
      3 N           7.3297   -0.6691   -0.6867 N.3     1  UNL1       -0.2987
      4 C           8.6942   -0.9368   -1.1616 C.3     1  UNL1       -0.0036
      5 C           9.2944    0.3712   -1.5898 C.3     1  UNL1       -0.0523
      6 C           7.3172    0.3651    0.2966 C.3     1  UNL1        0.0240
      7 C           5.9406    0.7349    0.6756 C.ar    1  UNL1       -0.0331
      8 C           5.2532    0.1987    1.7433 C.ar    1  UNL1       -0.0539
      9 C           3.9640    0.5681    2.0654 C.ar    1  UNL1       -0.0196
     10 C           3.3034    1.5096    1.3116 C.ar    1  UNL1        0.1205
     11 O           1.9895    1.8922    1.6330 O.3     1  UNL1       -0.4920
     12 C           1.3161    2.8661    0.8467 C.3     1  UNL1        0.0896
     13 C          -0.0410    3.0542    1.4355 C.3     1  UNL1       -0.0175
     14 C          -0.8880    1.7960    1.4643 C.3     1  UNL1       -0.0371
     15 C          -1.0794    1.3089    0.0822 C.3     1  UNL1       -0.0007
     16 N          -1.8537    0.1519   -0.1286 N.3     1  UNL1       -0.2981
     17 C          -2.0057   -0.2619   -1.4728 C.3     1  UNL1        0.0004
     18 C          -3.2330   -0.9742   -1.8678 C.3     1  UNL1       -0.0235
     19 C          -4.4747   -0.4584   -1.1753 C.3     1  UNL1        0.0558
     20 C          -4.5751    0.9980   -1.2313 C.2     1  UNL1       -0.0715
     21 C          -5.5810    1.6165   -1.8294 C.2     1  UNL1       -0.0588
     22 C          -6.7143    0.9416   -2.5066 C.3     1  UNL1        0.0768
     23 O          -7.8004    0.8772   -1.6360 O.3     1  UNL1       -0.3876
     24 C          -6.3379   -0.4696   -2.8813 C.3     1  UNL1        0.0151
     25 C          -5.7180   -1.1149   -1.6921 C.3     1  UNL1        0.1161
     26 O          -6.5658   -1.0850   -0.5321 O.3     1  UNL1       -0.4836
     27 C          -5.7101   -1.3535    0.5524 C.ar    1  UNL1        0.1667
     28 C          -5.9818   -1.8868    1.7952 C.ar    1  UNL1        0.1618
     29 O          -7.2543   -2.2494    2.1377 O.3     1  UNL1       -0.4914
     30 C          -7.6532   -2.7957    3.3540 C.3     1  UNL1        0.0790
     31 C          -4.9708   -2.0643    2.7170 C.ar    1  UNL1       -0.0160
     32 C          -3.6675   -1.6929    2.3658 C.ar    1  UNL1       -0.0534
     33 C          -3.4194   -1.1662    1.1290 C.ar    1  UNL1       -0.0255
     34 C          -4.4264   -0.9889    0.2098 C.ar    1  UNL1        0.0158
     35 C          -1.9767   -0.8121    0.8784 C.3     1  UNL1        0.0244
     36 C           3.9649    2.0570    0.2460 C.ar    1  UNL1       -0.0196
     37 C           5.2431    1.6885   -0.0709 C.ar    1  UNL1       -0.0539
     38 H           6.3266   -2.0904   -2.3506 H       1  UNL1        0.0242
     39 H           7.3270   -3.4254   -1.6795 H       1  UNL1        0.0242
     40 H           5.5130   -3.3305   -1.3475 H       1  UNL1        0.0242
     41 H           5.7225   -1.6222    0.2187 H       1  UNL1        0.0424
     42 H           7.3651   -2.4171    0.4355 H       1  UNL1        0.0424
     43 H           8.6512   -1.6273   -2.0276 H       1  UNL1        0.0424
     44 H           9.2776   -1.3602   -0.3147 H       1  UNL1        0.0424
     45 H           9.7521    0.8691   -0.6982 H       1  UNL1        0.0242
     46 H          10.1476    0.1190   -2.2752 H       1  UNL1        0.0242
     47 H           8.5845    1.0150   -2.1304 H       1  UNL1        0.0242
     48 H           7.9321    0.0941    1.1846 H       1  UNL1        0.0476
     49 H           7.8395    1.2740   -0.1246 H       1  UNL1        0.0476
     50 H           5.7813   -0.5509    2.3475 H       1  UNL1        0.0622
     51 H           3.4869    0.0988    2.9247 H       1  UNL1        0.0654
     52 H           1.3515    2.5350   -0.1917 H       1  UNL1        0.0696
     53 H           1.8846    3.8149    1.0186 H       1  UNL1        0.0696
     54 H          -0.5406    3.8795    0.8855 H       1  UNL1        0.0298
     55 H           0.0901    3.4125    2.4763 H       1  UNL1        0.0298
     56 H          -0.3460    1.1063    2.1453 H       1  UNL1        0.0279
     57 H          -1.8591    2.0751    1.8975 H       1  UNL1        0.0279
     58 H          -0.0872    1.1321   -0.4345 H       1  UNL1        0.0427
     59 H          -1.5065    2.1738   -0.5071 H       1  UNL1        0.0427
     60 H          -1.1293   -0.9349   -1.7159 H       1  UNL1        0.0427
     61 H          -1.8683    0.6075   -2.1550 H       1  UNL1        0.0427
     62 H          -3.4085   -0.8206   -2.9654 H       1  UNL1        0.0290
     63 H          -3.2053   -2.0728   -1.7293 H       1  UNL1        0.0290
     64 H          -3.8249    1.6401   -0.7818 H       1  UNL1        0.0580
     65 H          -5.6193    2.7212   -1.8497 H       1  UNL1        0.0595
     66 H          -7.0614    1.5125   -3.3945 H       1  UNL1        0.0639
     67 H          -8.2796    0.0020   -1.6925 H       1  UNL1        0.2102
     68 H          -5.6040   -0.4712   -3.6966 H       1  UNL1        0.0329
     69 H          -7.2416   -1.0332   -3.1480 H       1  UNL1        0.0329
     70 H          -5.4765   -2.1676   -1.9626 H       1  UNL1        0.0746
     71 H          -8.6240   -3.3516    3.2234 H       1  UNL1        0.0660
     72 H          -7.6687   -2.1067    4.2046 H       1  UNL1        0.0660
     73 H          -6.9080   -3.5965    3.6202 H       1  UNL1        0.0660
     74 H          -5.1330   -2.4781    3.7033 H       1  UNL1        0.0655
     75 H          -2.8412   -1.8110    3.0496 H       1  UNL1        0.0622
     76 H          -1.4131   -1.7384    0.5599 H       1  UNL1        0.0476
     77 H          -1.4919   -0.4917    1.8135 H       1  UNL1        0.0476
     78 H           3.4812    2.8025   -0.3749 H       1  UNL1        0.0654
     79 H           5.7834    2.1143   -0.9151 H       1  UNL1        0.0622
@<TRIPOS>BOND
     1     1     2    1
     2     2     3    1
     3     3     4    1
     4     4     5    1
     5     3     6    1
     6     6     7    1
     7     7     8   ar
     8     8     9   ar
     9     9    10   ar
    10    10    11    1
    11    11    12    1
    12    12    13    1
    13    13    14    1
    14    14    15    1
    15    15    16    1
    16    16    17    1
    17    17    18    1
    18    19    18    1
    19    19    20    1
    20    20    21    2
    21    21    22    1
    22    22    23    1
    23    22    24    1
    24    24    25    1
    25    25    26    1
    26    26    27    1
    27    27    28   ar
    28    28    29    1
    29    29    30    1
    30    28    31   ar
    31    31    32   ar
    32    32    33   ar
    33    33    34   ar
    34    33    35    1
    35    10    36   ar
    36    36    37   ar
    37    37     7   ar
    38    35    16    1
    39    25    19    1
    40    34    27   ar
    41    34    19    1
    42     1    38    1
    43     1    39    1
    44     1    40    1
    45     2    41    1
    46     2    42    1
    47     4    43    1
    48     4    44    1
    49     5    45    1
    50     5    46    1
    51     5    47    1
    52     6    48    1
    53     6    49    1
    54     8    50    1
    55     9    51    1
    56    12    52    1
    57    12    53    1
    58    13    54    1
    59    13    55    1
    60    14    56    1
    61    14    57    1
    62    15    58    1
    63    15    59    1
    64    17    60    1
    65    17    61    1
    66    18    62    1
    67    18    63    1
    68    20    64    1
    69    21    65    1
    70    22    66    1
    71    23    67    1
    72    24    68    1
    73    24    69    1
    74    25    70    1
    75    30    71    1
    76    30    72    1
    77    30    73    1
    78    31    74    1
    79    32    75    1
    80    35    76    1
    81    35    77    1
    82    36    78    1
    83    37    79    1
