
     RDKit          3D

 79 83  0  0  0  0  0  0  0  0999 V2000
    6.4616   -2.7756   -1.4643 C   0  0  0  0  0  0  0  0  0  0  0  0
    6.6964   -1.8763   -0.2587 C   0  0  0  0  0  0  0  0  0  0  0  0
    7.3297   -0.6691   -0.6867 N   0  0  0  0  0  0  0  0  0  0  0  0
    8.6942   -0.9368   -1.1616 C   0  0  0  0  0  0  0  0  0  0  0  0
    9.2944    0.3712   -1.5898 C   0  0  0  0  0  0  0  0  0  0  0  0
    7.3172    0.3651    0.2966 C   0  0  0  0  0  0  0  0  0  0  0  0
    5.9406    0.7349    0.6756 C   0  0  0  0  0  0  0  0  0  0  0  0
    5.2532    0.1987    1.7433 C   0  0  0  0  0  0  0  0  0  0  0  0
    3.9640    0.5681    2.0654 C   0  0  0  0  0  0  0  0  0  0  0  0
    3.3034    1.5096    1.3116 C   0  0  0  0  0  0  0  0  0  0  0  0
    1.9895    1.8922    1.6330 O   0  0  0  0  0  0  0  0  0  0  0  0
    1.3161    2.8661    0.8467 C   0  0  0  0  0  0  0  0  0  0  0  0
   -0.0410    3.0542    1.4355 C   0  0  0  0  0  0  0  0  0  0  0  0
   -0.8880    1.7960    1.4643 C   0  0  0  0  0  0  0  0  0  0  0  0
   -1.0794    1.3089    0.0822 C   0  0  0  0  0  0  0  0  0  0  0  0
   -1.8537    0.1519   -0.1286 N   0  0  0  0  0  0  0  0  0  0  0  0
   -2.0057   -0.2619   -1.4728 C   0  0  0  0  0  0  0  0  0  0  0  0
   -3.2330   -0.9742   -1.8678 C   0  0  0  0  0  0  0  0  0  0  0  0
   -4.4747   -0.4584   -1.1753 C   0  0  1  0  0  0  0  0  0  0  0  0
   -4.5751    0.9980   -1.2313 C   0  0  0  0  0  0  0  0  0  0  0  0
   -5.5810    1.6165   -1.8294 C   0  0  0  0  0  0  0  0  0  0  0  0
   -6.7143    0.9416   -2.5066 C   0  0  2  0  0  0  0  0  0  0  0  0
   -7.8004    0.8772   -1.6360 O   0  0  0  0  0  0  0  0  0  0  0  0
   -6.3379   -0.4696   -2.8813 C   0  0  0  0  0  0  0  0  0  0  0  0
   -5.7180   -1.1149   -1.6921 C   0  0  2  0  0  0  0  0  0  0  0  0
   -6.5658   -1.0850   -0.5321 O   0  0  0  0  0  0  0  0  0  0  0  0
   -5.7101   -1.3535    0.5524 C   0  0  0  0  0  0  0  0  0  0  0  0
   -5.9818   -1.8868    1.7952 C   0  0  0  0  0  0  0  0  0  0  0  0
   -7.2543   -2.2494    2.1377 O   0  0  0  0  0  0  0  0  0  0  0  0
   -7.6532   -2.7957    3.3540 C   0  0  0  0  0  0  0  0  0  0  0  0
   -4.9708   -2.0643    2.7170 C   0  0  0  0  0  0  0  0  0  0  0  0
   -3.6675   -1.6929    2.3658 C   0  0  0  0  0  0  0  0  0  0  0  0
   -3.4194   -1.1662    1.1290 C   0  0  0  0  0  0  0  0  0  0  0  0
   -4.4264   -0.9889    0.2098 C   0  0  0  0  0  0  0  0  0  0  0  0
   -1.9767   -0.8121    0.8784 C   0  0  0  0  0  0  0  0  0  0  0  0
    3.9649    2.0570    0.2460 C   0  0  0  0  0  0  0  0  0  0  0  0
    5.2431    1.6885   -0.0709 C   0  0  0  0  0  0  0  0  0  0  0  0
    6.3266   -2.0904   -2.3506 H   0  0  0  0  0  0  0  0  0  0  0  0
    7.3270   -3.4254   -1.6795 H   0  0  0  0  0  0  0  0  0  0  0  0
    5.5130   -3.3305   -1.3475 H   0  0  0  0  0  0  0  0  0  0  0  0
    5.7225   -1.6222    0.2187 H   0  0  0  0  0  0  0  0  0  0  0  0
    7.3651   -2.4171    0.4355 H   0  0  0  0  0  0  0  0  0  0  0  0
    8.6512   -1.6273   -2.0276 H   0  0  0  0  0  0  0  0  0  0  0  0
    9.2776   -1.3602   -0.3147 H   0  0  0  0  0  0  0  0  0  0  0  0
    9.7521    0.8691   -0.6982 H   0  0  0  0  0  0  0  0  0  0  0  0
   10.1476    0.1190   -2.2752 H   0  0  0  0  0  0  0  0  0  0  0  0
    8.5845    1.0150   -2.1304 H   0  0  0  0  0  0  0  0  0  0  0  0
    7.9321    0.0941    1.1846 H   0  0  0  0  0  0  0  0  0  0  0  0
    7.8395    1.2740   -0.1246 H   0  0  0  0  0  0  0  0  0  0  0  0
    5.7813   -0.5509    2.3475 H   0  0  0  0  0  0  0  0  0  0  0  0
    3.4869    0.0988    2.9247 H   0  0  0  0  0  0  0  0  0  0  0  0
    1.3515    2.5350   -0.1917 H   0  0  0  0  0  0  0  0  0  0  0  0
    1.8846    3.8149    1.0186 H   0  0  0  0  0  0  0  0  0  0  0  0
   -0.5406    3.8795    0.8855 H   0  0  0  0  0  0  0  0  0  0  0  0
    0.0901    3.4125    2.4763 H   0  0  0  0  0  0  0  0  0  0  0  0
   -0.3460    1.1063    2.1453 H   0  0  0  0  0  0  0  0  0  0  0  0
   -1.8591    2.0751    1.8975 H   0  0  0  0  0  0  0  0  0  0  0  0
   -0.0872    1.1321   -0.4345 H   0  0  0  0  0  0  0  0  0  0  0  0
   -1.5065    2.1738   -0.5071 H   0  0  0  0  0  0  0  0  0  0  0  0
   -1.1293   -0.9349   -1.7159 H   0  0  0  0  0  0  0  0  0  0  0  0
   -1.8683    0.6075   -2.1550 H   0  0  0  0  0  0  0  0  0  0  0  0
   -3.4085   -0.8206   -2.9654 H   0  0  0  0  0  0  0  0  0  0  0  0
   -3.2053   -2.0728   -1.7293 H   0  0  0  0  0  0  0  0  0  0  0  0
   -3.8249    1.6401   -0.7818 H   0  0  0  0  0  0  0  0  0  0  0  0
   -5.6193    2.7212   -1.8497 H   0  0  0  0  0  0  0  0  0  0  0  0
   -7.0614    1.5125   -3.3945 H   0  0  0  0  0  0  0  0  0  0  0  0
   -8.2796    0.0020   -1.6925 H   0  0  0  0  0  0  0  0  0  0  0  0
   -5.6040   -0.4712   -3.6966 H   0  0  0  0  0  0  0  0  0  0  0  0
   -7.2416   -1.0332   -3.1480 H   0  0  0  0  0  0  0  0  0  0  0  0
   -5.4765   -2.1676   -1.9626 H   0  0  0  0  0  0  0  0  0  0  0  0
   -8.6240   -3.3516    3.2234 H   0  0  0  0  0  0  0  0  0  0  0  0
   -7.6687   -2.1067    4.2046 H   0  0  0  0  0  0  0  0  0  0  0  0
   -6.9080   -3.5965    3.6202 H   0  0  0  0  0  0  0  0  0  0  0  0
   -5.1330   -2.4781    3.7033 H   0  0  0  0  0  0  0  0  0  0  0  0
   -2.8412   -1.8110    3.0496 H   0  0  0  0  0  0  0  0  0  0  0  0
   -1.4131   -1.7384    0.5599 H   0  0  0  0  0  0  0  0  0  0  0  0
   -1.4919   -0.4917    1.8135 H   0  0  0  0  0  0  0  0  0  0  0  0
    3.4812    2.8025   -0.3749 H   0  0  0  0  0  0  0  0  0  0  0  0
    5.7834    2.1143   -0.9151 H   0  0  0  0  0  0  0  0  0  0  0  0
  1  2  1  0
  2  3  1  0
  3  4  1  0
  4  5  1  0
  3  6  1  0
  6  7  1  0
  7  8  2  0
  8  9  1  0
  9 10  2  0
 10 11  1  0
 11 12  1  0
 12 13  1  0
 13 14  1  0
 14 15  1  0
 15 16  1  0
 16 17  1  0
 17 18  1  0
 19 18  1  6
 19 20  1  0
 20 21  2  0
 21 22  1  0
 22 23  1  0
 22 24  1  0
 24 25  1  0
 25 26  1  0
 26 27  1  0
 27 28  1  0
 28 29  1  0
 29 30  1  0
 28 31  2  0
 31 32  1  0
 32 33  2  0
 33 34  1  0
 33 35  1  0
 10 36  1  0
 36 37  2  0
 37  7  1  0
 35 16  1  0
 25 19  1  0
 34 27  2  0
 34 19  1  0
  1 38  1  0
  1 39  1  0
  1 40  1  0
  2 41  1  0
  2 42  1  0
  4 43  1  0
  4 44  1  0
  5 45  1  0
  5 46  1  0
  5 47  1  0
  6 48  1  0
  6 49  1  0
  8 50  1  0
  9 51  1  0
 12 52  1  0
 12 53  1  0
 13 54  1  0
 13 55  1  0
 14 56  1  0
 14 57  1  0
 15 58  1  0
 15 59  1  0
 17 60  1  0
 17 61  1  0
 18 62  1  0
 18 63  1  0
 20 64  1  0
 21 65  1  0
 22 66  1  6
 23 67  1  0
 24 68  1  0
 24 69  1  0
 25 70  1  6
 30 71  1  0
 30 72  1  0
 30 73  1  0
 31 74  1  0
 32 75  1  0
 35 76  1  0
 35 77  1  0
 36 78  1  0
 37 79  1  0
M  END
$$$$
