@<TRIPOS>MOLECULE
*****
 57 59 0 0 0
SMALL
GASTEIGER

@<TRIPOS>ATOM
      1 C          -5.8931   -0.3053    2.2406 C.2     0  UNK0        0.2073
      2 O          -5.8267   -1.1134    3.1832 O.2     0  UNK0       -0.2790
      3 N          -4.9768    0.5512    1.5331 N.am    0  UNK0       -0.2607
      4 C          -3.5338    0.6217    1.7446 C.3     0  UNK0        0.0619
      5 C          -3.0009   -0.6924    2.2238 C.3     0  UNK0        0.0296
      6 N          -1.5782   -0.6498    2.4359 N.pl3   0  UNK0       -0.3420
      7 C          -0.3895   -0.7705    1.6853 C.ar    0  UNK0        0.0272
      8 C           0.8796   -0.5868    2.2568 C.ar    0  UNK0       -0.0401
      9 C           1.9556   -0.7720    1.4272 C.ar    0  UNK0       -0.0479
     10 C           1.9237   -1.1169    0.1016 C.ar    0  UNK0        0.0368
     11 C           0.6694   -1.3061   -0.4927 C.ar    0  UNK0       -0.0479
     12 C          -0.4337   -1.1235    0.3314 C.ar    0  UNK0       -0.0401
     13 C           3.0968   -1.3091   -0.7467 C.2     0  UNK0        0.2447
     14 O           2.9986   -1.6005   -1.9604 O.2     0  UNK0       -0.2702
     15 N           4.4026   -1.1691   -0.2111 N.am    1  GLU1       -0.2983
     16 CA          5.5390   -1.3765   -1.1152 C.3     1  GLU1        0.1209
     17 CB          6.3561   -0.1147   -1.0318 C.3     1  GLU1       -0.0140
     18 CG          7.5796   -0.1493   -1.8993 C.3     1  GLU1        0.0470
     19 CD          7.1395   -0.3382   -3.2941 C.2     1  GLU1        0.3048
     20 OE1         7.2841   -0.4973   -4.6641 O.3     1  GLU1       -0.4806
     21 OE2         6.0572   -0.4688   -3.9589 O.2     1  GLU1       -0.2510
     22 C           6.3105   -2.5009   -0.5308 C.2     1  GLU1        0.3253
     23 O           7.2058   -3.5245   -0.1899 O.3     1  GLU1       -0.4793
     24 OXT         5.7959   -2.9706    0.5381 O.2     1  GLU1       -0.2489
     25 C          -2.8213    1.1427    0.5564 C.3     0  UNK0        0.0310
     26 N          -3.4217    2.3807    0.0561 N.pl3   0  UNK0       -0.3255
     27 C          -4.8417    2.2660   -0.1885 C.ar    0  UNK0        0.1493
     28 C          -5.6163    1.3586    0.5423 C.ar    0  UNK0        0.1416
     29 C          -6.9523    1.2873    0.2746 C.ar    0  UNK0        0.2761
     30 O          -7.6846    0.4881    0.9077 O.2     0  UNK0       -0.2657
     31 N          -7.5923    2.0283   -0.6480 N.ar    0  UNK0       -0.2937
     32 C          -6.7870    2.8980   -1.3331 C.ar    0  UNK0        0.1948
     33 N          -7.4498    3.6930   -2.3234 N.pl3   0  UNK0       -0.3289
     34 N          -5.4581    3.0373   -1.1361 N.ar    0  UNK0       -0.1994
     35 H          -5.6836   -0.9662    3.0573 H       0  UNK0        0.1257
     36 H          -3.4236    1.3916    2.5667 H       0  UNK0        0.0535
     37 H          -3.1935   -1.4968    1.4347 H       0  UNK0        0.0480
     38 H          -3.5259   -1.0700    3.1265 H       0  UNK0        0.0480
     39 H          -1.3885   -0.4684    3.4726 H       0  UNK0        0.1461
     40 H           0.9704   -0.3141    3.2935 H       0  UNK0        0.0636
     41 H           2.9232   -0.6244    1.8948 H       0  UNK0        0.0626
     42 H           0.6001   -1.5739   -1.5228 H       0  UNK0        0.0626
     43 H          -1.3620   -1.3022   -0.1954 H       0  UNK0        0.0636
     44 H           4.5985   -0.9315    0.7816 H       1  GLU1        0.1498
     45 HA          5.1972   -1.6079   -2.1335 H       1  GLU1        0.0614
     46 HB1         5.7373    0.7532   -1.3869 H       1  GLU1        0.0294
     47 HB2         6.5871    0.1178    0.0215 H       1  GLU1        0.0294
     48 HG1         8.2319   -0.9636   -1.5534 H       1  GLU1        0.0378
     49 HG2         8.0730    0.8458   -1.8261 H       1  GLU1        0.0378
     50 HE1         8.2019   -0.7163   -5.0789 H       1  GLU1        0.2951
     51 H           8.1951   -3.3119    0.0064 H       1  GLU1        0.2951
     52 H          -2.8737    0.4449   -0.3022 H       0  UNK0        0.0480
     53 H          -1.7580    1.3750    0.7408 H       0  UNK0        0.0480
     54 H          -2.9810    3.3171   -0.1428 H       0  UNK0        0.1476
     55 H          -8.5992    1.9791   -0.8563 H       0  UNK0        0.1716
     56 H          -7.6911    3.1377   -3.1934 H       0  UNK0        0.1451
     57 H          -7.7715    4.6881   -2.4404 H       0  UNK0        0.1451
@<TRIPOS>BOND
     1     1     2    2
     2     1     3   am
     3     3     4    1
     4     4     5    1
     5     5     6    1
     6     6     7    1
     7     7     8   ar
     8     8     9   ar
     9     9    10   ar
    10    10    11   ar
    11    11    12   ar
    12    10    13    1
    13    13    14    2
    14    13    15   am
    15    15    16    1
    16    16    17    1
    17    17    18    1
    18    18    19    1
    19    19    20    1
    20    19    21    2
    21    16    22    1
    22    22    23    1
    23    22    24    2
    24     4    25    1
    25    25    26    1
    26    26    27    1
    27    27    28   ar
    28    28    29   ar
    29    29    30    2
    30    29    31   ar
    31    31    32   ar
    32    32    33    1
    33    32    34   ar
    34    28     3    1
    35    12     7   ar
    36    34    27   ar
    37     1    35    1
    38     4    36    1
    39     5    37    1
    40     5    38    1
    41     6    39    1
    42     8    40    1
    43     9    41    1
    44    11    42    1
    45    12    43    1
    46    15    44    1
    47    16    45    1
    48    17    46    1
    49    17    47    1
    50    18    48    1
    51    18    49    1
    52    20    50    1
    53    23    51    1
    54    25    52    1
    55    25    53    1
    56    26    54    1
    57    31    55    1
    58    33    56    1
    59    33    57    1
