
     RDKit          3D

 57 59  0  0  0  0  0  0  0  0999 V2000
   -5.8931   -0.3053    2.2406 C   0  0  0  0  0  0  0  0  0  0  0  0
   -5.8267   -1.1134    3.1832 O   0  0  0  0  0  0  0  0  0  0  0  0
   -4.9768    0.5512    1.5331 N   0  0  0  0  0  0  0  0  0  0  0  0
   -3.5338    0.6217    1.7446 C   0  0  0  0  0  0  0  0  0  0  0  0
   -3.0009   -0.6924    2.2238 C   0  0  0  0  0  0  0  0  0  0  0  0
   -1.5782   -0.6498    2.4359 N   0  0  0  0  0  0  0  0  0  0  0  0
   -0.3895   -0.7705    1.6853 C   0  0  0  0  0  0  0  0  0  0  0  0
    0.8796   -0.5868    2.2568 C   0  0  0  0  0  0  0  0  0  0  0  0
    1.9556   -0.7720    1.4272 C   0  0  0  0  0  0  0  0  0  0  0  0
    1.9237   -1.1169    0.1016 C   0  0  0  0  0  0  0  0  0  0  0  0
    0.6694   -1.3061   -0.4927 C   0  0  0  0  0  0  0  0  0  0  0  0
   -0.4337   -1.1235    0.3314 C   0  0  0  0  0  0  0  0  0  0  0  0
    3.0968   -1.3091   -0.7467 C   0  0  0  0  0  0  0  0  0  0  0  0
    2.9986   -1.6005   -1.9604 O   0  0  0  0  0  0  0  0  0  0  0  0
    4.4026   -1.1691   -0.2111 N   0  0  0  0  0  0  0  0  0  0  0  0
    5.5390   -1.3765   -1.1152 C   0  0  1  0  0  0  0  0  0  0  0  0
    6.3561   -0.1147   -1.0318 C   0  0  0  0  0  0  0  0  0  0  0  0
    7.5796   -0.1493   -1.8993 C   0  0  0  0  0  0  0  0  0  0  0  0
    7.1395   -0.3382   -3.2941 C   0  0  0  0  0  0  0  0  0  0  0  0
    7.2841   -0.4973   -4.6641 O   0  0  0  0  0  0  0  0  0  0  0  0
    6.0572   -0.4688   -3.9589 O   0  0  0  0  0  0  0  0  0  0  0  0
    6.3105   -2.5009   -0.5308 C   0  0  0  0  0  0  0  0  0  0  0  0
    7.2058   -3.5245   -0.1899 O   0  0  0  0  0  0  0  0  0  0  0  0
    5.7959   -2.9706    0.5381 O   0  0  0  0  0  0  0  0  0  0  0  0
   -2.8213    1.1427    0.5564 C   0  0  0  0  0  0  0  0  0  0  0  0
   -3.4217    2.3807    0.0561 N   0  0  0  0  0  0  0  0  0  0  0  0
   -4.8417    2.2660   -0.1885 C   0  0  0  0  0  0  0  0  0  0  0  0
   -5.6163    1.3586    0.5423 C   0  0  0  0  0  0  0  0  0  0  0  0
   -6.9523    1.2873    0.2746 C   0  0  0  0  0  0  0  0  0  0  0  0
   -7.6846    0.4881    0.9077 O   0  0  0  0  0  0  0  0  0  0  0  0
   -7.5923    2.0283   -0.6480 N   0  0  0  0  0  0  0  0  0  0  0  0
   -6.7870    2.8980   -1.3331 C   0  0  0  0  0  0  0  0  0  0  0  0
   -7.4498    3.6930   -2.3234 N   0  0  0  0  0  0  0  0  0  0  0  0
   -5.4581    3.0373   -1.1361 N   0  0  0  0  0  0  0  0  0  0  0  0
   -5.6836   -0.9662    3.0573 H   0  0  0  0  0  0  0  0  0  0  0  0
   -3.4236    1.3916    2.5667 H   0  0  0  0  0  0  0  0  0  0  0  0
   -3.1935   -1.4968    1.4347 H   0  0  0  0  0  0  0  0  0  0  0  0
   -3.5259   -1.0700    3.1265 H   0  0  0  0  0  0  0  0  0  0  0  0
   -1.3885   -0.4684    3.4726 H   0  0  0  0  0  0  0  0  0  0  0  0
    0.9704   -0.3141    3.2935 H   0  0  0  0  0  0  0  0  0  0  0  0
    2.9232   -0.6244    1.8948 H   0  0  0  0  0  0  0  0  0  0  0  0
    0.6001   -1.5739   -1.5228 H   0  0  0  0  0  0  0  0  0  0  0  0
   -1.3620   -1.3022   -0.1954 H   0  0  0  0  0  0  0  0  0  0  0  0
    4.5985   -0.9315    0.7816 H   0  0  0  0  0  0  0  0  0  0  0  0
    5.1972   -1.6079   -2.1335 H   0  0  0  0  0  0  0  0  0  0  0  0
    5.7373    0.7532   -1.3869 H   0  0  0  0  0  0  0  0  0  0  0  0
    6.5871    0.1178    0.0215 H   0  0  0  0  0  0  0  0  0  0  0  0
    8.2319   -0.9636   -1.5534 H   0  0  0  0  0  0  0  0  0  0  0  0
    8.0730    0.8458   -1.8261 H   0  0  0  0  0  0  0  0  0  0  0  0
    8.2019   -0.7163   -5.0789 H   0  0  0  0  0  0  0  0  0  0  0  0
    8.1951   -3.3119    0.0064 H   0  0  0  0  0  0  0  0  0  0  0  0
   -2.8737    0.4449   -0.3022 H   0  0  0  0  0  0  0  0  0  0  0  0
   -1.7580    1.3750    0.7408 H   0  0  0  0  0  0  0  0  0  0  0  0
   -2.9810    3.3171   -0.1428 H   0  0  0  0  0  0  0  0  0  0  0  0
   -8.5992    1.9791   -0.8563 H   0  0  0  0  0  0  0  0  0  0  0  0
   -7.6911    3.1377   -3.1934 H   0  0  0  0  0  0  0  0  0  0  0  0
   -7.7715    4.6881   -2.4404 H   0  0  0  0  0  0  0  0  0  0  0  0
  1  2  2  0
  1  3  1  0
  3  4  1  0
  4  5  1  0
  5  6  1  0
  6  7  1  0
  7  8  2  0
  8  9  1  0
  9 10  2  0
 10 11  1  0
 11 12  2  0
 10 13  1  0
 13 14  2  0
 13 15  1  0
 15 16  1  0
 16 17  1  0
 17 18  1  0
 18 19  1  0
 19 20  1  0
 19 21  2  0
 16 22  1  0
 22 23  1  0
 22 24  2  0
  4 25  1  0
 25 26  1  0
 26 27  1  0
 27 28  2  0
 28 29  1  0
 29 30  2  0
 29 31  1  0
 31 32  1  0
 32 33  1  0
 32 34  2  0
 28  3  1  0
 12  7  1  0
 34 27  1  0
  1 35  1  0
  4 36  1  0
  5 37  1  0
  5 38  1  0
  6 39  1  0
  8 40  1  0
  9 41  1  0
 11 42  1  0
 12 43  1  0
 15 44  1  0
 16 45  1  6
 17 46  1  0
 17 47  1  0
 18 48  1  0
 18 49  1  0
 20 50  1  0
 23 51  1  0
 25 52  1  0
 25 53  1  0
 26 54  1  0
 31 55  1  0
 33 56  1  0
 33 57  1  0
M  END
$$$$
