@<TRIPOS>MOLECULE
*****
 50 53 0 0 0
SMALL
GASTEIGER

@<TRIPOS>ATOM
      1 C           6.8352   -1.0770   -0.1500 C.3     1  UNL1        0.0790
      2 O           6.0070    0.0560   -0.3327 O.3     1  UNL1       -0.4915
      3 C           4.6436    0.0035   -0.0372 C.ar    1  UNL1        0.1615
      4 C           4.0602   -1.1358    0.4366 C.ar    1  UNL1       -0.0160
      5 C           2.6972   -1.1632    0.7242 C.ar    1  UNL1       -0.0534
      6 C           1.9085   -0.0380    0.5360 C.ar    1  UNL1       -0.0267
      7 C           0.4717   -0.0911    0.8469 C.3     1  UNL1        0.0345
      8 N          -0.3256   -0.5032   -0.2969 N.pl3   1  UNL1       -0.3390
      9 C          -1.7367   -0.6129   -0.2326 C.ar    1  UNL1        0.0416
     10 C          -2.5962    0.4193   -0.5382 C.ar    1  UNL1       -0.0047
     11 C          -3.9724    0.1881   -0.4250 C.ar    1  UNL1        0.0469
     12 N          -4.4072   -1.0004   -0.0329 N.ar    1  UNL1       -0.2512
     13 C          -3.5716   -2.0111    0.2661 C.ar    1  UNL1        0.0731
     14 C          -4.0539   -3.2523    0.6762 C.ar    1  UNL1       -0.0357
     15 C          -3.1913   -4.2816    0.9804 C.ar    1  UNL1       -0.0597
     16 C          -1.8243   -4.1278    0.8925 C.ar    1  UNL1       -0.0610
     17 C          -1.3417   -2.9014    0.4870 C.ar    1  UNL1       -0.0508
     18 C          -2.2030   -1.8681    0.1815 C.ar    1  UNL1        0.0215
     19 C          -4.8594    1.3456   -0.7683 C.3     1  UNL1       -0.0101
     20 C          -4.2782    2.5551   -0.0873 C.3     1  UNL1       -0.0473
     21 C          -2.8838    2.8887   -0.5203 C.3     1  UNL1       -0.0486
     22 C          -2.0784    1.7170   -0.9754 C.3     1  UNL1       -0.0242
     23 C           2.5419    1.0877    0.0562 C.ar    1  UNL1       -0.0116
     24 C           3.8817    1.1540   -0.2388 C.ar    1  UNL1        0.1618
     25 O           4.4621    2.3130   -0.7181 O.3     1  UNL1       -0.4914
     26 C           3.6432    3.4515   -0.9043 C.3     1  UNL1        0.0790
     27 H           7.8236   -0.8591   -0.6023 H       1  UNL1        0.0660
     28 H           6.3443   -1.9431   -0.5952 H       1  UNL1        0.0660
     29 H           6.9430   -1.2171    0.9420 H       1  UNL1        0.0660
     30 H           4.6710   -2.0321    0.5902 H       1  UNL1        0.0655
     31 H           2.2957   -2.0897    1.0946 H       1  UNL1        0.0622
     32 H           0.1302    0.9065    1.1826 H       1  UNL1        0.0511
     33 H           0.3018   -0.7670    1.7163 H       1  UNL1        0.0511
     34 H           0.1939   -0.7169   -1.1764 H       1  UNL1        0.1464
     35 H          -5.1208   -3.3963    0.7525 H       1  UNL1        0.0639
     36 H          -3.5727   -5.2535    1.3017 H       1  UNL1        0.0618
     37 H          -1.1406   -4.9540    1.1369 H       1  UNL1        0.0618
     38 H          -0.2711   -2.7649    0.4130 H       1  UNL1        0.0625
     39 H          -4.9481    1.4419   -1.8568 H       1  UNL1        0.0328
     40 H          -5.8356    1.1388   -0.2869 H       1  UNL1        0.0328
     41 H          -4.9472    3.4116   -0.3124 H       1  UNL1        0.0269
     42 H          -4.3533    2.3864    1.0051 H       1  UNL1        0.0269
     43 H          -2.3636    3.3364    0.3570 H       1  UNL1        0.0269
     44 H          -2.9298    3.6912   -1.2855 H       1  UNL1        0.0269
     45 H          -2.0974    1.7296   -2.1048 H       1  UNL1        0.0314
     46 H          -1.0102    1.7848   -0.7065 H       1  UNL1        0.0314
     47 H           1.9146    1.9644   -0.0879 H       1  UNL1        0.0658
     48 H           3.1051    3.6165    0.0549 H       1  UNL1        0.0660
     49 H           2.8552    3.1480   -1.6441 H       1  UNL1        0.0660
     50 H           4.1834    4.3219   -1.2711 H       1  UNL1        0.0660
@<TRIPOS>BOND
     1     1     2    1
     2     2     3    1
     3     3     4   ar
     4     4     5   ar
     5     5     6   ar
     6     6     7    1
     7     7     8    1
     8     8     9    1
     9     9    10   ar
    10    10    11   ar
    11    11    12   ar
    12    12    13   ar
    13    13    14   ar
    14    14    15   ar
    15    15    16   ar
    16    16    17   ar
    17    17    18   ar
    18    11    19    1
    19    19    20    1
    20    20    21    1
    21    21    22    1
    22     6    23   ar
    23    23    24   ar
    24    24    25    1
    25    25    26    1
    26    24     3   ar
    27    18     9   ar
    28    22    10    1
    29    18    13   ar
    30     1    27    1
    31     1    28    1
    32     1    29    1
    33     4    30    1
    34     5    31    1
    35     7    32    1
    36     7    33    1
    37     8    34    1
    38    14    35    1
    39    15    36    1
    40    16    37    1
    41    17    38    1
    42    19    39    1
    43    19    40    1
    44    20    41    1
    45    20    42    1
    46    21    43    1
    47    21    44    1
    48    22    45    1
    49    22    46    1
    50    23    47    1
    51    26    48    1
    52    26    49    1
    53    26    50    1
