
     RDKit          3D

 50 53  0  0  0  0  0  0  0  0999 V2000
    6.8352   -1.0770   -0.1500 C   0  0  0  0  0  0  0  0  0  0  0  0
    6.0070    0.0560   -0.3327 O   0  0  0  0  0  0  0  0  0  0  0  0
    4.6436    0.0035   -0.0372 C   0  0  0  0  0  0  0  0  0  0  0  0
    4.0602   -1.1358    0.4366 C   0  0  0  0  0  0  0  0  0  0  0  0
    2.6972   -1.1632    0.7242 C   0  0  0  0  0  0  0  0  0  0  0  0
    1.9085   -0.0380    0.5360 C   0  0  0  0  0  0  0  0  0  0  0  0
    0.4717   -0.0911    0.8469 C   0  0  0  0  0  0  0  0  0  0  0  0
   -0.3256   -0.5032   -0.2969 N   0  0  0  0  0  0  0  0  0  0  0  0
   -1.7367   -0.6129   -0.2326 C   0  0  0  0  0  0  0  0  0  0  0  0
   -2.5962    0.4193   -0.5382 C   0  0  0  0  0  0  0  0  0  0  0  0
   -3.9724    0.1881   -0.4250 C   0  0  0  0  0  0  0  0  0  0  0  0
   -4.4072   -1.0004   -0.0329 N   0  0  0  0  0  0  0  0  0  0  0  0
   -3.5716   -2.0111    0.2661 C   0  0  0  0  0  0  0  0  0  0  0  0
   -4.0539   -3.2523    0.6762 C   0  0  0  0  0  0  0  0  0  0  0  0
   -3.1913   -4.2816    0.9804 C   0  0  0  0  0  0  0  0  0  0  0  0
   -1.8243   -4.1278    0.8925 C   0  0  0  0  0  0  0  0  0  0  0  0
   -1.3417   -2.9014    0.4870 C   0  0  0  0  0  0  0  0  0  0  0  0
   -2.2030   -1.8681    0.1815 C   0  0  0  0  0  0  0  0  0  0  0  0
   -4.8594    1.3456   -0.7683 C   0  0  0  0  0  0  0  0  0  0  0  0
   -4.2782    2.5551   -0.0873 C   0  0  0  0  0  0  0  0  0  0  0  0
   -2.8838    2.8887   -0.5203 C   0  0  0  0  0  0  0  0  0  0  0  0
   -2.0784    1.7170   -0.9754 C   0  0  0  0  0  0  0  0  0  0  0  0
    2.5419    1.0877    0.0562 C   0  0  0  0  0  0  0  0  0  0  0  0
    3.8817    1.1540   -0.2388 C   0  0  0  0  0  0  0  0  0  0  0  0
    4.4621    2.3130   -0.7181 O   0  0  0  0  0  0  0  0  0  0  0  0
    3.6432    3.4515   -0.9043 C   0  0  0  0  0  0  0  0  0  0  0  0
    7.8236   -0.8591   -0.6023 H   0  0  0  0  0  0  0  0  0  0  0  0
    6.3443   -1.9431   -0.5952 H   0  0  0  0  0  0  0  0  0  0  0  0
    6.9430   -1.2171    0.9420 H   0  0  0  0  0  0  0  0  0  0  0  0
    4.6710   -2.0321    0.5902 H   0  0  0  0  0  0  0  0  0  0  0  0
    2.2957   -2.0897    1.0946 H   0  0  0  0  0  0  0  0  0  0  0  0
    0.1302    0.9065    1.1826 H   0  0  0  0  0  0  0  0  0  0  0  0
    0.3018   -0.7670    1.7163 H   0  0  0  0  0  0  0  0  0  0  0  0
    0.1939   -0.7169   -1.1764 H   0  0  0  0  0  0  0  0  0  0  0  0
   -5.1208   -3.3963    0.7525 H   0  0  0  0  0  0  0  0  0  0  0  0
   -3.5727   -5.2535    1.3017 H   0  0  0  0  0  0  0  0  0  0  0  0
   -1.1406   -4.9540    1.1369 H   0  0  0  0  0  0  0  0  0  0  0  0
   -0.2711   -2.7649    0.4130 H   0  0  0  0  0  0  0  0  0  0  0  0
   -4.9481    1.4419   -1.8568 H   0  0  0  0  0  0  0  0  0  0  0  0
   -5.8356    1.1388   -0.2869 H   0  0  0  0  0  0  0  0  0  0  0  0
   -4.9472    3.4116   -0.3124 H   0  0  0  0  0  0  0  0  0  0  0  0
   -4.3533    2.3864    1.0051 H   0  0  0  0  0  0  0  0  0  0  0  0
   -2.3636    3.3364    0.3570 H   0  0  0  0  0  0  0  0  0  0  0  0
   -2.9298    3.6912   -1.2855 H   0  0  0  0  0  0  0  0  0  0  0  0
   -2.0974    1.7296   -2.1048 H   0  0  0  0  0  0  0  0  0  0  0  0
   -1.0102    1.7848   -0.7065 H   0  0  0  0  0  0  0  0  0  0  0  0
    1.9146    1.9644   -0.0879 H   0  0  0  0  0  0  0  0  0  0  0  0
    3.1051    3.6165    0.0549 H   0  0  0  0  0  0  0  0  0  0  0  0
    2.8552    3.1480   -1.6441 H   0  0  0  0  0  0  0  0  0  0  0  0
    4.1834    4.3219   -1.2711 H   0  0  0  0  0  0  0  0  0  0  0  0
  1  2  1  0
  2  3  1  0
  3  4  2  0
  4  5  1  0
  5  6  2  0
  6  7  1  0
  7  8  1  0
  8  9  1  0
  9 10  2  0
 10 11  1  0
 11 12  2  0
 12 13  1  0
 13 14  2  0
 14 15  1  0
 15 16  2  0
 16 17  1  0
 17 18  2  0
 11 19  1  0
 19 20  1  0
 20 21  1  0
 21 22  1  0
  6 23  1  0
 23 24  2  0
 24 25  1  0
 25 26  1  0
 24  3  1  0
 18  9  1  0
 22 10  1  0
 18 13  1  0
  1 27  1  0
  1 28  1  0
  1 29  1  0
  4 30  1  0
  5 31  1  0
  7 32  1  0
  7 33  1  0
  8 34  1  0
 14 35  1  0
 15 36  1  0
 16 37  1  0
 17 38  1  0
 19 39  1  0
 19 40  1  0
 20 41  1  0
 20 42  1  0
 21 43  1  0
 21 44  1  0
 22 45  1  0
 22 46  1  0
 23 47  1  0
 26 48  1  0
 26 49  1  0
 26 50  1  0
M  END
$$$$
