@<TRIPOS>MOLECULE
*****
 39 38 0 0 0
SMALL
GASTEIGER

@<TRIPOS>ATOM
      1 CU          0.0000    0.0000    0.0000 Cu      1  UNL1        0.0000
      2 C          -0.9142    1.7640   -0.2561 C.3     2  UNL2        0.0000
      3 C          -2.2687    1.7720    0.3490 C.3     2  UNL2        0.0000
      4 N          -2.9251    0.5075   -0.0924 N.3     2  UNL2        0.0000
      5 C          -2.1879   -0.5400    0.4853 C.3     2  UNL2        0.0000
      6 C          -2.5460   -1.9825    0.1626 C.3     2  UNL2        0.0000
      7 N          -1.3211   -2.6658    0.7521 N.3     2  UNL2        0.0000
      8 C          -0.2047   -2.3278   -0.1169 C.3     2  UNL2        0.0000
      9 C           1.1281   -2.3112    0.5437 C.3     2  UNL2        0.0000
     10 C           2.2229   -1.8028   -0.3480 C.3     2  UNL2        0.0000
     11 N           2.0446   -0.4243   -0.8099 N.3     2  UNL2        0.0000
     12 C           2.1755    0.5094    0.2427 C.3     2  UNL2        0.0000
     13 C           2.1548    1.9448   -0.0017 C.3     2  UNL2        0.0000
     14 N           1.2199    2.7318   -0.6332 N.3     2  UNL2        0.0000
     15 C          -0.0705    3.0026   -0.0944 C.3     2  UNL2        0.0000
     16 H          -0.3339    1.0063    0.2843 H       2  UNL2        0.0000
     17 H          -0.9483    1.5865   -1.3583 H       2  UNL2        0.0000
     18 H          -2.1357    1.6405    1.4621 H       2  UNL2        0.0000
     19 H          -2.8497    2.6465    0.1073 H       2  UNL2        0.0000
     20 H          -2.9771    0.5090   -1.1416 H       2  UNL2        0.0000
     21 H          -2.3121   -0.4624    1.5968 H       2  UNL2        0.0000
     22 H          -1.1535   -0.4729    0.1762 H       2  UNL2        0.0000
     23 H          -3.3763   -2.3904    0.7290 H       2  UNL2        0.0000
     24 H          -2.5388   -2.2142   -0.9086 H       2  UNL2        0.0000
     25 H          -1.1666   -2.2665    1.6862 H       2  UNL2        0.0000
     26 H          -0.1546   -3.3227   -0.7583 H       2  UNL2        0.0000
     27 H          -0.3926   -1.6259   -0.9293 H       2  UNL2        0.0000
     28 H           1.4018   -3.3566    0.8231 H       2  UNL2        0.0000
     29 H           1.1724   -1.7440    1.5035 H       2  UNL2        0.0000
     30 H           2.3871   -2.5080   -1.1633 H       2  UNL2        0.0000
     31 H           3.1534   -1.7482    0.2777 H       2  UNL2        0.0000
     32 H           2.7989   -0.2658   -1.5069 H       2  UNL2        0.0000
     33 H           1.5547    0.2173    1.1124 H       2  UNL2        0.0000
     34 H           3.2440    0.2506    0.6896 H       2  UNL2        0.0000
     35 H           3.1701    2.1968   -0.4976 H       2  UNL2        0.0000
     36 H           2.3566    2.4847    1.0253 H       2  UNL2        0.0000
     37 H           1.1491    2.5912   -1.6981 H       2  UNL2        0.0000
     38 H          -0.5599    3.8938   -0.5522 H       2  UNL2        0.0000
     39 H           0.0034    3.1764    1.0256 H       2  UNL2        0.0000
@<TRIPOS>BOND
     1     2     3    1
     2     3     4    1
     3     4     5    1
     4     5     6    1
     5     6     7    1
     6     7     8    1
     7     8     9    1
     8     9    10    1
     9    10    11    1
    10    11    12    1
    11    12    13    1
    12    13    14    1
    13    14    15    1
    14    15     2    1
    15     2    16    1
    16     2    17    1
    17     3    18    1
    18     3    19    1
    19     4    20    1
    20     5    21    1
    21     5    22    1
    22     6    23    1
    23     6    24    1
    24     7    25    1
    25     8    26    1
    26     8    27    1
    27     9    28    1
    28     9    29    1
    29    10    30    1
    30    10    31    1
    31    11    32    1
    32    12    33    1
    33    12    34    1
    34    13    35    1
    35    13    36    1
    36    14    37    1
    37    15    38    1
    38    15    39    1
