
     RDKit          3D

 39 38  0  0  0  0  0  0  0  0999 V2000
    0.0000    0.0000    0.0000 Cu  0  0  0  0  0 15  0  0  0  0  0  0
   -0.9142    1.7640   -0.2561 C   0  0  0  0  0  0  0  0  0  0  0  0
   -2.2687    1.7720    0.3490 C   0  0  0  0  0  0  0  0  0  0  0  0
   -2.9251    0.5075   -0.0924 N   0  0  0  0  0  0  0  0  0  0  0  0
   -2.1879   -0.5400    0.4853 C   0  0  0  0  0  0  0  0  0  0  0  0
   -2.5460   -1.9825    0.1626 C   0  0  0  0  0  0  0  0  0  0  0  0
   -1.3211   -2.6658    0.7521 N   0  0  0  0  0  0  0  0  0  0  0  0
   -0.2047   -2.3278   -0.1169 C   0  0  0  0  0  0  0  0  0  0  0  0
    1.1281   -2.3112    0.5437 C   0  0  0  0  0  0  0  0  0  0  0  0
    2.2229   -1.8028   -0.3480 C   0  0  0  0  0  0  0  0  0  0  0  0
    2.0446   -0.4243   -0.8099 N   0  0  0  0  0  0  0  0  0  0  0  0
    2.1755    0.5094    0.2427 C   0  0  0  0  0  0  0  0  0  0  0  0
    2.1548    1.9448   -0.0017 C   0  0  0  0  0  0  0  0  0  0  0  0
    1.2199    2.7318   -0.6332 N   0  0  0  0  0  0  0  0  0  0  0  0
   -0.0705    3.0026   -0.0944 C   0  0  0  0  0  0  0  0  0  0  0  0
   -0.3339    1.0063    0.2843 H   0  0  0  0  0  0  0  0  0  0  0  0
   -0.9483    1.5865   -1.3583 H   0  0  0  0  0  0  0  0  0  0  0  0
   -2.1357    1.6405    1.4621 H   0  0  0  0  0  0  0  0  0  0  0  0
   -2.8497    2.6465    0.1073 H   0  0  0  0  0  0  0  0  0  0  0  0
   -2.9771    0.5090   -1.1416 H   0  0  0  0  0  0  0  0  0  0  0  0
   -2.3121   -0.4624    1.5968 H   0  0  0  0  0  0  0  0  0  0  0  0
   -1.1535   -0.4729    0.1762 H   0  0  0  0  0  0  0  0  0  0  0  0
   -3.3763   -2.3904    0.7290 H   0  0  0  0  0  0  0  0  0  0  0  0
   -2.5388   -2.2142   -0.9086 H   0  0  0  0  0  0  0  0  0  0  0  0
   -1.1666   -2.2665    1.6862 H   0  0  0  0  0  0  0  0  0  0  0  0
   -0.1546   -3.3227   -0.7583 H   0  0  0  0  0  0  0  0  0  0  0  0
   -0.3926   -1.6259   -0.9293 H   0  0  0  0  0  0  0  0  0  0  0  0
    1.4018   -3.3566    0.8231 H   0  0  0  0  0  0  0  0  0  0  0  0
    1.1724   -1.7440    1.5035 H   0  0  0  0  0  0  0  0  0  0  0  0
    2.3871   -2.5080   -1.1633 H   0  0  0  0  0  0  0  0  0  0  0  0
    3.1534   -1.7482    0.2777 H   0  0  0  0  0  0  0  0  0  0  0  0
    2.7989   -0.2658   -1.5069 H   0  0  0  0  0  0  0  0  0  0  0  0
    1.5547    0.2173    1.1124 H   0  0  0  0  0  0  0  0  0  0  0  0
    3.2440    0.2506    0.6896 H   0  0  0  0  0  0  0  0  0  0  0  0
    3.1701    2.1968   -0.4976 H   0  0  0  0  0  0  0  0  0  0  0  0
    2.3566    2.4847    1.0253 H   0  0  0  0  0  0  0  0  0  0  0  0
    1.1491    2.5912   -1.6981 H   0  0  0  0  0  0  0  0  0  0  0  0
   -0.5599    3.8938   -0.5522 H   0  0  0  0  0  0  0  0  0  0  0  0
    0.0034    3.1764    1.0256 H   0  0  0  0  0  0  0  0  0  0  0  0
  2  3  1  0
  3  4  1  0
  4  5  1  0
  5  6  1  0
  6  7  1  0
  7  8  1  0
  8  9  1  0
  9 10  1  0
 10 11  1  0
 11 12  1  0
 12 13  1  0
 13 14  1  0
 14 15  1  0
 15  2  1  0
  2 16  1  0
  2 17  1  0
  3 18  1  0
  3 19  1  0
  4 20  1  0
  5 21  1  0
  5 22  1  0
  6 23  1  0
  6 24  1  0
  7 25  1  0
  8 26  1  0
  8 27  1  0
  9 28  1  0
  9 29  1  0
 10 30  1  0
 10 31  1  0
 11 32  1  0
 12 33  1  0
 12 34  1  0
 13 35  1  0
 13 36  1  0
 14 37  1  0
 15 38  1  0
 15 39  1  0
M  END
$$$$
