@<TRIPOS>MOLECULE
*****
 48 51 0 0 0
SMALL
GASTEIGER

@<TRIPOS>ATOM
      1 C          -5.4972    0.9736    1.1671 C.3     1  UNL1       -0.0111
      2 N          -4.6002   -0.0883    0.8252 N.3     1  UNL1       -0.2867
      3 C          -3.6545   -0.4083    1.8770 C.3     1  UNL1        0.0012
      4 C          -2.4381    0.4304    1.6579 C.3     1  UNL1       -0.0277
      5 C          -2.5305    0.8635    0.2051 C.3     1  UNL1        0.0279
      6 C          -2.5826    2.3712    0.0898 C.3     1  UNL1       -0.0525
      7 C          -1.4428    0.3154   -0.6201 C.ar    1  UNL1       -0.0139
      8 C          -0.1367    0.7295   -0.9063 C.ar    1  UNL1       -0.0136
      9 C           0.6848   -0.0027   -1.7329 C.ar    1  UNL1        0.1336
     10 O           1.9647    0.5185   -1.9383 O.3     1  UNL1       -0.4113
     11 C           2.9923    0.1541   -1.0895 C.2     1  UNL1        0.4099
     12 O           2.7449   -0.6326   -0.1618 O.2     1  UNL1       -0.2257
     13 N           4.3265    0.6352   -1.2230 N.am    1  UNL1       -0.2508
     14 C           5.3756    0.2469   -0.3354 C.ar    1  UNL1        0.0365
     15 C           5.6144    0.9863    0.8023 C.ar    1  UNL1       -0.0404
     16 C           6.6118    0.6691    1.7048 C.ar    1  UNL1       -0.0600
     17 C           7.3942   -0.4372    1.4434 C.ar    1  UNL1       -0.0616
     18 C           7.1730   -1.1988    0.3028 C.ar    1  UNL1       -0.0600
     19 C           6.1606   -0.8480   -0.5808 C.ar    1  UNL1       -0.0404
     20 C           0.2614   -1.1686   -2.3121 C.ar    1  UNL1       -0.0174
     21 C          -1.0224   -1.5916   -2.0412 C.ar    1  UNL1       -0.0369
     22 C          -1.8580   -0.8525   -1.2043 C.ar    1  UNL1        0.0347
     23 N          -3.2178   -1.0825   -0.7810 N.pl3   1  UNL1       -0.3162
     24 C          -3.8450   -2.3824   -0.8646 C.3     1  UNL1        0.0022
     25 C          -3.7558    0.1840   -0.2965 C.3     1  UNL1        0.0860
     26 H          -5.4176    1.8115    0.4429 H       1  UNL1        0.0391
     27 H          -5.3266    1.2873    2.2124 H       1  UNL1        0.0391
     28 H          -6.5520    0.5851    1.0793 H       1  UNL1        0.0391
     29 H          -4.1159   -0.1392    2.8618 H       1  UNL1        0.0427
     30 H          -3.4111   -1.4826    1.8644 H       1  UNL1        0.0427
     31 H          -1.5026   -0.1829    1.7594 H       1  UNL1        0.0287
     32 H          -2.3498    1.3037    2.3063 H       1  UNL1        0.0287
     33 H          -3.1151    2.7253   -0.7920 H       1  UNL1        0.0239
     34 H          -1.5402    2.7593    0.0852 H       1  UNL1        0.0239
     35 H          -3.0462    2.7873    1.0205 H       1  UNL1        0.0239
     36 H           0.1713    1.6489   -0.4386 H       1  UNL1        0.0658
     37 H           4.5085    1.2967   -2.0126 H       1  UNL1        0.1582
     38 H           4.9887    1.8447    0.9817 H       1  UNL1        0.0636
     39 H           6.7869    1.2666    2.6017 H       1  UNL1        0.0618
     40 H           8.1799   -0.6962    2.1439 H       1  UNL1        0.0618
     41 H           7.7760   -2.0621    0.0891 H       1  UNL1        0.0618
     42 H           5.9581   -1.4163   -1.4793 H       1  UNL1        0.0636
     43 H           0.9375   -1.7042   -2.9487 H       1  UNL1        0.0655
     44 H          -1.3901   -2.5158   -2.4867 H       1  UNL1        0.0637
     45 H          -4.8501   -2.3943   -0.4428 H       1  UNL1        0.0428
     46 H          -3.2367   -3.1746   -0.3762 H       1  UNL1        0.0428
     47 H          -3.9141   -2.6624   -1.9358 H       1  UNL1        0.0428
     48 H          -4.2611    0.7300   -1.1156 H       1  UNL1        0.0680
@<TRIPOS>BOND
     1     1     2    1
     2     2     3    1
     3     3     4    1
     4     4     5    1
     5     5     6    1
     6     5     7    1
     7     7     8   ar
     8     8     9   ar
     9     9    10    1
    10    10    11    1
    11    11    12    2
    12    11    13   am
    13    13    14    1
    14    14    15   ar
    15    15    16   ar
    16    16    17   ar
    17    17    18   ar
    18    18    19   ar
    19     9    20   ar
    20    20    21   ar
    21    21    22   ar
    22    22    23    1
    23    23    24    1
    24    23    25    1
    25    25     2    1
    26    25     5    1
    27    22     7   ar
    28    19    14   ar
    29     1    26    1
    30     1    27    1
    31     1    28    1
    32     3    29    1
    33     3    30    1
    34     4    31    1
    35     4    32    1
    36     6    33    1
    37     6    34    1
    38     6    35    1
    39     8    36    1
    40    13    37    1
    41    15    38    1
    42    16    39    1
    43    17    40    1
    44    18    41    1
    45    19    42    1
    46    20    43    1
    47    21    44    1
    48    24    45    1
    49    24    46    1
    50    24    47    1
    51    25    48    1
