@<TRIPOS>MOLECULE
*****
 58 62 0 0 0
SMALL
GASTEIGER

@<TRIPOS>ATOM
      1 C          -6.7256    0.8251   -1.8864 C.3     1  UNL1       -0.0394
      2 C          -5.3147    0.7903   -1.4392 C.ar    1  UNL1       -0.0454
      3 C          -4.3480    1.5316   -2.0708 C.ar    1  UNL1       -0.0577
      4 C          -3.0368    1.4973   -1.6532 C.ar    1  UNL1       -0.0472
      5 C          -2.6612    0.7046   -0.5739 C.ar    1  UNL1        0.0642
      6 C          -1.2711    0.6464   -0.1046 C.2     1  UNL1        0.2491
      7 O          -0.9199    1.4605    0.7648 O.2     1  UNL1       -0.2699
      8 N          -0.3810   -0.3098   -0.6367 N.am    1  UNL1       -0.2897
      9 C          -0.8458   -1.2436   -1.6563 C.3     1  UNL1        0.0388
     10 C           0.3431   -2.1773   -1.9189 C.3     1  UNL1        0.0635
     11 O           1.4551   -1.4822   -2.3175 O.3     1  UNL1       -0.3764
     12 C           1.8137   -0.4264   -1.5126 C.3     1  UNL1        0.0666
     13 C           0.9916   -0.4429   -0.2421 C.3     1  UNL1        0.0537
     14 C           1.4441    0.5501    0.7625 C.3     1  UNL1       -0.0068
     15 C           2.8763    0.3142    1.0929 C.ar    1  UNL1       -0.0435
     16 C           3.2312   -0.5380    2.1096 C.ar    1  UNL1       -0.0584
     17 C           4.5715   -0.7160    2.3736 C.ar    1  UNL1       -0.0594
     18 C           5.5490   -0.0636    1.6465 C.ar    1  UNL1       -0.0345
     19 C           5.2180    0.7973    0.6204 C.ar    1  UNL1        0.0864
     20 N           6.2174    1.4815   -0.1445 N.ar    1  UNL1       -0.1503
     21 N           7.4287    1.8152    0.2687 N.ar    1  UNL1       -0.1556
     22 C           8.1185    2.4469   -0.6912 C.ar    1  UNL1        0.0697
     23 C           7.2704    2.5082   -1.7785 C.ar    1  UNL1        0.0697
     24 N           6.1293    1.9080   -1.3941 N.ar    1  UNL1       -0.1556
     25 C           3.8674    0.9518    0.3837 C.ar    1  UNL1       -0.0313
     26 C          -3.6355   -0.0367    0.0555 C.ar    1  UNL1        0.1013
     27 N          -3.2427   -0.8453    1.1604 N.ar    1  UNL1       -0.1493
     28 N          -3.9266   -1.8467    1.6936 N.ar    1  UNL1       -0.1556
     29 C          -3.2540   -2.3814    2.7200 C.ar    1  UNL1        0.0697
     30 C          -2.0796   -1.6666    2.8298 C.ar    1  UNL1        0.0697
     31 N          -2.1256   -0.7484    1.8598 N.ar    1  UNL1       -0.1556
     32 C          -4.9662   -0.0008   -0.3697 C.ar    1  UNL1       -0.0197
     33 C          -5.9669   -0.8383    0.3700 C.3     1  UNL1       -0.0374
     34 H          -6.8867    1.4637   -2.7559 H       1  UNL1        0.0278
     35 H          -7.3255    1.2293   -1.0365 H       1  UNL1        0.0278
     36 H          -7.0956   -0.2009   -2.1694 H       1  UNL1        0.0278
     37 H          -4.6266    2.1448   -2.9020 H       1  UNL1        0.0620
     38 H          -2.2452    2.0779   -2.1379 H       1  UNL1        0.0626
     39 H          -1.6504   -1.8962   -1.2710 H       1  UNL1        0.0487
     40 H          -1.1733   -0.7562   -2.5741 H       1  UNL1        0.0487
     41 H           0.0142   -2.7986   -2.8025 H       1  UNL1        0.0575
     42 H           0.4900   -2.8813   -1.0982 H       1  UNL1        0.0575
     43 H           2.9019   -0.5205   -1.3279 H       1  UNL1        0.0578
     44 H           1.6572    0.5492   -2.0166 H       1  UNL1        0.0578
     45 H           1.0690   -1.4531    0.2367 H       1  UNL1        0.0526
     46 H           1.3595    1.6078    0.4553 H       1  UNL1        0.0332
     47 H           0.8942    0.3886    1.7082 H       1  UNL1        0.0332
     48 H           2.4706   -1.0564    2.6878 H       1  UNL1        0.0620
     49 H           4.8691   -1.3890    3.1767 H       1  UNL1        0.0618
     50 H           6.6146   -0.2111    1.8639 H       1  UNL1        0.0639
     51 H           9.1347    2.8423   -0.6573 H       1  UNL1        0.0864
     52 H           7.5475    2.9636   -2.7096 H       1  UNL1        0.0864
     53 H           3.6201    1.6434   -0.4395 H       1  UNL1        0.0642
     54 H          -3.5070   -3.2020    3.3770 H       1  UNL1        0.0864
     55 H          -1.2841   -1.8244    3.5593 H       1  UNL1        0.0864
     56 H          -5.9518   -0.6207    1.4529 H       1  UNL1        0.0278
     57 H          -5.7460   -1.9120    0.1622 H       1  UNL1        0.0278
     58 H          -6.9742   -0.6531   -0.0470 H       1  UNL1        0.0278
@<TRIPOS>BOND
     1     1     2    1
     2     2     3   ar
     3     3     4   ar
     4     4     5   ar
     5     5     6    1
     6     6     7    2
     7     6     8   am
     8     8     9    1
     9     9    10    1
    10    10    11    1
    11    11    12    1
    12    12    13    1
    13    13    14    1
    14    14    15    1
    15    15    16   ar
    16    16    17   ar
    17    17    18   ar
    18    18    19   ar
    19    19    20    1
    20    20    21   ar
    21    21    22   ar
    22    22    23   ar
    23    23    24   ar
    24    19    25   ar
    25     5    26   ar
    26    26    27    1
    27    27    28   ar
    28    28    29   ar
    29    29    30   ar
    30    30    31   ar
    31    26    32   ar
    32    32    33    1
    33    32     2   ar
    34    13     8    1
    35    25    15   ar
    36    31    27   ar
    37    24    20   ar
    38     1    34    1
    39     1    35    1
    40     1    36    1
    41     3    37    1
    42     4    38    1
    43     9    39    1
    44     9    40    1
    45    10    41    1
    46    10    42    1
    47    12    43    1
    48    12    44    1
    49    13    45    1
    50    14    46    1
    51    14    47    1
    52    16    48    1
    53    17    49    1
    54    18    50    1
    55    22    51    1
    56    23    52    1
    57    25    53    1
    58    29    54    1
    59    30    55    1
    60    33    56    1
    61    33    57    1
    62    33    58    1
