@<TRIPOS>MOLECULE
*****
 57 61 0 0 0
SMALL
GASTEIGER

@<TRIPOS>ATOM
      1 O           3.1931    0.4416   -0.5274 O.2     1  UNL1       -0.2522
      2 C           3.6009    0.5159    0.6552 C.2     1  UNL1        0.3081
      3 N           2.7350    1.0019    1.6590 N.am    1  UNL1       -0.2692
      4 C           1.3964    1.4220    1.4035 C.ar    1  UNL1        0.0354
      5 C           1.0826    2.7225    1.0730 C.ar    1  UNL1       -0.0404
      6 C          -0.2293    3.0870    0.8333 C.ar    1  UNL1       -0.0594
      7 C          -1.2297    2.1432    0.9256 C.ar    1  UNL1       -0.0524
      8 C          -0.9701    0.8217    1.2539 C.ar    1  UNL1        0.0036
      9 C          -2.0329   -0.1718    1.3359 C.ar    1  UNL1        0.0897
     10 C          -1.7828   -1.4705    1.7037 C.ar    1  UNL1        0.0373
     11 N          -2.7684   -2.3939    1.8103 N.ar    1  UNL1       -0.3018
     12 C          -2.7284   -3.7121    2.1556 C.ar    1  UNL1        0.0294
     13 C          -4.0124   -4.1866    2.1068 C.ar    1  UNL1        0.0465
     14 N          -4.7729   -3.1654    1.7420 N.ar    1  UNL1       -0.2330
     15 C          -4.0254   -2.0395    1.5513 C.ar    1  UNL1        0.1780
     16 C          -4.3311   -0.7374    1.1744 C.ar    1  UNL1        0.1629
     17 N          -5.6837   -0.4141    0.9425 N.pl3   1  UNL1       -0.3220
     18 C          -6.2127    0.8533    0.5224 C.3     1  UNL1        0.0359
     19 C          -5.9179    1.0981   -0.8947 C.ar    1  UNL1       -0.0275
     20 C          -4.8213    1.8043   -1.2900 C.ar    1  UNL1       -0.0389
     21 C          -4.5231    2.0367   -2.6397 C.ar    1  UNL1        0.0279
     22 N          -5.3474    1.5467   -3.5816 N.ar    1  UNL1       -0.2632
     23 C          -6.4235    0.8553   -3.2295 C.ar    1  UNL1        0.0279
     24 C          -6.7359    0.6147   -1.9135 C.ar    1  UNL1       -0.0389
     25 N          -3.3109    0.1512    1.0814 N.ar    1  UNL1       -0.2270
     26 C           0.3517    0.5104    1.4830 C.ar    1  UNL1       -0.0312
     27 N           4.9451    0.0967    0.9260 N.am    1  UNL1       -0.2692
     28 C           5.8197   -0.3900   -0.0654 C.ar    1  UNL1        0.0353
     29 C           5.8717   -1.7313   -0.3575 C.ar    1  UNL1       -0.0404
     30 C           6.7424   -2.2185   -1.3449 C.ar    1  UNL1       -0.0595
     31 C           7.5459   -1.2907   -2.0114 C.ar    1  UNL1       -0.0500
     32 C           7.5055    0.0519   -1.7311 C.ar    1  UNL1        0.0566
     33 C           8.3555    1.0136   -2.4398 C.3     1  UNL1        0.4175
     34 F           9.5003    1.3402   -1.7399 F       1  UNL1       -0.1659
     35 F           7.6481    2.2013   -2.6374 F       1  UNL1       -0.1659
     36 F           8.6922    0.4593   -3.6711 F       1  UNL1       -0.1659
     37 C           6.6248    0.4906   -0.7420 C.ar    1  UNL1       -0.0288
     38 H           3.1176    1.0499    2.6496 H       1  UNL1        0.1564
     39 H           1.8904    3.4596    1.0040 H       1  UNL1        0.0636
     40 H          -0.4405    4.1108    0.5774 H       1  UNL1        0.0618
     41 H          -2.2662    2.3904    0.7556 H       1  UNL1        0.0624
     42 H          -0.7942   -1.8285    1.9280 H       1  UNL1        0.0835
     43 H          -1.8339   -4.2764    2.4204 H       1  UNL1        0.0829
     44 H          -4.2707   -5.2165    2.3380 H       1  UNL1        0.0845
     45 H          -6.3881   -1.2132    1.1004 H       1  UNL1        0.1479
     46 H          -7.3143    0.8510    0.6816 H       1  UNL1        0.0511
     47 H          -5.7633    1.6304    1.1864 H       1  UNL1        0.0511
     48 H          -4.1306    2.2283   -0.5899 H       1  UNL1        0.0636
     49 H          -3.6354    2.6061   -2.9028 H       1  UNL1        0.0829
     50 H          -7.0768    0.4677   -3.9969 H       1  UNL1        0.0829
     51 H          -7.6087    0.0531   -1.6004 H       1  UNL1        0.0636
     52 H           0.6459   -0.5073    1.7469 H       1  UNL1        0.0643
     53 H           5.2276    0.1853    1.9476 H       1  UNL1        0.1564
     54 H           5.2627   -2.4727    0.1410 H       1  UNL1        0.0636
     55 H           6.7952   -3.2714   -1.5866 H       1  UNL1        0.0618
     56 H           8.2112   -1.7028   -2.7731 H       1  UNL1        0.0623
     57 H           6.6208    1.5542   -0.5489 H       1  UNL1        0.0642
@<TRIPOS>BOND
     1     1     2    2
     2     2     3   am
     3     3     4    1
     4     4     5   ar
     5     5     6   ar
     6     6     7   ar
     7     7     8   ar
     8     8     9    1
     9     9    10   ar
    10    10    11   ar
    11    11    12   ar
    12    12    13   ar
    13    13    14   ar
    14    14    15   ar
    15    15    16   ar
    16    16    17    1
    17    17    18    1
    18    18    19    1
    19    19    20   ar
    20    20    21   ar
    21    21    22   ar
    22    22    23   ar
    23    23    24   ar
    24    16    25   ar
    25     8    26   ar
    26     2    27   am
    27    27    28    1
    28    28    29   ar
    29    29    30   ar
    30    30    31   ar
    31    31    32   ar
    32    32    33    1
    33    33    34    1
    34    33    35    1
    35    33    36    1
    36    32    37   ar
    37    26     4   ar
    38    37    28   ar
    39    25     9   ar
    40    15    11   ar
    41    24    19   ar
    42     3    38    1
    43     5    39    1
    44     6    40    1
    45     7    41    1
    46    10    42    1
    47    12    43    1
    48    13    44    1
    49    17    45    1
    50    18    46    1
    51    18    47    1
    52    20    48    1
    53    21    49    1
    54    23    50    1
    55    24    51    1
    56    26    52    1
    57    27    53    1
    58    29    54    1
    59    30    55    1
    60    31    56    1
    61    37    57    1
