
     RDKit          3D

 49 53  0  0  0  0  0  0  0  0999 V2000
   -2.7922   -3.0293   -0.4933 C   0  0  0  0  0  0  0  0  0  0  0  0
   -2.6825   -1.5085   -0.2002 C   0  0  1  0  0  0  0  0  0  0  0  0
   -1.4306   -1.0518   -0.2511 O   0  0  0  0  0  0  0  0  0  0  0  0
   -0.4347   -0.4528    0.3806 C   0  0  0  0  0  0  0  0  0  0  0  0
    0.7359   -0.2541   -0.3202 N   0  0  0  0  0  0  0  0  0  0  0  0
    1.8140    0.3343    0.1918 C   0  0  0  0  0  0  0  0  0  0  0  0
    3.0350    0.5154   -0.6171 C   0  0  0  0  0  0  0  0  0  0  0  0
    3.2134    0.1265   -1.9261 C   0  0  0  0  0  0  0  0  0  0  0  0
    4.5083    0.4846   -2.3100 C   0  0  0  0  0  0  0  0  0  0  0  0
    5.2542    0.3656   -3.4632 C   0  0  0  0  0  0  0  0  0  0  0  0
    6.5593    0.8313   -3.5498 C   0  0  0  0  0  0  0  0  0  0  0  0
    7.0981    1.4275   -2.4281 C   0  0  0  0  0  0  0  0  0  0  0  0
    6.3848    1.5632   -1.2625 C   0  0  0  0  0  0  0  0  0  0  0  0
    7.1673    2.3353    0.0957 Cl  0  0  0  0  0  0  0  0  0  0  0  0
    5.0891    1.0949   -1.1936 C   0  0  0  0  0  0  0  0  0  0  0  0
    4.1640    1.0834   -0.2189 N   0  0  0  0  0  0  0  0  0  0  0  0
    1.7445    0.7651    1.4972 C   0  0  0  0  0  0  0  0  0  0  0  0
    0.6120    0.6060    2.2699 C   0  0  0  0  0  0  0  0  0  0  0  0
    0.2764    0.9239    3.5410 N   0  0  0  0  0  0  0  0  0  0  0  0
   -0.9494    0.5549    3.8154 N   0  0  0  0  0  0  0  0  0  0  0  0
   -1.7159    0.6920    5.0376 C   0  0  0  0  0  0  0  0  0  0  0  0
   -1.4380   -0.0272    2.6826 C   0  0  0  0  0  0  0  0  0  0  0  0
   -0.4850   -0.0148    1.6854 C   0  0  0  0  0  0  0  0  0  0  0  0
   -3.6145   -0.8209   -1.2421 C   0  0  1  0  0  0  0  0  0  0  0  0
   -4.9834   -1.3593   -0.9980 C   0  0  0  0  0  0  0  0  0  0  0  0
   -5.7908   -0.3022   -0.4472 N   0  0  0  0  0  0  0  0  0  0  0  0
   -4.9588    0.7566   -0.0548 C   0  0  0  0  0  0  0  0  0  0  0  0
   -5.1494    1.6596    0.7929 O   0  0  0  0  0  0  0  0  0  0  0  0
   -3.7108    0.6361   -0.8649 C   0  0  0  0  0  0  0  0  0  0  0  0
   -2.9424   -3.6054    0.4338 H   0  0  0  0  0  0  0  0  0  0  0  0
   -1.8032   -3.3381   -0.9064 H   0  0  0  0  0  0  0  0  0  0  0  0
   -3.5645   -3.2301   -1.2487 H   0  0  0  0  0  0  0  0  0  0  0  0
   -3.2717   -1.4009    0.7367 H   0  0  0  0  0  0  0  0  0  0  0  0
    2.4998   -0.3607   -2.5456 H   0  0  0  0  0  0  0  0  0  0  0  0
    4.8079   -0.1063   -4.3280 H   0  0  0  0  0  0  0  0  0  0  0  0
    7.1412    0.7414   -4.4413 H   0  0  0  0  0  0  0  0  0  0  0  0
    8.1099    1.8015   -2.4573 H   0  0  0  0  0  0  0  0  0  0  0  0
    4.3774    1.4961    0.7320 H   0  0  0  0  0  0  0  0  0  0  0  0
    2.6100    1.2426    1.9233 H   0  0  0  0  0  0  0  0  0  0  0  0
   -2.5955    0.0489    5.0331 H   0  0  0  0  0  0  0  0  0  0  0  0
   -1.0809    0.4830    5.9369 H   0  0  0  0  0  0  0  0  0  0  0  0
   -2.0869    1.7417    5.1848 H   0  0  0  0  0  0  0  0  0  0  0  0
   -2.4262   -0.4343    2.5910 H   0  0  0  0  0  0  0  0  0  0  0  0
   -3.2545   -0.9969   -2.2564 H   0  0  0  0  0  0  0  0  0  0  0  0
   -5.4716   -1.7567   -1.9106 H   0  0  0  0  0  0  0  0  0  0  0  0
   -5.0130   -2.1959   -0.2565 H   0  0  0  0  0  0  0  0  0  0  0  0
   -6.8195   -0.3305   -0.3597 H   0  0  0  0  0  0  0  0  0  0  0  0
   -3.8744    1.2810   -1.7663 H   0  0  0  0  0  0  0  0  0  0  0  0
   -2.8621    0.9846   -0.2438 H   0  0  0  0  0  0  0  0  0  0  0  0
  1  2  1  0
  2  3  1  0
  3  4  1  0
  4  5  2  0
  5  6  1  0
  6  7  1  0
  7  8  2  0
  8  9  1  0
  9 10  2  0
 10 11  1  0
 11 12  2  0
 12 13  1  0
 13 14  1  0
 13 15  2  0
 15 16  1  0
  6 17  2  0
 17 18  1  0
 18 19  2  0
 19 20  1  0
 20 21  1  0
 20 22  1  0
 22 23  2  0
  2 24  1  0
 24 25  1  0
 25 26  1  0
 26 27  1  0
 27 28  2  0
 27 29  1  0
 23  4  1  0
 29 24  1  0
 16  7  1  0
 23 18  1  0
 15  9  1  0
  1 30  1  0
  1 31  1  0
  1 32  1  0
  2 33  1  1
  8 34  1  0
 10 35  1  0
 11 36  1  0
 12 37  1  0
 16 38  1  0
 17 39  1  0
 21 40  1  0
 21 41  1  0
 21 42  1  0
 22 43  1  0
 24 44  1  6
 25 45  1  0
 25 46  1  0
 26 47  1  0
 29 48  1  0
 29 49  1  0
M  END
$$$$
