@<TRIPOS>MOLECULE
*****
 49 53 0 0 0
SMALL
GASTEIGER

@<TRIPOS>ATOM
      1 C          -2.7922   -3.0293   -0.4933 C.3     1  UNL1       -0.0274
      2 C          -2.6825   -1.5085   -0.2002 C.3     1  UNL1        0.1037
      3 O          -1.4306   -1.0518   -0.2511 O.3     1  UNL1       -0.4725
      4 C          -0.4347   -0.4528    0.3806 C.ar    1  UNL1        0.2265
      5 N           0.7359   -0.2541   -0.3202 N.ar    1  UNL1       -0.2107
      6 C           1.8140    0.3343    0.1918 C.ar    1  UNL1        0.0930
      7 C           3.0350    0.5154   -0.6171 C.ar    1  UNL1        0.0662
      8 C           3.2134    0.1265   -1.9261 C.ar    1  UNL1       -0.0271
      9 C           4.5083    0.4846   -2.3100 C.ar    1  UNL1        0.0017
     10 C           5.2542    0.3656   -3.4632 C.ar    1  UNL1       -0.0525
     11 C           6.5593    0.8313   -3.5498 C.ar    1  UNL1       -0.0597
     12 C           7.0981    1.4275   -2.4281 C.ar    1  UNL1       -0.0414
     13 C           6.3848    1.5632   -1.2625 C.ar    1  UNL1        0.0648
     14 CL          7.1673    2.3353    0.0957 Cl      1  UNL1       -0.0814
     15 C           5.0891    1.0949   -1.1936 C.ar    1  UNL1        0.0655
     16 N           4.1640    1.0834   -0.2189 N.ar    1  UNL1       -0.3518
     17 C           1.7445    0.7651    1.4972 C.ar    1  UNL1       -0.0063
     18 C           0.6120    0.6060    2.2699 C.ar    1  UNL1        0.0999
     19 N           0.2764    0.9239    3.5410 N.ar    1  UNL1       -0.1712
     20 N          -0.9494    0.5549    3.8154 N.ar    1  UNL1       -0.2732
     21 C          -1.7159    0.6920    5.0376 C.3     1  UNL1        0.0302
     22 C          -1.4380   -0.0272    2.6826 C.ar    1  UNL1        0.0380
     23 C          -0.4850   -0.0148    1.6854 C.ar    1  UNL1        0.0812
     24 C          -3.6145   -0.8209   -1.2421 C.3     1  UNL1        0.0196
     25 C          -4.9834   -1.3593   -0.9980 C.3     1  UNL1        0.0182
     26 N          -5.7908   -0.3022   -0.4472 N.am    1  UNL1       -0.3149
     27 C          -4.9588    0.7566   -0.0548 C.2     1  UNL1        0.2135
     28 O          -5.1494    1.6596    0.7929 O.2     1  UNL1       -0.2758
     29 C          -3.7108    0.6361   -0.8649 C.3     1  UNL1        0.0315
     30 H          -2.9424   -3.6054    0.4338 H       1  UNL1        0.0265
     31 H          -1.8032   -3.3381   -0.9064 H       1  UNL1        0.0265
     32 H          -3.5645   -3.2301   -1.2487 H       1  UNL1        0.0265
     33 H          -3.2717   -1.4009    0.7367 H       1  UNL1        0.0734
     34 H           2.4998   -0.3607   -2.5456 H       1  UNL1        0.0645
     35 H           4.8079   -0.1063   -4.3280 H       1  UNL1        0.0624
     36 H           7.1412    0.7414   -4.4413 H       1  UNL1        0.0618
     37 H           8.1099    1.8015   -2.4573 H       1  UNL1        0.0633
     38 H           4.3774    1.4961    0.7320 H       1  UNL1        0.1660
     39 H           2.6100    1.2426    1.9233 H       1  UNL1        0.0661
     40 H          -2.5955    0.0489    5.0331 H       1  UNL1        0.0473
     41 H          -1.0809    0.4830    5.9369 H       1  UNL1        0.0473
     42 H          -2.0869    1.7417    5.1848 H       1  UNL1        0.0473
     43 H          -2.4262   -0.4343    2.5910 H       1  UNL1        0.0834
     44 H          -3.2545   -0.9969   -2.2564 H       1  UNL1        0.0356
     45 H          -5.4716   -1.7567   -1.9106 H       1  UNL1        0.0466
     46 H          -5.0130   -2.1959   -0.2565 H       1  UNL1        0.0466
     47 H          -6.8195   -0.3305   -0.3597 H       1  UNL1        0.1487
     48 H          -3.8744    1.2810   -1.7663 H       1  UNL1        0.0363
     49 H          -2.8621    0.9846   -0.2438 H       1  UNL1        0.0363
@<TRIPOS>BOND
     1     1     2    1
     2     2     3    1
     3     3     4    1
     4     4     5   ar
     5     5     6   ar
     6     6     7    1
     7     7     8   ar
     8     8     9   ar
     9     9    10   ar
    10    10    11   ar
    11    11    12   ar
    12    12    13   ar
    13    13    14    1
    14    13    15   ar
    15    15    16   ar
    16     6    17   ar
    17    17    18   ar
    18    18    19   ar
    19    19    20   ar
    20    20    21    1
    21    20    22   ar
    22    22    23   ar
    23     2    24    1
    24    24    25    1
    25    25    26    1
    26    26    27   am
    27    27    28    2
    28    27    29    1
    29    23     4   ar
    30    29    24    1
    31    16     7   ar
    32    23    18   ar
    33    15     9   ar
    34     1    30    1
    35     1    31    1
    36     1    32    1
    37     2    33    1
    38     8    34    1
    39    10    35    1
    40    11    36    1
    41    12    37    1
    42    16    38    1
    43    17    39    1
    44    21    40    1
    45    21    41    1
    46    21    42    1
    47    22    43    1
    48    24    44    1
    49    25    45    1
    50    25    46    1
    51    26    47    1
    52    29    48    1
    53    29    49    1
