@<TRIPOS>MOLECULE
*****
 67 67 0 0 0
SMALL
GASTEIGER

@<TRIPOS>ATOM
      1 C           7.4204    0.5373   -1.2826 C.3     1  UNL1       -0.0653
      2 C           8.0098   -0.7938   -1.0239 C.3     1  UNL1       -0.0559
      3 C           7.8232   -1.4059    0.3088 C.3     1  UNL1       -0.0533
      4 C           6.4733   -1.7449    0.7717 C.3     1  UNL1       -0.0531
      5 C           5.5277   -0.6101    0.8862 C.3     1  UNL1       -0.0531
      6 C           4.1764   -1.0962    1.4247 C.3     1  UNL1       -0.0530
      7 C           3.2125    0.0435    1.5526 C.3     1  UNL1       -0.0510
      8 C           2.9503    0.7180    0.2432 C.3     1  UNL1       -0.0295
      9 C           1.9616    1.8639    0.4189 C.3     1  UNL1        0.0477
     10 O           0.7555    1.4358    0.9110 O.3     1  UNL1       -0.3798
     11 C           0.1055    0.5141    0.1178 C.3     1  UNL1        0.0477
     12 C          -0.2080    1.0265   -1.2540 C.3     1  UNL1       -0.0294
     13 C          -0.9094   -0.0044   -2.0702 C.3     1  UNL1       -0.0498
     14 C          -2.2304   -0.4654   -1.4913 C.3     1  UNL1       -0.0401
     15 C          -3.2037    0.6623   -1.3488 C.3     1  UNL1       -0.0006
     16 N          -4.4742    0.3108   -0.8303 N.3     1  UNL1       -0.2923
     17 C          -5.3890    1.3932   -0.6894 C.3     1  UNL1        0.0279
     18 C          -6.8069    0.9414   -0.6050 C.3     1  UNL1        0.0962
     19 O          -7.5753    2.0160   -0.1449 O.3     1  UNL1       -0.3879
     20 C          -7.0041   -0.2211    0.3411 C.3     1  UNL1        0.1095
     21 O          -8.2388   -0.7935    0.0352 O.3     1  UNL1       -0.3866
     22 C          -5.9531   -1.2659    0.1643 C.3     1  UNL1        0.1011
     23 O          -6.0785   -2.2405    1.1371 O.3     1  UNL1       -0.3875
     24 C          -4.5413   -0.7183    0.1378 C.3     1  UNL1        0.0621
     25 C          -4.0879   -0.2968    1.5158 C.3     1  UNL1        0.0622
     26 O          -4.8630    0.7491    2.0166 O.3     1  UNL1       -0.3934
     27 H           8.1566    1.1488   -1.8867 H       1  UNL1        0.0230
     28 H           7.1313    1.1105   -0.3740 H       1  UNL1        0.0230
     29 H           6.5418    0.4419   -1.9495 H       1  UNL1        0.0230
     30 H           7.5835   -1.5316   -1.7868 H       1  UNL1        0.0263
     31 H           9.1006   -0.7523   -1.3110 H       1  UNL1        0.0263
     32 H           8.2839   -0.7103    1.0898 H       1  UNL1        0.0265
     33 H           8.4555   -2.3344    0.4098 H       1  UNL1        0.0265
     34 H           6.0120   -2.5273    0.0961 H       1  UNL1        0.0265
     35 H           6.5368   -2.2543    1.7870 H       1  UNL1        0.0265
     36 H           5.2864   -0.2806   -0.1616 H       1  UNL1        0.0265
     37 H           5.9397    0.2059    1.4702 H       1  UNL1        0.0265
     38 H           4.3459   -1.5582    2.4052 H       1  UNL1        0.0265
     39 H           3.7779   -1.8453    0.7100 H       1  UNL1        0.0265
     40 H           3.6884    0.7869    2.2486 H       1  UNL1        0.0266
     41 H           2.2568   -0.3222    1.9528 H       1  UNL1        0.0266
     42 H           2.6503    0.0129   -0.5368 H       1  UNL1        0.0287
     43 H           3.9083    1.1935   -0.1012 H       1  UNL1        0.0287
     44 H           1.8896    2.4326   -0.5293 H       1  UNL1        0.0560
     45 H           2.4085    2.5490    1.1685 H       1  UNL1        0.0560
     46 H          -0.8179    0.2116    0.6511 H       1  UNL1        0.0560
     47 H           0.6934   -0.4264   -0.0130 H       1  UNL1        0.0560
     48 H          -0.8030    1.9671   -1.2216 H       1  UNL1        0.0287
     49 H           0.7590    1.2390   -1.7562 H       1  UNL1        0.0287
     50 H          -1.1279    0.3975   -3.0855 H       1  UNL1        0.0266
     51 H          -0.2635   -0.9075   -2.1361 H       1  UNL1        0.0266
     52 H          -2.0149   -0.9576   -0.5148 H       1  UNL1        0.0278
     53 H          -2.6237   -1.2532   -2.1624 H       1  UNL1        0.0278
     54 H          -3.3579    1.1872   -2.3153 H       1  UNL1        0.0427
     55 H          -2.6997    1.4239   -0.6822 H       1  UNL1        0.0427
     56 H          -5.1181    2.1008    0.1284 H       1  UNL1        0.0453
     57 H          -5.3022    2.0137   -1.6299 H       1  UNL1        0.0453
     58 H          -7.1794    0.6205   -1.6017 H       1  UNL1        0.0633
     59 H          -7.8074    2.6367   -0.8932 H       1  UNL1        0.2099
     60 H          -7.0877    0.1395    1.3949 H       1  UNL1        0.0646
     61 H          -8.7746   -0.2774   -0.5885 H       1  UNL1        0.2100
     62 H          -6.1176   -1.7482   -0.8262 H       1  UNL1        0.0636
     63 H          -5.5079   -3.0165    0.8408 H       1  UNL1        0.2100
     64 H          -3.8968   -1.5629   -0.1781 H       1  UNL1        0.0511
     65 H          -4.1787   -1.1381    2.2321 H       1  UNL1        0.0573
     66 H          -3.0333    0.0321    1.5293 H       1  UNL1        0.0573
     67 H          -4.5471    0.9977    2.9062 H       1  UNL1        0.2095
@<TRIPOS>BOND
     1     1     2    1
     2     2     3    1
     3     3     4    1
     4     4     5    1
     5     5     6    1
     6     6     7    1
     7     7     8    1
     8     8     9    1
     9     9    10    1
    10    10    11    1
    11    11    12    1
    12    12    13    1
    13    13    14    1
    14    14    15    1
    15    15    16    1
    16    16    17    1
    17    17    18    1
    18    18    19    1
    19    18    20    1
    20    20    21    1
    21    20    22    1
    22    22    23    1
    23    22    24    1
    24    24    25    1
    25    25    26    1
    26    24    16    1
    27     1    27    1
    28     1    28    1
    29     1    29    1
    30     2    30    1
    31     2    31    1
    32     3    32    1
    33     3    33    1
    34     4    34    1
    35     4    35    1
    36     5    36    1
    37     5    37    1
    38     6    38    1
    39     6    39    1
    40     7    40    1
    41     7    41    1
    42     8    42    1
    43     8    43    1
    44     9    44    1
    45     9    45    1
    46    11    46    1
    47    11    47    1
    48    12    48    1
    49    12    49    1
    50    13    50    1
    51    13    51    1
    52    14    52    1
    53    14    53    1
    54    15    54    1
    55    15    55    1
    56    17    56    1
    57    17    57    1
    58    18    58    1
    59    19    59    1
    60    20    60    1
    61    21    61    1
    62    22    62    1
    63    23    63    1
    64    24    64    1
    65    25    65    1
    66    25    66    1
    67    26    67    1
