
     RDKit          3D

 67 67  0  0  0  0  0  0  0  0999 V2000
    7.4204    0.5373   -1.2826 C   0  0  0  0  0  0  0  0  0  0  0  0
    8.0098   -0.7938   -1.0239 C   0  0  0  0  0  0  0  0  0  0  0  0
    7.8232   -1.4059    0.3088 C   0  0  0  0  0  0  0  0  0  0  0  0
    6.4733   -1.7449    0.7717 C   0  0  0  0  0  0  0  0  0  0  0  0
    5.5277   -0.6101    0.8862 C   0  0  0  0  0  0  0  0  0  0  0  0
    4.1764   -1.0962    1.4247 C   0  0  0  0  0  0  0  0  0  0  0  0
    3.2125    0.0435    1.5526 C   0  0  0  0  0  0  0  0  0  0  0  0
    2.9503    0.7180    0.2432 C   0  0  0  0  0  0  0  0  0  0  0  0
    1.9616    1.8639    0.4189 C   0  0  0  0  0  0  0  0  0  0  0  0
    0.7555    1.4358    0.9110 O   0  0  0  0  0  0  0  0  0  0  0  0
    0.1055    0.5141    0.1178 C   0  0  0  0  0  0  0  0  0  0  0  0
   -0.2080    1.0265   -1.2540 C   0  0  0  0  0  0  0  0  0  0  0  0
   -0.9094   -0.0044   -2.0702 C   0  0  0  0  0  0  0  0  0  0  0  0
   -2.2304   -0.4654   -1.4913 C   0  0  0  0  0  0  0  0  0  0  0  0
   -3.2037    0.6623   -1.3488 C   0  0  0  0  0  0  0  0  0  0  0  0
   -4.4742    0.3108   -0.8303 N   0  0  0  0  0  0  0  0  0  0  0  0
   -5.3890    1.3932   -0.6894 C   0  0  0  0  0  0  0  0  0  0  0  0
   -6.8069    0.9414   -0.6050 C   0  0  2  0  0  0  0  0  0  0  0  0
   -7.5753    2.0160   -0.1449 O   0  0  0  0  0  0  0  0  0  0  0  0
   -7.0041   -0.2211    0.3411 C   0  0  1  0  0  0  0  0  0  0  0  0
   -8.2388   -0.7935    0.0352 O   0  0  0  0  0  0  0  0  0  0  0  0
   -5.9531   -1.2659    0.1643 C   0  0  2  0  0  0  0  0  0  0  0  0
   -6.0785   -2.2405    1.1371 O   0  0  0  0  0  0  0  0  0  0  0  0
   -4.5413   -0.7183    0.1378 C   0  0  2  0  0  0  0  0  0  0  0  0
   -4.0879   -0.2968    1.5158 C   0  0  0  0  0  0  0  0  0  0  0  0
   -4.8630    0.7491    2.0166 O   0  0  0  0  0  0  0  0  0  0  0  0
    8.1566    1.1488   -1.8867 H   0  0  0  0  0  0  0  0  0  0  0  0
    7.1313    1.1105   -0.3740 H   0  0  0  0  0  0  0  0  0  0  0  0
    6.5418    0.4419   -1.9495 H   0  0  0  0  0  0  0  0  0  0  0  0
    7.5835   -1.5316   -1.7868 H   0  0  0  0  0  0  0  0  0  0  0  0
    9.1006   -0.7523   -1.3110 H   0  0  0  0  0  0  0  0  0  0  0  0
    8.2839   -0.7103    1.0898 H   0  0  0  0  0  0  0  0  0  0  0  0
    8.4555   -2.3344    0.4098 H   0  0  0  0  0  0  0  0  0  0  0  0
    6.0120   -2.5273    0.0961 H   0  0  0  0  0  0  0  0  0  0  0  0
    6.5368   -2.2543    1.7870 H   0  0  0  0  0  0  0  0  0  0  0  0
    5.2864   -0.2806   -0.1616 H   0  0  0  0  0  0  0  0  0  0  0  0
    5.9397    0.2059    1.4702 H   0  0  0  0  0  0  0  0  0  0  0  0
    4.3459   -1.5582    2.4052 H   0  0  0  0  0  0  0  0  0  0  0  0
    3.7779   -1.8453    0.7100 H   0  0  0  0  0  0  0  0  0  0  0  0
    3.6884    0.7869    2.2486 H   0  0  0  0  0  0  0  0  0  0  0  0
    2.2568   -0.3222    1.9528 H   0  0  0  0  0  0  0  0  0  0  0  0
    2.6503    0.0129   -0.5368 H   0  0  0  0  0  0  0  0  0  0  0  0
    3.9083    1.1935   -0.1012 H   0  0  0  0  0  0  0  0  0  0  0  0
    1.8896    2.4326   -0.5293 H   0  0  0  0  0  0  0  0  0  0  0  0
    2.4085    2.5490    1.1685 H   0  0  0  0  0  0  0  0  0  0  0  0
   -0.8179    0.2116    0.6511 H   0  0  0  0  0  0  0  0  0  0  0  0
    0.6934   -0.4264   -0.0130 H   0  0  0  0  0  0  0  0  0  0  0  0
   -0.8030    1.9671   -1.2216 H   0  0  0  0  0  0  0  0  0  0  0  0
    0.7590    1.2390   -1.7562 H   0  0  0  0  0  0  0  0  0  0  0  0
   -1.1279    0.3975   -3.0855 H   0  0  0  0  0  0  0  0  0  0  0  0
   -0.2635   -0.9075   -2.1361 H   0  0  0  0  0  0  0  0  0  0  0  0
   -2.0149   -0.9576   -0.5148 H   0  0  0  0  0  0  0  0  0  0  0  0
   -2.6237   -1.2532   -2.1624 H   0  0  0  0  0  0  0  0  0  0  0  0
   -3.3579    1.1872   -2.3153 H   0  0  0  0  0  0  0  0  0  0  0  0
   -2.6997    1.4239   -0.6822 H   0  0  0  0  0  0  0  0  0  0  0  0
   -5.1181    2.1008    0.1284 H   0  0  0  0  0  0  0  0  0  0  0  0
   -5.3022    2.0137   -1.6299 H   0  0  0  0  0  0  0  0  0  0  0  0
   -7.1794    0.6205   -1.6017 H   0  0  0  0  0  0  0  0  0  0  0  0
   -7.8074    2.6367   -0.8932 H   0  0  0  0  0  0  0  0  0  0  0  0
   -7.0877    0.1395    1.3949 H   0  0  0  0  0  0  0  0  0  0  0  0
   -8.7746   -0.2774   -0.5885 H   0  0  0  0  0  0  0  0  0  0  0  0
   -6.1176   -1.7482   -0.8262 H   0  0  0  0  0  0  0  0  0  0  0  0
   -5.5079   -3.0165    0.8408 H   0  0  0  0  0  0  0  0  0  0  0  0
   -3.8968   -1.5629   -0.1781 H   0  0  0  0  0  0  0  0  0  0  0  0
   -4.1787   -1.1381    2.2321 H   0  0  0  0  0  0  0  0  0  0  0  0
   -3.0333    0.0321    1.5293 H   0  0  0  0  0  0  0  0  0  0  0  0
   -4.5471    0.9977    2.9062 H   0  0  0  0  0  0  0  0  0  0  0  0
  1  2  1  0
  2  3  1  0
  3  4  1  0
  4  5  1  0
  5  6  1  0
  6  7  1  0
  7  8  1  0
  8  9  1  0
  9 10  1  0
 10 11  1  0
 11 12  1  0
 12 13  1  0
 13 14  1  0
 14 15  1  0
 15 16  1  0
 16 17  1  0
 17 18  1  0
 18 19  1  0
 18 20  1  0
 20 21  1  0
 20 22  1  0
 22 23  1  0
 22 24  1  0
 24 25  1  0
 25 26  1  0
 24 16  1  0
  1 27  1  0
  1 28  1  0
  1 29  1  0
  2 30  1  0
  2 31  1  0
  3 32  1  0
  3 33  1  0
  4 34  1  0
  4 35  1  0
  5 36  1  0
  5 37  1  0
  6 38  1  0
  6 39  1  0
  7 40  1  0
  7 41  1  0
  8 42  1  0
  8 43  1  0
  9 44  1  0
  9 45  1  0
 11 46  1  0
 11 47  1  0
 12 48  1  0
 12 49  1  0
 13 50  1  0
 13 51  1  0
 14 52  1  0
 14 53  1  0
 15 54  1  0
 15 55  1  0
 17 56  1  0
 17 57  1  0
 18 58  1  6
 19 59  1  0
 20 60  1  1
 21 61  1  0
 22 62  1  6
 23 63  1  0
 24 64  1  6
 25 65  1  0
 25 66  1  0
 26 67  1  0
M  END
$$$$
