@<TRIPOS>MOLECULE
*****
 58 58 0 0 0
SMALL
GASTEIGER

@<TRIPOS>ATOM
      1 C           8.4994    1.1680    0.3681 C.3     1  UNL1       -0.0653
      2 C           7.0723    0.9128    0.7914 C.3     1  UNL1       -0.0559
      3 C           6.8169   -0.5776    0.6968 C.3     1  UNL1       -0.0532
      4 C           5.4359   -0.9512    1.1124 C.3     1  UNL1       -0.0510
      5 C           4.3484   -0.2857    0.2768 C.3     1  UNL1       -0.0295
      6 C           2.9962   -0.7166    0.7669 C.3     1  UNL1        0.0477
      7 O           1.9266   -0.1846    0.1097 O.3     1  UNL1       -0.3798
      8 C           1.8284   -0.4224   -1.2291 C.3     1  UNL1        0.0477
      9 C           0.5852    0.2025   -1.7999 C.3     1  UNL1       -0.0294
     10 C          -0.6986   -0.2929   -1.2504 C.3     1  UNL1       -0.0498
     11 C          -0.9060   -0.1121    0.2236 C.3     1  UNL1       -0.0401
     12 C          -2.2894   -0.6720    0.5993 C.3     1  UNL1       -0.0006
     13 N          -3.2671    0.0486   -0.1389 N.3     1  UNL1       -0.2923
     14 C          -3.4233    1.4287    0.2540 C.3     1  UNL1        0.0279
     15 C          -4.6614    1.9369   -0.4950 C.3     1  UNL1        0.0962
     16 O          -4.7099    3.3414   -0.4764 O.3     1  UNL1       -0.3879
     17 C          -5.8675    1.3537    0.1993 C.3     1  UNL1        0.1095
     18 O          -7.0365    1.6323   -0.5097 O.3     1  UNL1       -0.3866
     19 C          -5.6684   -0.1216    0.4085 C.3     1  UNL1        0.1011
     20 O          -5.5028   -0.3917    1.7656 O.3     1  UNL1       -0.3875
     21 C          -4.4856   -0.6506   -0.3662 C.3     1  UNL1        0.0621
     22 C          -4.3866   -2.1352   -0.1012 C.3     1  UNL1        0.0622
     23 O          -5.6514   -2.6713   -0.3703 O.3     1  UNL1       -0.3934
     24 H           8.9329    2.0576    0.8802 H       1  UNL1        0.0230
     25 H           8.6131    1.2886   -0.7265 H       1  UNL1        0.0230
     26 H           9.1506    0.2904    0.6524 H       1  UNL1        0.0230
     27 H           6.4300    1.4110    0.0073 H       1  UNL1        0.0263
     28 H           6.8739    1.3367    1.7802 H       1  UNL1        0.0263
     29 H           7.0981   -0.9119   -0.3025 H       1  UNL1        0.0265
     30 H           7.5183   -1.0566    1.4233 H       1  UNL1        0.0265
     31 H           5.3385   -2.0573    1.0607 H       1  UNL1        0.0266
     32 H           5.2941   -0.6941    2.2041 H       1  UNL1        0.0266
     33 H           4.4986    0.8078    0.3574 H       1  UNL1        0.0287
     34 H           4.5498   -0.5839   -0.7670 H       1  UNL1        0.0287
     35 H           2.9273   -0.3413    1.8333 H       1  UNL1        0.0560
     36 H           2.9819   -1.8240    0.8760 H       1  UNL1        0.0560
     37 H           2.6866    0.0980   -1.7518 H       1  UNL1        0.0560
     38 H           1.8404   -1.5014   -1.4984 H       1  UNL1        0.0560
     39 H           0.6141    1.3123   -1.6598 H       1  UNL1        0.0287
     40 H           0.5668   -0.0167   -2.9082 H       1  UNL1        0.0287
     41 H          -1.5157    0.3158   -1.7429 H       1  UNL1        0.0266
     42 H          -0.9285   -1.3392   -1.5760 H       1  UNL1        0.0266
     43 H          -0.9060    0.9705    0.4488 H       1  UNL1        0.0278
     44 H          -0.1565   -0.6393    0.8569 H       1  UNL1        0.0278
     45 H          -2.3951   -0.4779    1.7022 H       1  UNL1        0.0427
     46 H          -2.3121   -1.7529    0.4760 H       1  UNL1        0.0427
     47 H          -3.5192    1.5502    1.3491 H       1  UNL1        0.0453
     48 H          -2.5407    2.0153   -0.0991 H       1  UNL1        0.0453
     49 H          -4.5517    1.5585   -1.5358 H       1  UNL1        0.0633
     50 H          -4.1787    3.7254   -1.2027 H       1  UNL1        0.2099
     51 H          -5.9583    1.8737    1.1683 H       1  UNL1        0.0646
     52 H          -7.2049    0.8426   -1.0929 H       1  UNL1        0.2100
     53 H          -6.5728   -0.6508    0.0167 H       1  UNL1        0.0636
     54 H          -5.7642   -1.3391    1.9637 H       1  UNL1        0.2100
     55 H          -4.7424   -0.5435   -1.4509 H       1  UNL1        0.0511
     56 H          -3.6748   -2.6194   -0.7779 H       1  UNL1        0.0573
     57 H          -4.1857   -2.3505    0.9756 H       1  UNL1        0.0573
     58 H          -5.7624   -2.5940   -1.3569 H       1  UNL1        0.2095
@<TRIPOS>BOND
     1     1     2    1
     2     2     3    1
     3     3     4    1
     4     4     5    1
     5     5     6    1
     6     6     7    1
     7     7     8    1
     8     8     9    1
     9     9    10    1
    10    10    11    1
    11    11    12    1
    12    12    13    1
    13    13    14    1
    14    14    15    1
    15    15    16    1
    16    15    17    1
    17    17    18    1
    18    17    19    1
    19    19    20    1
    20    19    21    1
    21    21    22    1
    22    22    23    1
    23    21    13    1
    24     1    24    1
    25     1    25    1
    26     1    26    1
    27     2    27    1
    28     2    28    1
    29     3    29    1
    30     3    30    1
    31     4    31    1
    32     4    32    1
    33     5    33    1
    34     5    34    1
    35     6    35    1
    36     6    36    1
    37     8    37    1
    38     8    38    1
    39     9    39    1
    40     9    40    1
    41    10    41    1
    42    10    42    1
    43    11    43    1
    44    11    44    1
    45    12    45    1
    46    12    46    1
    47    14    47    1
    48    14    48    1
    49    15    49    1
    50    16    50    1
    51    17    51    1
    52    18    52    1
    53    19    53    1
    54    20    54    1
    55    21    55    1
    56    22    56    1
    57    22    57    1
    58    23    58    1
