
     RDKit          3D

 58 58  0  0  0  0  0  0  0  0999 V2000
    8.4994    1.1680    0.3681 C   0  0  0  0  0  0  0  0  0  0  0  0
    7.0723    0.9128    0.7914 C   0  0  0  0  0  0  0  0  0  0  0  0
    6.8169   -0.5776    0.6968 C   0  0  0  0  0  0  0  0  0  0  0  0
    5.4359   -0.9512    1.1124 C   0  0  0  0  0  0  0  0  0  0  0  0
    4.3484   -0.2857    0.2768 C   0  0  0  0  0  0  0  0  0  0  0  0
    2.9962   -0.7166    0.7669 C   0  0  0  0  0  0  0  0  0  0  0  0
    1.9266   -0.1846    0.1097 O   0  0  0  0  0  0  0  0  0  0  0  0
    1.8284   -0.4224   -1.2291 C   0  0  0  0  0  0  0  0  0  0  0  0
    0.5852    0.2025   -1.7999 C   0  0  0  0  0  0  0  0  0  0  0  0
   -0.6986   -0.2929   -1.2504 C   0  0  0  0  0  0  0  0  0  0  0  0
   -0.9060   -0.1121    0.2236 C   0  0  0  0  0  0  0  0  0  0  0  0
   -2.2894   -0.6720    0.5993 C   0  0  0  0  0  0  0  0  0  0  0  0
   -3.2671    0.0486   -0.1389 N   0  0  0  0  0  0  0  0  0  0  0  0
   -3.4233    1.4287    0.2540 C   0  0  0  0  0  0  0  0  0  0  0  0
   -4.6614    1.9369   -0.4950 C   0  0  2  0  0  0  0  0  0  0  0  0
   -4.7099    3.3414   -0.4764 O   0  0  0  0  0  0  0  0  0  0  0  0
   -5.8675    1.3537    0.1993 C   0  0  1  0  0  0  0  0  0  0  0  0
   -7.0365    1.6323   -0.5097 O   0  0  0  0  0  0  0  0  0  0  0  0
   -5.6684   -0.1216    0.4085 C   0  0  2  0  0  0  0  0  0  0  0  0
   -5.5028   -0.3917    1.7656 O   0  0  0  0  0  0  0  0  0  0  0  0
   -4.4856   -0.6506   -0.3662 C   0  0  2  0  0  0  0  0  0  0  0  0
   -4.3866   -2.1352   -0.1012 C   0  0  0  0  0  0  0  0  0  0  0  0
   -5.6514   -2.6713   -0.3703 O   0  0  0  0  0  0  0  0  0  0  0  0
    8.9329    2.0576    0.8802 H   0  0  0  0  0  0  0  0  0  0  0  0
    8.6131    1.2886   -0.7265 H   0  0  0  0  0  0  0  0  0  0  0  0
    9.1506    0.2904    0.6524 H   0  0  0  0  0  0  0  0  0  0  0  0
    6.4300    1.4110    0.0073 H   0  0  0  0  0  0  0  0  0  0  0  0
    6.8739    1.3367    1.7802 H   0  0  0  0  0  0  0  0  0  0  0  0
    7.0981   -0.9119   -0.3025 H   0  0  0  0  0  0  0  0  0  0  0  0
    7.5183   -1.0566    1.4233 H   0  0  0  0  0  0  0  0  0  0  0  0
    5.3385   -2.0573    1.0607 H   0  0  0  0  0  0  0  0  0  0  0  0
    5.2941   -0.6941    2.2041 H   0  0  0  0  0  0  0  0  0  0  0  0
    4.4986    0.8078    0.3574 H   0  0  0  0  0  0  0  0  0  0  0  0
    4.5498   -0.5839   -0.7670 H   0  0  0  0  0  0  0  0  0  0  0  0
    2.9273   -0.3413    1.8333 H   0  0  0  0  0  0  0  0  0  0  0  0
    2.9819   -1.8240    0.8760 H   0  0  0  0  0  0  0  0  0  0  0  0
    2.6866    0.0980   -1.7518 H   0  0  0  0  0  0  0  0  0  0  0  0
    1.8404   -1.5014   -1.4984 H   0  0  0  0  0  0  0  0  0  0  0  0
    0.6141    1.3123   -1.6598 H   0  0  0  0  0  0  0  0  0  0  0  0
    0.5668   -0.0167   -2.9082 H   0  0  0  0  0  0  0  0  0  0  0  0
   -1.5157    0.3158   -1.7429 H   0  0  0  0  0  0  0  0  0  0  0  0
   -0.9285   -1.3392   -1.5760 H   0  0  0  0  0  0  0  0  0  0  0  0
   -0.9060    0.9705    0.4488 H   0  0  0  0  0  0  0  0  0  0  0  0
   -0.1565   -0.6393    0.8569 H   0  0  0  0  0  0  0  0  0  0  0  0
   -2.3951   -0.4779    1.7022 H   0  0  0  0  0  0  0  0  0  0  0  0
   -2.3121   -1.7529    0.4760 H   0  0  0  0  0  0  0  0  0  0  0  0
   -3.5192    1.5502    1.3491 H   0  0  0  0  0  0  0  0  0  0  0  0
   -2.5407    2.0153   -0.0991 H   0  0  0  0  0  0  0  0  0  0  0  0
   -4.5517    1.5585   -1.5358 H   0  0  0  0  0  0  0  0  0  0  0  0
   -4.1787    3.7254   -1.2027 H   0  0  0  0  0  0  0  0  0  0  0  0
   -5.9583    1.8737    1.1683 H   0  0  0  0  0  0  0  0  0  0  0  0
   -7.2049    0.8426   -1.0929 H   0  0  0  0  0  0  0  0  0  0  0  0
   -6.5728   -0.6508    0.0167 H   0  0  0  0  0  0  0  0  0  0  0  0
   -5.7642   -1.3391    1.9637 H   0  0  0  0  0  0  0  0  0  0  0  0
   -4.7424   -0.5435   -1.4509 H   0  0  0  0  0  0  0  0  0  0  0  0
   -3.6748   -2.6194   -0.7779 H   0  0  0  0  0  0  0  0  0  0  0  0
   -4.1857   -2.3505    0.9756 H   0  0  0  0  0  0  0  0  0  0  0  0
   -5.7624   -2.5940   -1.3569 H   0  0  0  0  0  0  0  0  0  0  0  0
  1  2  1  0
  2  3  1  0
  3  4  1  0
  4  5  1  0
  5  6  1  0
  6  7  1  0
  7  8  1  0
  8  9  1  0
  9 10  1  0
 10 11  1  0
 11 12  1  0
 12 13  1  0
 13 14  1  0
 14 15  1  0
 15 16  1  0
 15 17  1  0
 17 18  1  0
 17 19  1  0
 19 20  1  0
 19 21  1  0
 21 22  1  0
 22 23  1  0
 21 13  1  0
  1 24  1  0
  1 25  1  0
  1 26  1  0
  2 27  1  0
  2 28  1  0
  3 29  1  0
  3 30  1  0
  4 31  1  0
  4 32  1  0
  5 33  1  0
  5 34  1  0
  6 35  1  0
  6 36  1  0
  8 37  1  0
  8 38  1  0
  9 39  1  0
  9 40  1  0
 10 41  1  0
 10 42  1  0
 11 43  1  0
 11 44  1  0
 12 45  1  0
 12 46  1  0
 14 47  1  0
 14 48  1  0
 15 49  1  6
 16 50  1  0
 17 51  1  1
 18 52  1  0
 19 53  1  6
 20 54  1  0
 21 55  1  6
 22 56  1  0
 22 57  1  0
 23 58  1  0
M  END
$$$$
