@<TRIPOS>MOLECULE
*****
 51 53 0 0 0
SMALL
GASTEIGER

@<TRIPOS>ATOM
      1 C          -3.3039    0.3068   -0.5633 C.3     1  UNL1        0.0519
      2 C          -2.0543    0.3950    0.2239 C.3     1  UNL1        0.0091
      3 C          -2.2076    0.3000    1.7161 C.3     1  UNL1       -0.0561
      4 C          -1.2725   -0.7904   -0.2842 C.2     1  UNL1        0.0188
      5 S           0.4486   -1.2438   -0.1182 S.3     1  UNL1       -0.1224
      6 C           1.3239    0.0408    0.7813 C.3     1  UNL1        0.0236
      7 C           1.4322    1.3146   -0.0229 C.3     1  UNL1        0.0084
      8 N           2.7862    1.3178   -0.5265 N.3     1  UNL1       -0.3109
      9 C           3.5722    0.8278    0.5688 C.3     1  UNL1        0.0229
     10 C           4.8645    0.2510    0.0244 C.3     1  UNL1        0.0339
     11 N           5.7092   -0.2629    1.0876 N.3     1  UNL1       -0.1786
     12 S           7.1344   -0.8848    0.3326 S.O2    1  UNL1        0.0921
     13 N           7.9745    0.3664   -0.4969 N.3     1  UNL1       -0.1934
     14 O           8.0164   -1.5622    1.3379 O.2     1  UNL1       -0.1415
     15 O           6.6671   -1.8987   -0.6778 O.2     1  UNL1       -0.1415
     16 C           2.7463   -0.3601    1.0822 C.3     1  UNL1       -0.0229
     17 C          -2.0879   -1.6042   -0.9724 C.2     1  UNL1        0.1310
     18 N          -3.4166   -1.0932   -1.0017 N.am    1  UNL1       -0.2601
     19 C          -4.8297   -0.8092   -1.1109 C.2     1  UNL1        0.2276
     20 O          -5.6647   -1.2239   -1.9436 O.2     1  UNL1       -0.2748
     21 C          -4.6029    0.0553    0.1066 C.3     1  UNL1        0.0811
     22 C          -5.5890    1.2006    0.1014 C.3     1  UNL1        0.0653
     23 C          -6.8783    0.8504    0.8048 C.3     1  UNL1       -0.0382
     24 O          -5.0203    2.2584    0.8264 O.3     1  UNL1       -0.3912
     25 C          -1.7619   -2.8598   -1.6380 C.2     1  UNL1        0.3521
     26 O          -0.5116   -3.4500   -1.6761 O.3     1  UNL1       -0.4762
     27 O          -2.5954   -3.5571   -2.2618 O.2     1  UNL1       -0.2437
     28 H          -3.4260    1.0179   -1.3970 H       1  UNL1        0.0519
     29 H          -1.5067    1.3039   -0.0731 H       1  UNL1        0.0370
     30 H          -3.2284    0.3360    2.0919 H       1  UNL1        0.0236
     31 H          -1.6970    1.2029    2.1633 H       1  UNL1        0.0236
     32 H          -1.6631   -0.6182    2.0812 H       1  UNL1        0.0236
     33 H           0.8088    0.3043    1.7407 H       1  UNL1        0.0428
     34 H           0.7081    1.3632   -0.8737 H       1  UNL1        0.0435
     35 H           1.3007    2.2059    0.6300 H       1  UNL1        0.0435
     36 H           2.8995    0.6783   -1.3365 H       1  UNL1        0.1223
     37 H           3.7691    1.5358    1.3728 H       1  UNL1        0.0474
     38 H           4.5754   -0.6183   -0.6305 H       1  UNL1        0.0457
     39 H           5.3832    1.0315   -0.5645 H       1  UNL1        0.0457
     40 H           5.9747    0.5472    1.7164 H       1  UNL1        0.1491
     41 H           8.8795    0.5178   -0.0201 H       1  UNL1        0.1453
     42 H           7.4252    1.2410   -0.4740 H       1  UNL1        0.1453
     43 H           2.9043   -0.4930    2.1727 H       1  UNL1        0.0292
     44 H           3.0127   -1.2528    0.4985 H       1  UNL1        0.0292
     45 H          -4.6469   -0.6057    0.9767 H       1  UNL1        0.0438
     46 H          -5.8230    1.5580   -0.9024 H       1  UNL1        0.0598
     47 H          -7.2158   -0.1762    0.5741 H       1  UNL1        0.0255
     48 H          -7.6223    1.6265    0.5317 H       1  UNL1        0.0255
     49 H          -6.6838    0.8958    1.8956 H       1  UNL1        0.0255
     50 H          -4.6908    2.9392    0.2062 H       1  UNL1        0.2098
     51 H          -0.3163   -4.4257   -1.4588 H       1  UNL1        0.2954
@<TRIPOS>BOND
     1     1     2    1
     2     2     3    1
     3     2     4    1
     4     4     5    1
     5     5     6    1
     6     6     7    1
     7     7     8    1
     8     8     9    1
     9     9    10    1
    10    10    11    1
    11    11    12    1
    12    12    13    1
    13    12    14    2
    14    12    15    2
    15     9    16    1
    16     4    17    2
    17    17    18    1
    18    18    19   am
    19    19    20    2
    20    19    21    1
    21    21    22    1
    22    22    23    1
    23    22    24    1
    24    17    25    1
    25    25    26    1
    26    25    27    2
    27    18     1    1
    28    21     1    1
    29    16     6    1
    30     1    28    1
    31     2    29    1
    32     3    30    1
    33     3    31    1
    34     3    32    1
    35     6    33    1
    36     7    34    1
    37     7    35    1
    38     8    36    1
    39     9    37    1
    40    10    38    1
    41    10    39    1
    42    11    40    1
    43    13    41    1
    44    13    42    1
    45    16    43    1
    46    16    44    1
    47    21    45    1
    48    22    46    1
    49    23    47    1
    50    23    48    1
    51    23    49    1
    52    24    50    1
    53    26    51    1
