
     RDKit          3D

 51 53  0  0  0  0  0  0  0  0999 V2000
   -3.3039    0.3068   -0.5633 C   0  0  1  0  0  0  0  0  0  0  0  0
   -2.0543    0.3950    0.2239 C   0  0  1  0  0  0  0  0  0  0  0  0
   -2.2076    0.3000    1.7161 C   0  0  0  0  0  0  0  0  0  0  0  0
   -1.2725   -0.7904   -0.2842 C   0  0  0  0  0  0  0  0  0  0  0  0
    0.4486   -1.2438   -0.1182 S   0  0  0  0  0  0  0  0  0  0  0  0
    1.3239    0.0408    0.7813 C   0  0  2  0  0  0  0  0  0  0  0  0
    1.4322    1.3146   -0.0229 C   0  0  0  0  0  0  0  0  0  0  0  0
    2.7862    1.3178   -0.5265 N   0  0  0  0  0  0  0  0  0  0  0  0
    3.5722    0.8278    0.5688 C   0  0  2  0  0  0  0  0  0  0  0  0
    4.8645    0.2510    0.0244 C   0  0  0  0  0  0  0  0  0  0  0  0
    5.7092   -0.2629    1.0876 N   0  0  0  0  0  0  0  0  0  0  0  0
    7.1344   -0.8848    0.3326 S   0  0  0  0  0  0  0  0  0  0  0  0
    7.9745    0.3664   -0.4969 N   0  0  0  0  0  0  0  0  0  0  0  0
    8.0164   -1.5622    1.3379 O   0  0  0  0  0  0  0  0  0  0  0  0
    6.6671   -1.8987   -0.6778 O   0  0  0  0  0  0  0  0  0  0  0  0
    2.7463   -0.3601    1.0822 C   0  0  0  0  0  0  0  0  0  0  0  0
   -2.0879   -1.6042   -0.9724 C   0  0  0  0  0  0  0  0  0  0  0  0
   -3.4166   -1.0932   -1.0017 N   0  0  0  0  0  0  0  0  0  0  0  0
   -4.8297   -0.8092   -1.1109 C   0  0  0  0  0  0  0  0  0  0  0  0
   -5.6647   -1.2239   -1.9436 O   0  0  0  0  0  0  0  0  0  0  0  0
   -4.6029    0.0553    0.1066 C   0  0  2  0  0  0  0  0  0  0  0  0
   -5.5890    1.2006    0.1014 C   0  0  1  0  0  0  0  0  0  0  0  0
   -6.8783    0.8504    0.8048 C   0  0  0  0  0  0  0  0  0  0  0  0
   -5.0203    2.2584    0.8264 O   0  0  0  0  0  0  0  0  0  0  0  0
   -1.7619   -2.8598   -1.6380 C   0  0  0  0  0  0  0  0  0  0  0  0
   -0.5116   -3.4500   -1.6761 O   0  0  0  0  0  0  0  0  0  0  0  0
   -2.5954   -3.5571   -2.2618 O   0  0  0  0  0  0  0  0  0  0  0  0
   -3.4260    1.0179   -1.3970 H   0  0  0  0  0  0  0  0  0  0  0  0
   -1.5067    1.3039   -0.0731 H   0  0  0  0  0  0  0  0  0  0  0  0
   -3.2284    0.3360    2.0919 H   0  0  0  0  0  0  0  0  0  0  0  0
   -1.6970    1.2029    2.1633 H   0  0  0  0  0  0  0  0  0  0  0  0
   -1.6631   -0.6182    2.0812 H   0  0  0  0  0  0  0  0  0  0  0  0
    0.8088    0.3043    1.7407 H   0  0  0  0  0  0  0  0  0  0  0  0
    0.7081    1.3632   -0.8737 H   0  0  0  0  0  0  0  0  0  0  0  0
    1.3007    2.2059    0.6300 H   0  0  0  0  0  0  0  0  0  0  0  0
    2.8995    0.6783   -1.3365 H   0  0  0  0  0  0  0  0  0  0  0  0
    3.7691    1.5358    1.3728 H   0  0  0  0  0  0  0  0  0  0  0  0
    4.5754   -0.6183   -0.6305 H   0  0  0  0  0  0  0  0  0  0  0  0
    5.3832    1.0315   -0.5645 H   0  0  0  0  0  0  0  0  0  0  0  0
    5.9747    0.5472    1.7164 H   0  0  0  0  0  0  0  0  0  0  0  0
    8.8795    0.5178   -0.0201 H   0  0  0  0  0  0  0  0  0  0  0  0
    7.4252    1.2410   -0.4740 H   0  0  0  0  0  0  0  0  0  0  0  0
    2.9043   -0.4930    2.1727 H   0  0  0  0  0  0  0  0  0  0  0  0
    3.0127   -1.2528    0.4985 H   0  0  0  0  0  0  0  0  0  0  0  0
   -4.6469   -0.6057    0.9767 H   0  0  0  0  0  0  0  0  0  0  0  0
   -5.8230    1.5580   -0.9024 H   0  0  0  0  0  0  0  0  0  0  0  0
   -7.2158   -0.1762    0.5741 H   0  0  0  0  0  0  0  0  0  0  0  0
   -7.6223    1.6265    0.5317 H   0  0  0  0  0  0  0  0  0  0  0  0
   -6.6838    0.8958    1.8956 H   0  0  0  0  0  0  0  0  0  0  0  0
   -4.6908    2.9392    0.2062 H   0  0  0  0  0  0  0  0  0  0  0  0
   -0.3163   -4.4257   -1.4588 H   0  0  0  0  0  0  0  0  0  0  0  0
  1  2  1  0
  2  3  1  0
  2  4  1  0
  4  5  1  0
  5  6  1  0
  6  7  1  0
  7  8  1  0
  8  9  1  0
  9 10  1  0
 10 11  1  0
 11 12  1  0
 12 13  1  0
 12 14  2  0
 12 15  2  0
  9 16  1  0
  4 17  2  0
 17 18  1  0
 18 19  1  0
 19 20  2  0
 19 21  1  0
 21 22  1  0
 22 23  1  0
 22 24  1  0
 17 25  1  0
 25 26  1  0
 25 27  2  0
 18  1  1  0
 21  1  1  0
 16  6  1  0
  1 28  1  6
  2 29  1  1
  3 30  1  0
  3 31  1  0
  3 32  1  0
  6 33  1  1
  7 34  1  0
  7 35  1  0
  8 36  1  0
  9 37  1  1
 10 38  1  0
 10 39  1  0
 11 40  1  0
 13 41  1  0
 13 42  1  0
 16 43  1  0
 16 44  1  0
 21 45  1  1
 22 46  1  6
 23 47  1  0
 23 48  1  0
 23 49  1  0
 24 50  1  0
 26 51  1  0
M  END
$$$$
