
     RDKit          3D

 45 49  0  0  0  0  0  0  0  0999 V2000
   -0.6108    0.0262   -2.3487 N   0  0  0  0  0  0  0  0  0  0  0  0
   -1.6073   -0.3846   -1.3649 C   0  0  1  0  0  0  0  0  0  0  0  0
   -0.9623   -1.5099   -0.5711 C   0  0  0  0  0  0  0  0  0  0  0  0
   -0.0997   -1.0447    0.5386 C   0  0  1  0  0  0  0  0  0  0  0  0
    1.1317   -1.7352    0.6991 N   0  0  0  0  0  0  0  0  0  0  0  0
    1.9069   -1.2492    1.8104 C   0  0  0  0  0  0  0  0  0  0  0  0
    3.0636   -0.5352    1.2231 C   0  0  0  0  0  0  0  0  0  0  0  0
    4.0881    0.2947    1.4693 N   0  0  0  0  0  0  0  0  0  0  0  0
    4.7808    0.5311    0.3782 N   0  0  0  0  0  0  0  0  0  0  0  0
    5.8421    1.2535    0.1019 N   0  0  0  0  0  0  0  0  0  0  0  0
    6.3614    1.3165   -1.1583 C   0  0  0  0  0  0  0  0  0  0  0  0
    5.7672    0.6063   -2.1872 C   0  0  0  0  0  0  0  0  0  0  0  0
    4.6791   -0.1231   -1.8605 N   0  0  0  0  0  0  0  0  0  0  0  0
    4.1983   -0.1608   -0.6141 C   0  0  0  0  0  0  0  0  0  0  0  0
    3.1042   -0.8524   -0.1231 C   0  0  0  0  0  0  0  0  0  0  0  0
    1.9848   -1.7727   -0.4476 C   0  0  0  0  0  0  0  0  0  0  0  0
    0.0361    0.4579    0.4087 C   0  0  0  0  0  0  0  0  0  0  0  0
   -1.2250    0.9786    0.5192 O   0  0  0  0  0  0  0  0  0  0  0  0
   -2.0456    0.7760   -0.5971 C   0  0  2  0  0  0  0  0  0  0  0  0
   -3.4088    0.8776   -0.1338 C   0  0  0  0  0  0  0  0  0  0  0  0
   -3.7383    0.3633    1.1056 C   0  0  0  0  0  0  0  0  0  0  0  0
   -5.0430    0.4385    1.5951 C   0  0  0  0  0  0  0  0  0  0  0  0
   -5.3907   -0.0550    2.8003 F   0  0  0  0  0  0  0  0  0  0  0  0
   -6.0215    1.0351    0.8317 C   0  0  0  0  0  0  0  0  0  0  0  0
   -5.7182    1.5475   -0.3911 C   0  0  0  0  0  0  0  0  0  0  0  0
   -4.4153    1.4632   -0.8604 C   0  0  0  0  0  0  0  0  0  0  0  0
   -4.0662    1.9490   -2.0503 F   0  0  0  0  0  0  0  0  0  0  0  0
   -0.3243   -0.7428   -2.9731 H   0  0  0  0  0  0  0  0  0  0  0  0
   -0.9392    0.8783   -2.8714 H   0  0  0  0  0  0  0  0  0  0  0  0
   -2.3708   -0.8887   -1.9926 H   0  0  0  0  0  0  0  0  0  0  0  0
   -1.7902   -2.1830   -0.2461 H   0  0  0  0  0  0  0  0  0  0  0  0
   -0.3541   -2.1216   -1.2694 H   0  0  0  0  0  0  0  0  0  0  0  0
   -0.6788   -1.2038    1.4982 H   0  0  0  0  0  0  0  0  0  0  0  0
    1.3403   -0.6544    2.5424 H   0  0  0  0  0  0  0  0  0  0  0  0
    2.3398   -2.1662    2.3089 H   0  0  0  0  0  0  0  0  0  0  0  0
    7.2292    1.9037   -1.3976 H   0  0  0  0  0  0  0  0  0  0  0  0
    6.1497    0.6282   -3.2103 H   0  0  0  0  0  0  0  0  0  0  0  0
    2.4370   -2.7980   -0.4979 H   0  0  0  0  0  0  0  0  0  0  0  0
    1.5604   -1.4496   -1.3917 H   0  0  0  0  0  0  0  0  0  0  0  0
    0.5853    0.7971    1.3328 H   0  0  0  0  0  0  0  0  0  0  0  0
    0.6147    0.7782   -0.4590 H   0  0  0  0  0  0  0  0  0  0  0  0
   -1.8632    1.7055   -1.2257 H   0  0  0  0  0  0  0  0  0  0  0  0
   -3.0143   -0.1190    1.7561 H   0  0  0  0  0  0  0  0  0  0  0  0
   -7.0596    1.1160    1.1770 H   0  0  0  0  0  0  0  0  0  0  0  0
   -6.4537    2.0280   -1.0320 H   0  0  0  0  0  0  0  0  0  0  0  0
  1  2  1  0
  2  3  1  0
  3  4  1  0
  4  5  1  0
  5  6  1  0
  6  7  1  0
  7  8  2  0
  8  9  1  0
  9 10  1  0
 10 11  2  0
 11 12  1  0
 12 13  2  0
 13 14  1  0
 14 15  2  0
 15 16  1  0
  4 17  1  0
 17 18  1  0
 18 19  1  0
 19 20  1  0
 20 21  2  0
 21 22  1  0
 22 23  1  0
 22 24  2  0
 24 25  1  0
 25 26  2  0
 26 27  1  0
 19  2  1  0
 26 20  1  0
 16  5  1  0
 15  7  1  0
 14  9  1  0
  1 28  1  0
  1 29  1  0
  2 30  1  6
  3 31  1  0
  3 32  1  0
  4 33  1  1
  6 34  1  0
  6 35  1  0
 11 36  1  0
 12 37  1  0
 16 38  1  0
 16 39  1  0
 17 40  1  0
 17 41  1  0
 19 42  1  6
 21 43  1  0
 24 44  1  0
 25 45  1  0
M  END
$$$$
