@<TRIPOS>MOLECULE
*****
 45 49 0 0 0
SMALL
GASTEIGER

@<TRIPOS>ATOM
      1 N          -0.6108    0.0262   -2.3487 N.3     1  UNL1       -0.3248
      2 C          -1.6073   -0.3846   -1.3649 C.3     1  UNL1        0.0371
      3 C          -0.9623   -1.5099   -0.5711 C.3     1  UNL1       -0.0172
      4 C          -0.0997   -1.0447    0.5386 C.3     1  UNL1        0.0360
      5 N           1.1317   -1.7352    0.6991 N.3     1  UNL1       -0.2871
      6 C           1.9069   -1.2492    1.8104 C.3     1  UNL1        0.0441
      7 C           3.0636   -0.5352    1.2231 C.ar    1  UNL1        0.0855
      8 N           4.0881    0.2947    1.4693 N.ar    1  UNL1       -0.1505
      9 N           4.7808    0.5311    0.3782 N.ar    1  UNL1       -0.1310
     10 N           5.8421    1.2535    0.1019 N.ar    1  UNL1       -0.1542
     11 C           6.3614    1.3165   -1.1583 C.ar    1  UNL1        0.0681
     12 C           5.7672    0.6063   -2.1872 C.ar    1  UNL1        0.0498
     13 N           4.6791   -0.1231   -1.8605 N.ar    1  UNL1       -0.2329
     14 C           4.1983   -0.1608   -0.6141 C.ar    1  UNL1        0.1808
     15 C           3.1042   -0.8524   -0.1231 C.ar    1  UNL1        0.0367
     16 C           1.9848   -1.7727   -0.4476 C.3     1  UNL1        0.0302
     17 C           0.0361    0.4579    0.4087 C.3     1  UNL1        0.0641
     18 O          -1.2250    0.9786    0.5192 O.3     1  UNL1       -0.3688
     19 C          -2.0456    0.7760   -0.5971 C.3     1  UNL1        0.1015
     20 C          -3.4088    0.8776   -0.1338 C.ar    1  UNL1        0.0205
     21 C          -3.7383    0.3633    1.1056 C.ar    1  UNL1       -0.0180
     22 C          -5.0430    0.4385    1.5951 C.ar    1  UNL1        0.1239
     23 F          -5.3907   -0.0550    2.8003 F       1  UNL1       -0.2055
     24 C          -6.0215    1.0351    0.8317 C.ar    1  UNL1       -0.0237
     25 C          -5.7182    1.5475   -0.3911 C.ar    1  UNL1       -0.0234
     26 C          -4.4153    1.4632   -0.8604 C.ar    1  UNL1        0.1292
     27 F          -4.0662    1.9490   -2.0503 F       1  UNL1       -0.2051
     28 H          -0.3243   -0.7428   -2.9731 H       1  UNL1        0.1186
     29 H          -0.9392    0.8783   -2.8714 H       1  UNL1        0.1186
     30 H          -2.3708   -0.8887   -1.9926 H       1  UNL1        0.0488
     31 H          -1.7902   -2.1830   -0.2461 H       1  UNL1        0.0297
     32 H          -0.3541   -2.1216   -1.2694 H       1  UNL1        0.0297
     33 H          -0.6788   -1.2038    1.4982 H       1  UNL1        0.0486
     34 H           1.3403   -0.6544    2.5424 H       1  UNL1        0.0492
     35 H           2.3398   -2.1662    2.3089 H       1  UNL1        0.0492
     36 H           7.2292    1.9037   -1.3976 H       1  UNL1        0.0863
     37 H           6.1497    0.6282   -3.2103 H       1  UNL1        0.0846
     38 H           2.4370   -2.7980   -0.4979 H       1  UNL1        0.0478
     39 H           1.5604   -1.4496   -1.3917 H       1  UNL1        0.0478
     40 H           0.5853    0.7971    1.3328 H       1  UNL1        0.0576
     41 H           0.6147    0.7782   -0.4590 H       1  UNL1        0.0576
     42 H          -1.8632    1.7055   -1.2257 H       1  UNL1        0.0663
     43 H          -3.0143   -0.1190    1.7561 H       1  UNL1        0.0651
     44 H          -7.0596    1.1160    1.1770 H       1  UNL1        0.0647
     45 H          -6.4537    2.0280   -1.0320 H       1  UNL1        0.0647
@<TRIPOS>BOND
     1     1     2    1
     2     2     3    1
     3     3     4    1
     4     4     5    1
     5     5     6    1
     6     6     7    1
     7     7     8   ar
     8     8     9   ar
     9     9    10   ar
    10    10    11   ar
    11    11    12   ar
    12    12    13   ar
    13    13    14   ar
    14    14    15   ar
    15    15    16    1
    16     4    17    1
    17    17    18    1
    18    18    19    1
    19    19    20    1
    20    20    21   ar
    21    21    22   ar
    22    22    23    1
    23    22    24   ar
    24    24    25   ar
    25    25    26   ar
    26    26    27    1
    27    19     2    1
    28    26    20   ar
    29    16     5    1
    30    15     7   ar
    31    14     9   ar
    32     1    28    1
    33     1    29    1
    34     2    30    1
    35     3    31    1
    36     3    32    1
    37     4    33    1
    38     6    34    1
    39     6    35    1
    40    11    36    1
    41    12    37    1
    42    16    38    1
    43    16    39    1
    44    17    40    1
    45    17    41    1
    46    19    42    1
    47    21    43    1
    48    24    44    1
    49    25    45    1
