@<TRIPOS>MOLECULE
*****
 40 44 0 0 0
SMALL
GASTEIGER

@<TRIPOS>ATOM
      1 C           0.7165   -1.8531   -0.9566 C.3     1  UNL1        0.1677
      2 O           2.0634   -1.4628   -1.2761 O.3     1  UNL1       -0.4765
      3 C           2.3671   -0.2906   -0.6032 C.ar    1  UNL1        0.1668
      4 C           3.4949    0.4340   -0.2034 C.ar    1  UNL1        0.1588
      5 O           4.7270   -0.1276   -0.5495 O.3     1  UNL1       -0.5033
      6 C           3.3437    1.6230    0.4871 C.ar    1  UNL1       -0.0162
      7 C           2.0778    2.1098    0.7905 C.ar    1  UNL1       -0.0546
      8 C           0.9579    1.4325    0.4179 C.ar    1  UNL1       -0.0383
      9 C           1.1643    0.2752   -0.2552 C.ar    1  UNL1        0.0116
     10 C           0.0078   -0.5513   -0.7136 C.3     1  UNL1        0.0488
     11 C          -0.5587    0.0718   -1.9422 C.3     1  UNL1       -0.0263
     12 C          -2.0221    0.3871   -1.7604 C.3     1  UNL1       -0.0002
     13 N          -2.3073    1.1744   -0.6064 N.3     1  UNL1       -0.3018
     14 C          -3.6894    0.9276   -0.2313 C.3     1  UNL1       -0.0125
     15 C          -1.4615    0.8948    0.5403 C.3     1  UNL1        0.0179
     16 C          -0.3961    1.9156    0.7208 C.3     1  UNL1       -0.0113
     17 C          -0.9611   -0.5371    0.4121 C.3     1  UNL1       -0.0111
     18 C          -0.3443   -1.0460    1.6728 C.3     1  UNL1       -0.0410
     19 C          -0.0139   -2.4984    1.4957 C.3     1  UNL1        0.0099
     20 C           0.6760   -2.7620    0.1977 C.2     1  UNL1        0.1744
     21 O           1.2714   -3.8170    0.0427 O.2     1  UNL1       -0.2934
     22 H           0.3125   -2.3236   -1.8761 H       1  UNL1        0.0823
     23 H           5.5331   -0.0846    0.0526 H       1  UNL1        0.2923
     24 H           4.2636    2.1543    0.7786 H       1  UNL1        0.0655
     25 H           2.0036    3.0523    1.3371 H       1  UNL1        0.0622
     26 H          -0.0188    0.9767   -2.2838 H       1  UNL1        0.0287
     27 H          -0.5096   -0.6784   -2.7630 H       1  UNL1        0.0287
     28 H          -2.5980   -0.5529   -1.8077 H       1  UNL1        0.0427
     29 H          -2.3177    0.9948   -2.6564 H       1  UNL1        0.0427
     30 H          -3.7328   -0.1223    0.1307 H       1  UNL1        0.0391
     31 H          -4.3819    1.1101   -1.0616 H       1  UNL1        0.0391
     32 H          -3.8870    1.5874    0.6481 H       1  UNL1        0.0391
     33 H          -2.0790    0.8915    1.4637 H       1  UNL1        0.0469
     34 H          -0.6371    2.7849    0.0578 H       1  UNL1        0.0329
     35 H          -0.3914    2.3579    1.7545 H       1  UNL1        0.0329
     36 H          -1.8487   -1.1480    0.1778 H       1  UNL1        0.0326
     37 H          -1.1123   -0.9495    2.4660 H       1  UNL1        0.0273
     38 H           0.5274   -0.4822    2.0071 H       1  UNL1        0.0273
     39 H          -0.9529   -3.0837    1.5851 H       1  UNL1        0.0343
     40 H           0.7134   -2.7847    2.3100 H       1  UNL1        0.0343
@<TRIPOS>BOND
     1     1     2    1
     2     2     3    1
     3     3     4   ar
     4     4     5    1
     5     4     6   ar
     6     6     7   ar
     7     7     8   ar
     8     8     9   ar
     9     9    10    1
    10    10    11    1
    11    11    12    1
    12    12    13    1
    13    13    14    1
    14    13    15    1
    15    15    16    1
    16    15    17    1
    17    17    18    1
    18    18    19    1
    19    19    20    1
    20    20    21    2
    21    10     1    1
    22    17    10    1
    23    20     1    1
    24     9     3   ar
    25    16     8    1
    26     1    22    1
    27     5    23    1
    28     6    24    1
    29     7    25    1
    30    11    26    1
    31    11    27    1
    32    12    28    1
    33    12    29    1
    34    14    30    1
    35    14    31    1
    36    14    32    1
    37    15    33    1
    38    16    34    1
    39    16    35    1
    40    17    36    1
    41    18    37    1
    42    18    38    1
    43    19    39    1
    44    19    40    1
