@<TRIPOS>MOLECULE
*****
 49 51 0 0 0
SMALL
GASTEIGER

@<TRIPOS>ATOM
      1 C          -0.8823    1.2030    3.0608 C.3     1  UNL1        0.0790
      2 O          -2.1786    0.7501    2.7334 O.3     1  UNL1       -0.4913
      3 C          -2.4148    0.2611    1.4656 C.ar    1  UNL1        0.1658
      4 C          -1.4343    0.2030    0.5125 C.ar    1  UNL1       -0.0068
      5 C          -1.6744   -0.2937   -0.7730 C.ar    1  UNL1        0.0090
      6 C          -0.5693   -0.3199   -1.7270 C.ar    1  UNL1        0.0901
      7 C          -0.6917   -0.7866   -3.0147 C.ar    1  UNL1        0.0559
      8 N           0.3298   -0.8154   -3.9078 N.ar    1  UNL1       -0.2338
      9 C           1.5270   -0.3615   -3.5079 C.ar    1  UNL1        0.1574
     10 N           2.7288   -0.2499   -4.1268 N.ar    1  UNL1       -0.3438
     11 C           3.6081    0.2769   -3.2594 C.ar    1  UNL1        0.0178
     12 C           3.0072    0.5274   -2.0422 C.ar    1  UNL1        0.0815
     13 C           3.5929    1.0926   -0.8366 C.2     1  UNL1        0.2478
     14 O           4.1287    2.2389   -0.9002 O.2     1  UNL1       -0.2701
     15 N           3.6223    0.4688    0.4318 N.am    1  UNL1       -0.3089
     16 C           4.2279    1.0922    1.6026 C.3     1  UNL1        0.0178
     17 C           3.1938    1.3805    2.6696 C.3     1  UNL1       -0.0469
     18 C           5.3640    0.3025    2.1494 C.3     1  UNL1       -0.0469
     19 C           1.6884    0.1178   -2.2145 C.ar    1  UNL1        0.1201
     20 N           0.6635    0.1349   -1.3530 N.ar    1  UNL1       -0.2413
     21 C          -2.9336   -0.7320   -1.0748 C.ar    1  UNL1       -0.0068
     22 C          -3.9633   -0.6886   -0.1274 C.ar    1  UNL1        0.1658
     23 O          -5.2184   -1.1438   -0.4832 O.3     1  UNL1       -0.4913
     24 C          -5.4553   -1.6401   -1.7753 C.3     1  UNL1        0.0790
     25 C          -3.6675   -0.1906    1.1182 C.ar    1  UNL1        0.2035
     26 O          -4.6523   -0.1299    2.0811 O.3     1  UNL1       -0.4885
     27 C          -4.8857   -1.2083    2.9793 C.3     1  UNL1        0.0791
     28 H          -0.1159    0.4572    2.7313 H       1  UNL1        0.0660
     29 H          -0.6147    2.1590    2.5556 H       1  UNL1        0.0660
     30 H          -0.7384    1.2744    4.1648 H       1  UNL1        0.0660
     31 H          -0.4414    0.5420    0.7280 H       1  UNL1        0.0662
     32 H          -1.6764   -1.1570   -3.3348 H       1  UNL1        0.0852
     33 H           2.8907   -0.5442   -5.1272 H       1  UNL1        0.1668
     34 H           4.6591    0.4893   -3.4603 H       1  UNL1        0.0816
     35 H           3.1856   -0.4785    0.5098 H       1  UNL1        0.1493
     36 H           4.6056    2.0784    1.2651 H       1  UNL1        0.0493
     37 H           2.1917    1.0038    2.3810 H       1  UNL1        0.0247
     38 H           3.5536    0.9486    3.6197 H       1  UNL1        0.0247
     39 H           3.0627    2.4762    2.8575 H       1  UNL1        0.0247
     40 H           5.5073   -0.6043    1.4929 H       1  UNL1        0.0247
     41 H           6.2978    0.8766    2.0521 H       1  UNL1        0.0247
     42 H           5.2203   -0.0047    3.2088 H       1  UNL1        0.0247
     43 H          -3.1605   -1.1225   -2.0540 H       1  UNL1        0.0662
     44 H          -5.4515   -0.8452   -2.5485 H       1  UNL1        0.0660
     45 H          -6.4749   -2.1044   -1.7969 H       1  UNL1        0.0660
     46 H          -4.7297   -2.4615   -2.0403 H       1  UNL1        0.0660
     47 H          -5.0454   -0.8590    4.0177 H       1  UNL1        0.0660
     48 H          -3.9806   -1.8723    2.9814 H       1  UNL1        0.0660
     49 H          -5.8059   -1.7410    2.6772 H       1  UNL1        0.0660
@<TRIPOS>BOND
     1     1     2    1
     2     2     3    1
     3     3     4   ar
     4     4     5   ar
     5     5     6    1
     6     6     7   ar
     7     7     8   ar
     8     8     9   ar
     9     9    10   ar
    10    10    11   ar
    11    11    12   ar
    12    12    13    1
    13    13    14    2
    14    13    15   am
    15    15    16    1
    16    16    17    1
    17    16    18    1
    18    12    19   ar
    19    19    20   ar
    20     5    21   ar
    21    21    22   ar
    22    22    23    1
    23    23    24    1
    24    22    25   ar
    25    25    26    1
    26    26    27    1
    27    25     3   ar
    28    20     6   ar
    29    19     9   ar
    30     1    28    1
    31     1    29    1
    32     1    30    1
    33     4    31    1
    34     7    32    1
    35    10    33    1
    36    11    34    1
    37    15    35    1
    38    16    36    1
    39    17    37    1
    40    17    38    1
    41    17    39    1
    42    18    40    1
    43    18    41    1
    44    18    42    1
    45    21    43    1
    46    24    44    1
    47    24    45    1
    48    24    46    1
    49    27    47    1
    50    27    48    1
    51    27    49    1
