@<TRIPOS>MOLECULE
*****
 37 40 0 0 0
SMALL
GASTEIGER

@<TRIPOS>ATOM
      1 O           0.0437   -1.2610    0.2898 O.2     1  UNL1       -0.2751
      2 C           0.2688   -0.3938    1.1693 C.2     1  UNL1        0.2219
      3 C          -0.8688    0.3860    1.7748 C.3     1  UNL1        0.0500
      4 C          -2.1255   -0.0634    1.1642 C.ar    1  UNL1       -0.0308
      5 C          -2.9606   -0.8896    1.8818 C.ar    1  UNL1       -0.0575
      6 C          -4.1452   -1.3223    1.3259 C.ar    1  UNL1       -0.0609
      7 C          -4.4583   -0.9043    0.0453 C.ar    1  UNL1       -0.0526
      8 C          -3.6106   -0.0727   -0.6682 C.ar    1  UNL1        0.0005
      9 C          -3.9229    0.3480   -1.9535 C.ar    1  UNL1        0.0353
     10 N          -3.1055    1.1564   -2.6557 N.ar    1  UNL1       -0.2626
     11 C          -1.9402    1.5935   -2.1334 C.ar    1  UNL1        0.0282
     12 C          -1.5981    1.1926   -0.8531 C.ar    1  UNL1       -0.0356
     13 C          -2.4215    0.3649   -0.1170 C.ar    1  UNL1       -0.0114
     14 N           1.6204   -0.1865    1.5592 N.am    1  UNL1       -0.2791
     15 C           2.6195   -0.9766    0.9247 C.ar    1  UNL1        0.0839
     16 S           3.0939   -2.6243    1.4900 S.2     1  UNL1       -0.0797
     17 C           4.3663   -2.9059    0.1761 C.ar    1  UNL1       -0.0035
     18 C           4.2782   -1.7359   -0.5186 C.ar    1  UNL1        0.0605
     19 CL          5.3915   -1.5845   -1.9431 Cl      1  UNL1       -0.0822
     20 C           3.4266   -0.7628   -0.1749 C.ar    1  UNL1        0.0658
     21 C           3.3394    0.5399   -0.9017 C.ar    1  UNL1        0.1652
     22 N           4.0274    0.9143   -1.9768 N.ar    1  UNL1       -0.1295
     23 N           3.6939    2.1598   -2.3301 N.ar    1  UNL1       -0.1377
     24 C           2.7788    2.5780   -1.4619 C.ar    1  UNL1        0.1175
     25 N           2.5644    1.5600   -0.5741 N.ar    1  UNL1       -0.3276
     26 H          -0.6236    1.4497    1.6068 H       1  UNL1        0.0407
     27 H          -0.8459    0.1171    2.8572 H       1  UNL1        0.0407
     28 H          -2.7446   -1.2339    2.8841 H       1  UNL1        0.0621
     29 H          -4.8439   -1.9713    1.8357 H       1  UNL1        0.0618
     30 H          -5.3871   -1.2324   -0.4146 H       1  UNL1        0.0624
     31 H          -4.8728   -0.0161   -2.3624 H       1  UNL1        0.0836
     32 H          -1.2906    2.2470   -2.7146 H       1  UNL1        0.0830
     33 H          -0.6685    1.5343   -0.4237 H       1  UNL1        0.0639
     34 H           1.7993    0.5349    2.2904 H       1  UNL1        0.1553
     35 H           4.9266   -3.7703    0.1033 H       1  UNL1        0.0709
     36 H           2.3098    3.5428   -1.4762 H       1  UNL1        0.1046
     37 H           1.8856    1.6885    0.1922 H       1  UNL1        0.1683
@<TRIPOS>BOND
     1     1     2    2
     2     2     3    1
     3     3     4    1
     4     4     5   ar
     5     5     6   ar
     6     6     7   ar
     7     7     8   ar
     8     8     9   ar
     9     9    10   ar
    10    10    11   ar
    11    11    12   ar
    12    12    13   ar
    13     2    14   am
    14    14    15    1
    15    15    16   ar
    16    16    17   ar
    17    17    18   ar
    18    18    19    1
    19    18    20   ar
    20    20    21    1
    21    21    22   ar
    22    22    23   ar
    23    23    24   ar
    24    24    25   ar
    25    13     4   ar
    26    20    15   ar
    27    25    21   ar
    28    13     8   ar
    29     3    26    1
    30     3    27    1
    31     5    28    1
    32     6    29    1
    33     7    30    1
    34     9    31    1
    35    11    32    1
    36    12    33    1
    37    14    34    1
    38    17    35    1
    39    24    36    1
    40    25    37    1
