
     RDKit          3D

 37 40  0  0  0  0  0  0  0  0999 V2000
    0.0437   -1.2610    0.2898 O   0  0  0  0  0  0  0  0  0  0  0  0
    0.2688   -0.3938    1.1693 C   0  0  0  0  0  0  0  0  0  0  0  0
   -0.8688    0.3860    1.7748 C   0  0  0  0  0  0  0  0  0  0  0  0
   -2.1255   -0.0634    1.1642 C   0  0  0  0  0  0  0  0  0  0  0  0
   -2.9606   -0.8896    1.8818 C   0  0  0  0  0  0  0  0  0  0  0  0
   -4.1452   -1.3223    1.3259 C   0  0  0  0  0  0  0  0  0  0  0  0
   -4.4583   -0.9043    0.0453 C   0  0  0  0  0  0  0  0  0  0  0  0
   -3.6106   -0.0727   -0.6682 C   0  0  0  0  0  0  0  0  0  0  0  0
   -3.9229    0.3480   -1.9535 C   0  0  0  0  0  0  0  0  0  0  0  0
   -3.1055    1.1564   -2.6557 N   0  0  0  0  0  0  0  0  0  0  0  0
   -1.9402    1.5935   -2.1334 C   0  0  0  0  0  0  0  0  0  0  0  0
   -1.5981    1.1926   -0.8531 C   0  0  0  0  0  0  0  0  0  0  0  0
   -2.4215    0.3649   -0.1170 C   0  0  0  0  0  0  0  0  0  0  0  0
    1.6204   -0.1865    1.5592 N   0  0  0  0  0  0  0  0  0  0  0  0
    2.6195   -0.9766    0.9247 C   0  0  0  0  0  0  0  0  0  0  0  0
    3.0939   -2.6243    1.4900 S   0  0  0  0  0  0  0  0  0  0  0  0
    4.3663   -2.9059    0.1761 C   0  0  0  0  0  0  0  0  0  0  0  0
    4.2782   -1.7359   -0.5186 C   0  0  0  0  0  0  0  0  0  0  0  0
    5.3915   -1.5845   -1.9431 Cl  0  0  0  0  0  0  0  0  0  0  0  0
    3.4266   -0.7628   -0.1749 C   0  0  0  0  0  0  0  0  0  0  0  0
    3.3394    0.5399   -0.9017 C   0  0  0  0  0  0  0  0  0  0  0  0
    4.0274    0.9143   -1.9768 N   0  0  0  0  0  0  0  0  0  0  0  0
    3.6939    2.1598   -2.3301 N   0  0  0  0  0  0  0  0  0  0  0  0
    2.7788    2.5780   -1.4619 C   0  0  0  0  0  0  0  0  0  0  0  0
    2.5644    1.5600   -0.5741 N   0  0  0  0  0  0  0  0  0  0  0  0
   -0.6236    1.4497    1.6068 H   0  0  0  0  0  0  0  0  0  0  0  0
   -0.8459    0.1171    2.8572 H   0  0  0  0  0  0  0  0  0  0  0  0
   -2.7446   -1.2339    2.8841 H   0  0  0  0  0  0  0  0  0  0  0  0
   -4.8439   -1.9713    1.8357 H   0  0  0  0  0  0  0  0  0  0  0  0
   -5.3871   -1.2324   -0.4146 H   0  0  0  0  0  0  0  0  0  0  0  0
   -4.8728   -0.0161   -2.3624 H   0  0  0  0  0  0  0  0  0  0  0  0
   -1.2906    2.2470   -2.7146 H   0  0  0  0  0  0  0  0  0  0  0  0
   -0.6685    1.5343   -0.4237 H   0  0  0  0  0  0  0  0  0  0  0  0
    1.7993    0.5349    2.2904 H   0  0  0  0  0  0  0  0  0  0  0  0
    4.9266   -3.7703    0.1033 H   0  0  0  0  0  0  0  0  0  0  0  0
    2.3098    3.5428   -1.4762 H   0  0  0  0  0  0  0  0  0  0  0  0
    1.8856    1.6885    0.1922 H   0  0  0  0  0  0  0  0  0  0  0  0
  1  2  2  0
  2  3  1  0
  3  4  1  0
  4  5  2  0
  5  6  1  0
  6  7  2  0
  7  8  1  0
  8  9  2  0
  9 10  1  0
 10 11  2  0
 11 12  1  0
 12 13  2  0
  2 14  1  0
 14 15  1  0
 15 16  1  0
 16 17  1  0
 17 18  2  0
 18 19  1  0
 18 20  1  0
 20 21  1  0
 21 22  2  0
 22 23  1  0
 23 24  2  0
 24 25  1  0
 13  4  1  0
 20 15  2  0
 25 21  1  0
 13  8  1  0
  3 26  1  0
  3 27  1  0
  5 28  1  0
  6 29  1  0
  7 30  1  0
  9 31  1  0
 11 32  1  0
 12 33  1  0
 14 34  1  0
 17 35  1  0
 24 36  1  0
 25 37  1  0
M  END
$$$$
