@<TRIPOS>MOLECULE
*****
 32 34 0 0 0
SMALL
GASTEIGER

@<TRIPOS>ATOM
      1 C           3.8176    1.9485   -0.8619 C.3     1  UNL1        0.0790
      2 O           4.1350    0.7034   -0.3071 O.3     1  UNL1       -0.4914
      3 C           3.2014   -0.2230    0.1365 C.ar    1  UNL1        0.1619
      4 C           1.8423   -0.0107    0.0762 C.ar    1  UNL1       -0.0057
      5 C           0.9193   -0.9545    0.5274 C.ar    1  UNL1        0.0210
      6 C          -0.4968   -0.6744    0.4379 C.ar    1  UNL1        0.1416
      7 N          -0.9221    0.5128   -0.0879 N.ar    1  UNL1       -0.2290
      8 C          -2.2273    0.8196   -0.1924 C.ar    1  UNL1        0.0785
      9 C          -2.6472    2.0357   -0.7314 C.ar    1  UNL1       -0.0355
     10 C          -3.9822    2.3588   -0.8425 C.ar    1  UNL1       -0.0597
     11 C          -4.9291    1.4377   -0.4011 C.ar    1  UNL1       -0.0609
     12 C          -4.5024    0.2388    0.1300 C.ar    1  UNL1       -0.0474
     13 C          -3.1684   -0.0880    0.2428 C.ar    1  UNL1        0.0647
     14 C          -2.7607   -1.2922    0.7768 C.ar    1  UNL1        0.2595
     15 O          -3.5953   -2.1480    1.1858 O.2     1  UNL1       -0.2671
     16 N          -1.4293   -1.5409    0.8543 N.ar    1  UNL1       -0.3064
     17 C           1.4313   -2.1100    1.0366 C.ar    1  UNL1       -0.0474
     18 C           2.8009   -2.3723    1.1193 C.ar    1  UNL1       -0.0159
     19 C           3.6741   -1.4083    0.6603 C.ar    1  UNL1        0.1585
     20 O           5.0620   -1.6246    0.7216 O.3     1  UNL1       -0.5033
     21 H           2.8920    2.4004   -0.4679 H       1  UNL1        0.0660
     22 H           3.8582    1.9583   -1.9802 H       1  UNL1        0.0660
     23 H           4.6439    2.6532   -0.5509 H       1  UNL1        0.0660
     24 H           1.4820    0.9317   -0.3406 H       1  UNL1        0.0662
     25 H          -1.9204    2.7564   -1.0765 H       1  UNL1        0.0639
     26 H          -4.3281    3.3095   -1.2634 H       1  UNL1        0.0618
     27 H          -5.9887    1.6481   -0.4684 H       1  UNL1        0.0618
     28 H          -5.2242   -0.4868    0.4771 H       1  UNL1        0.0626
     29 H          -1.1666   -2.4579    1.2621 H       1  UNL1        0.1704
     30 H           0.7926   -2.8978    1.4098 H       1  UNL1        0.0626
     31 H           3.1799   -3.3069    1.5321 H       1  UNL1        0.0655
     32 H           5.5564   -2.1168   -0.0176 H       1  UNL1        0.2923
@<TRIPOS>BOND
     1     1     2    1
     2     2     3    1
     3     3     4   ar
     4     4     5   ar
     5     5     6    1
     6     6     7   ar
     7     7     8   ar
     8     8     9   ar
     9     9    10   ar
    10    10    11   ar
    11    11    12   ar
    12    12    13   ar
    13    13    14   ar
    14    14    15    2
    15    14    16   ar
    16     5    17   ar
    17    17    18   ar
    18    18    19   ar
    19    19    20    1
    20    19     3   ar
    21    16     6   ar
    22    13     8   ar
    23     1    21    1
    24     1    22    1
    25     1    23    1
    26     4    24    1
    27     9    25    1
    28    10    26    1
    29    11    27    1
    30    12    28    1
    31    16    29    1
    32    17    30    1
    33    18    31    1
    34    20    32    1
