@<TRIPOS>MOLECULE
*****
 71 75 0 0 0
SMALL
GASTEIGER

@<TRIPOS>ATOM
      1 C          -3.7744    0.2453    1.7646 C.3     1  UNL1       -0.0235
      2 C          -4.7875    0.5769    0.6534 C.3     1  UNL1        0.1229
      3 O          -5.6021   -0.5528    0.3966 O.3     1  UNL1       -0.4831
      4 C          -5.0224   -1.7084   -0.2130 C.ar    1  UNL1        0.1426
      5 C          -3.7037   -1.7396   -0.5969 C.ar    1  UNL1        0.0121
      6 C          -3.1692   -2.8524   -1.1281 C.ar    1  UNL1        0.0901
      7 N          -1.9056   -3.1254   -1.5972 N.ar    1  UNL1       -0.2924
      8 C          -1.6684   -3.9836   -2.7297 C.ar    1  UNL1        0.1019
      9 N          -0.3671   -4.0066   -2.8969 N.ar    1  UNL1       -0.2353
     10 C           0.2810   -3.2584   -2.0031 C.ar    1  UNL1        0.0899
     11 C           1.6120   -2.9863   -1.7776 C.ar    1  UNL1       -0.0265
     12 C           2.0403   -2.1340   -0.7127 C.ar    1  UNL1       -0.0156
     13 C           3.4168   -1.9397   -0.4822 C.ar    1  UNL1       -0.0131
     14 C           4.3795   -2.9017   -0.6968 C.ar    1  UNL1       -0.0357
     15 C           5.6590   -2.8825   -0.5429 C.ar    1  UNL1        0.0303
     16 N           6.2312   -1.6677   -0.0778 N.ar    1  UNL1       -0.2405
     17 C           5.3422   -0.6535    0.1609 C.ar    1  UNL1        0.1193
     18 N           5.9776    0.5658    0.6827 N.pl3   1  UNL1       -0.3278
     19 C           6.5963    1.4144   -0.3109 C.3     1  UNL1        0.0232
     20 C           7.3863    2.5299    0.3927 C.3     1  UNL1        0.0138
     21 N           7.9603    3.3714   -0.6665 N.3     1  UNL1       -0.3069
     22 C           8.9473    2.5581   -1.3809 C.3     1  UNL1       -0.0130
     23 C           8.6730    4.4823   -0.0424 C.3     1  UNL1       -0.0130
     24 C           4.0261   -0.7313   -0.0154 C.ar    1  UNL1       -0.0142
     25 C           1.0220   -1.6502    0.0094 C.ar    1  UNL1       -0.0519
     26 C          -0.3198   -1.8772   -0.1536 C.ar    1  UNL1       -0.0351
     27 C          -0.7106   -2.7313   -1.2196 C.ar    1  UNL1        0.0738
     28 S          -4.5633   -4.0386   -1.1513 S.2     1  UNL1       -0.0624
     29 C          -5.7446   -2.8413   -0.4037 C.ar    1  UNL1        0.1172
     30 C          -7.1638   -3.1883   -0.1621 C.2     1  UNL1        0.2518
     31 N          -7.5442   -4.5535   -0.3530 N.am    1  UNL1       -0.3248
     32 O          -7.9858   -2.3274    0.1870 O.2     1  UNL1       -0.2697
     33 C          -5.6491    1.6761    1.1015 C.ar    1  UNL1        0.0040
     34 C          -6.7277    1.3767    1.9236 C.ar    1  UNL1       -0.0546
     35 C          -7.5418    2.3542    2.4047 C.ar    1  UNL1       -0.0614
     36 C          -7.2875    3.6567    2.0685 C.ar    1  UNL1       -0.0612
     37 C          -6.2449    3.9667    1.2708 C.ar    1  UNL1       -0.0497
     38 C          -5.3694    2.9856    0.7405 C.ar    1  UNL1        0.0614
     39 C          -4.2712    3.3657   -0.1498 C.3     1  UNL1        0.4178
     40 F          -4.4232    2.7902   -1.4173 F       1  UNL1       -0.1659
     41 F          -3.0180    3.0619    0.3005 F       1  UNL1       -0.1659
     42 F          -4.3018    4.7415   -0.3663 F       1  UNL1       -0.1659
     43 H          -2.8011    0.7168    1.6140 H       1  UNL1        0.0269
     44 H          -3.6099   -0.8564    1.7067 H       1  UNL1        0.0269
     45 H          -4.1647    0.4529    2.7602 H       1  UNL1        0.0269
     46 H          -4.1458    0.8669   -0.1872 H       1  UNL1        0.0781
     47 H          -3.0454   -0.8417   -0.4696 H       1  UNL1        0.0681
     48 H          -2.4888   -4.4295   -3.2496 H       1  UNL1        0.1033
     49 H           2.3810   -3.4008   -2.3816 H       1  UNL1        0.0645
     50 H           3.9121   -3.8628   -1.1019 H       1  UNL1        0.0639
     51 H           6.3762   -3.6615   -0.7081 H       1  UNL1        0.0830
     52 H           5.9468    0.7316    1.6940 H       1  UNL1        0.1475
     53 H           7.3610    0.8762   -0.9279 H       1  UNL1        0.0474
     54 H           5.8291    1.9300   -0.8993 H       1  UNL1        0.0474
     55 H           8.1694    2.1202    1.0266 H       1  UNL1        0.0442
     56 H           6.7233    3.1334    1.0227 H       1  UNL1        0.0442
     57 H           8.3950    2.2297   -2.3173 H       1  UNL1        0.0391
     58 H           9.8307    3.1721   -1.5994 H       1  UNL1        0.0391
     59 H           9.2153    1.6882   -0.7652 H       1  UNL1        0.0391
     60 H           9.1383    5.0596   -0.8532 H       1  UNL1        0.0391
     61 H           7.9696    5.1465    0.5024 H       1  UNL1        0.0391
     62 H           9.4831    4.1010    0.6537 H       1  UNL1        0.0391
     63 H           3.3472    0.0954    0.1712 H       1  UNL1        0.0658
     64 H           1.2903   -0.9341    0.8531 H       1  UNL1        0.0624
     65 H          -1.0958   -1.4821    0.4649 H       1  UNL1        0.0639
     66 H          -7.7377   -4.8689   -1.3334 H       1  UNL1        0.1453
     67 H          -7.6190   -5.2124    0.4141 H       1  UNL1        0.1453
     68 H          -6.9478    0.3318    2.1895 H       1  UNL1        0.0622
     69 H          -8.3824    2.1264    3.0470 H       1  UNL1        0.0618
     70 H          -7.9777    4.4093    2.4948 H       1  UNL1        0.0618
     71 H          -6.0360    4.9749    0.9864 H       1  UNL1        0.0623
@<TRIPOS>BOND
     1     1     2    1
     2     2     3    1
     3     3     4    1
     4     4     5   ar
     5     5     6   ar
     6     6     7    1
     7     7     8   ar
     8     8     9   ar
     9     9    10   ar
    10    10    11   ar
    11    11    12   ar
    12    12    13    1
    13    13    14   ar
    14    14    15   ar
    15    15    16   ar
    16    16    17   ar
    17    17    18    1
    18    18    19    1
    19    19    20    1
    20    20    21    1
    21    21    22    1
    22    21    23    1
    23    17    24   ar
    24    12    25   ar
    25    25    26   ar
    26    26    27   ar
    27     6    28   ar
    28    28    29   ar
    29    29    30    1
    30    30    31   am
    31    30    32    2
    32     2    33    1
    33    33    34   ar
    34    34    35   ar
    35    35    36   ar
    36    36    37   ar
    37    37    38   ar
    38    38    39    1
    39    39    40    1
    40    39    41    1
    41    39    42    1
    42    29     4   ar
    43    38    33   ar
    44    27     7   ar
    45    27    10   ar
    46    24    13   ar
    47     1    43    1
    48     1    44    1
    49     1    45    1
    50     2    46    1
    51     5    47    1
    52     8    48    1
    53    11    49    1
    54    14    50    1
    55    15    51    1
    56    18    52    1
    57    19    53    1
    58    19    54    1
    59    20    55    1
    60    20    56    1
    61    22    57    1
    62    22    58    1
    63    22    59    1
    64    23    60    1
    65    23    61    1
    66    23    62    1
    67    24    63    1
    68    25    64    1
    69    26    65    1
    70    31    66    1
    71    31    67    1
    72    34    68    1
    73    35    69    1
    74    36    70    1
    75    37    71    1
