
     RDKit          3D

 71 75  0  0  0  0  0  0  0  0999 V2000
   -3.7744    0.2453    1.7646 C   0  0  0  0  0  0  0  0  0  0  0  0
   -4.7875    0.5769    0.6534 C   0  0  1  0  0  0  0  0  0  0  0  0
   -5.6021   -0.5528    0.3966 O   0  0  0  0  0  0  0  0  0  0  0  0
   -5.0224   -1.7084   -0.2130 C   0  0  0  0  0  0  0  0  0  0  0  0
   -3.7037   -1.7396   -0.5969 C   0  0  0  0  0  0  0  0  0  0  0  0
   -3.1692   -2.8524   -1.1281 C   0  0  0  0  0  0  0  0  0  0  0  0
   -1.9056   -3.1254   -1.5972 N   0  0  0  0  0  0  0  0  0  0  0  0
   -1.6684   -3.9836   -2.7297 C   0  0  0  0  0  0  0  0  0  0  0  0
   -0.3671   -4.0066   -2.8969 N   0  0  0  0  0  0  0  0  0  0  0  0
    0.2810   -3.2584   -2.0031 C   0  0  0  0  0  0  0  0  0  0  0  0
    1.6120   -2.9863   -1.7776 C   0  0  0  0  0  0  0  0  0  0  0  0
    2.0403   -2.1340   -0.7127 C   0  0  0  0  0  0  0  0  0  0  0  0
    3.4168   -1.9397   -0.4822 C   0  0  0  0  0  0  0  0  0  0  0  0
    4.3795   -2.9017   -0.6968 C   0  0  0  0  0  0  0  0  0  0  0  0
    5.6590   -2.8825   -0.5429 C   0  0  0  0  0  0  0  0  0  0  0  0
    6.2312   -1.6677   -0.0778 N   0  0  0  0  0  0  0  0  0  0  0  0
    5.3422   -0.6535    0.1609 C   0  0  0  0  0  0  0  0  0  0  0  0
    5.9776    0.5658    0.6827 N   0  0  0  0  0  0  0  0  0  0  0  0
    6.5963    1.4144   -0.3109 C   0  0  0  0  0  0  0  0  0  0  0  0
    7.3863    2.5299    0.3927 C   0  0  0  0  0  0  0  0  0  0  0  0
    7.9603    3.3714   -0.6665 N   0  0  0  0  0  0  0  0  0  0  0  0
    8.9473    2.5581   -1.3809 C   0  0  0  0  0  0  0  0  0  0  0  0
    8.6730    4.4823   -0.0424 C   0  0  0  0  0  0  0  0  0  0  0  0
    4.0261   -0.7313   -0.0154 C   0  0  0  0  0  0  0  0  0  0  0  0
    1.0220   -1.6502    0.0094 C   0  0  0  0  0  0  0  0  0  0  0  0
   -0.3198   -1.8772   -0.1536 C   0  0  0  0  0  0  0  0  0  0  0  0
   -0.7106   -2.7313   -1.2196 C   0  0  0  0  0  0  0  0  0  0  0  0
   -4.5633   -4.0386   -1.1513 S   0  0  0  0  0  0  0  0  0  0  0  0
   -5.7446   -2.8413   -0.4037 C   0  0  0  0  0  0  0  0  0  0  0  0
   -7.1638   -3.1883   -0.1621 C   0  0  0  0  0  0  0  0  0  0  0  0
   -7.5442   -4.5535   -0.3530 N   0  0  0  0  0  0  0  0  0  0  0  0
   -7.9858   -2.3274    0.1870 O   0  0  0  0  0  0  0  0  0  0  0  0
   -5.6491    1.6761    1.1015 C   0  0  0  0  0  0  0  0  0  0  0  0
   -6.7277    1.3767    1.9236 C   0  0  0  0  0  0  0  0  0  0  0  0
   -7.5418    2.3542    2.4047 C   0  0  0  0  0  0  0  0  0  0  0  0
   -7.2875    3.6567    2.0685 C   0  0  0  0  0  0  0  0  0  0  0  0
   -6.2449    3.9667    1.2708 C   0  0  0  0  0  0  0  0  0  0  0  0
   -5.3694    2.9856    0.7405 C   0  0  0  0  0  0  0  0  0  0  0  0
   -4.2712    3.3657   -0.1498 C   0  0  0  0  0  0  0  0  0  0  0  0
   -4.4232    2.7902   -1.4173 F   0  0  0  0  0  0  0  0  0  0  0  0
   -3.0180    3.0619    0.3005 F   0  0  0  0  0  0  0  0  0  0  0  0
   -4.3018    4.7415   -0.3663 F   0  0  0  0  0  0  0  0  0  0  0  0
   -2.8011    0.7168    1.6140 H   0  0  0  0  0  0  0  0  0  0  0  0
   -3.6099   -0.8564    1.7067 H   0  0  0  0  0  0  0  0  0  0  0  0
   -4.1647    0.4529    2.7602 H   0  0  0  0  0  0  0  0  0  0  0  0
   -4.1458    0.8669   -0.1872 H   0  0  0  0  0  0  0  0  0  0  0  0
   -3.0454   -0.8417   -0.4696 H   0  0  0  0  0  0  0  0  0  0  0  0
   -2.4888   -4.4295   -3.2496 H   0  0  0  0  0  0  0  0  0  0  0  0
    2.3810   -3.4008   -2.3816 H   0  0  0  0  0  0  0  0  0  0  0  0
    3.9121   -3.8628   -1.1019 H   0  0  0  0  0  0  0  0  0  0  0  0
    6.3762   -3.6615   -0.7081 H   0  0  0  0  0  0  0  0  0  0  0  0
    5.9468    0.7316    1.6940 H   0  0  0  0  0  0  0  0  0  0  0  0
    7.3610    0.8762   -0.9279 H   0  0  0  0  0  0  0  0  0  0  0  0
    5.8291    1.9300   -0.8993 H   0  0  0  0  0  0  0  0  0  0  0  0
    8.1694    2.1202    1.0266 H   0  0  0  0  0  0  0  0  0  0  0  0
    6.7233    3.1334    1.0227 H   0  0  0  0  0  0  0  0  0  0  0  0
    8.3950    2.2297   -2.3173 H   0  0  0  0  0  0  0  0  0  0  0  0
    9.8307    3.1721   -1.5994 H   0  0  0  0  0  0  0  0  0  0  0  0
    9.2153    1.6882   -0.7652 H   0  0  0  0  0  0  0  0  0  0  0  0
    9.1383    5.0596   -0.8532 H   0  0  0  0  0  0  0  0  0  0  0  0
    7.9696    5.1465    0.5024 H   0  0  0  0  0  0  0  0  0  0  0  0
    9.4831    4.1010    0.6537 H   0  0  0  0  0  0  0  0  0  0  0  0
    3.3472    0.0954    0.1712 H   0  0  0  0  0  0  0  0  0  0  0  0
    1.2903   -0.9341    0.8531 H   0  0  0  0  0  0  0  0  0  0  0  0
   -1.0958   -1.4821    0.4649 H   0  0  0  0  0  0  0  0  0  0  0  0
   -7.7377   -4.8689   -1.3334 H   0  0  0  0  0  0  0  0  0  0  0  0
   -7.6190   -5.2124    0.4141 H   0  0  0  0  0  0  0  0  0  0  0  0
   -6.9478    0.3318    2.1895 H   0  0  0  0  0  0  0  0  0  0  0  0
   -8.3824    2.1264    3.0470 H   0  0  0  0  0  0  0  0  0  0  0  0
   -7.9777    4.4093    2.4948 H   0  0  0  0  0  0  0  0  0  0  0  0
   -6.0360    4.9749    0.9864 H   0  0  0  0  0  0  0  0  0  0  0  0
  1  2  1  0
  2  3  1  0
  3  4  1  0
  4  5  1  0
  5  6  2  0
  6  7  1  0
  7  8  1  0
  8  9  2  0
  9 10  1  0
 10 11  2  0
 11 12  1  0
 12 13  1  0
 13 14  2  0
 14 15  1  0
 15 16  2  0
 16 17  1  0
 17 18  1  0
 18 19  1  0
 19 20  1  0
 20 21  1  0
 21 22  1  0
 21 23  1  0
 17 24  2  0
 12 25  2  0
 25 26  1  0
 26 27  2  0
  6 28  1  0
 28 29  1  0
 29 30  1  0
 30 31  1  0
 30 32  2  0
  2 33  1  0
 33 34  2  0
 34 35  1  0
 35 36  2  0
 36 37  1  0
 37 38  2  0
 38 39  1  0
 39 40  1  0
 39 41  1  0
 39 42  1  0
 29  4  2  0
 38 33  1  0
 27  7  1  0
 27 10  1  0
 24 13  1  0
  1 43  1  0
  1 44  1  0
  1 45  1  0
  2 46  1  6
  5 47  1  0
  8 48  1  0
 11 49  1  0
 14 50  1  0
 15 51  1  0
 18 52  1  0
 19 53  1  0
 19 54  1  0
 20 55  1  0
 20 56  1  0
 22 57  1  0
 22 58  1  0
 22 59  1  0
 23 60  1  0
 23 61  1  0
 23 62  1  0
 24 63  1  0
 25 64  1  0
 26 65  1  0
 31 66  1  0
 31 67  1  0
 34 68  1  0
 35 69  1  0
 36 70  1  0
 37 71  1  0
M  END
$$$$
