@<TRIPOS>MOLECULE
*****
 57 60 0 0 0
SMALL
GASTEIGER

@<TRIPOS>ATOM
      1 C          -3.5861    0.8159   -3.4130 C.3     1  UNL1        0.0817
      2 O          -3.5013    0.1969   -2.1522 O.3     1  UNL1       -0.4676
      3 C          -2.3621   -0.5323   -1.8394 C.2     1  UNL1        0.3140
      4 O          -1.4537   -0.6092   -2.6905 O.2     1  UNL1       -0.2504
      5 C          -2.2407   -1.1864   -0.5440 C.3     1  UNL1        0.0980
      6 C          -2.4996   -0.2083    0.5621 C.3     1  UNL1        0.0258
      7 C          -3.7151   -0.6299    1.3591 C.3     1  UNL1       -0.0351
      8 C          -3.1817   -1.9127    2.0086 C.3     1  UNL1       -0.0358
      9 C          -1.6884   -1.6742    2.0276 C.3     1  UNL1        0.0128
     10 C          -0.9322   -2.5467    1.0518 C.3     1  UNL1       -0.0100
     11 C          -0.8384   -1.8403   -0.3305 C.3     1  UNL1        0.0757
     12 O           0.0650   -0.9864   -0.4274 O.3     1  UNL1       -0.3632
     13 C           1.0725   -0.3358   -0.8169 C.3     1  UNL1        0.1090
     14 C           0.9005    1.0465   -1.4181 C.ar    1  UNL1       -0.0145
     15 C           1.5335    1.4389   -2.5762 C.ar    1  UNL1       -0.0558
     16 C           1.3973    2.6932   -3.1355 C.ar    1  UNL1       -0.0614
     17 C           0.5801    3.6156   -2.5045 C.ar    1  UNL1       -0.0617
     18 C          -0.0609    3.2623   -1.3597 C.ar    1  UNL1       -0.0614
     19 C           0.0980    2.0007   -0.8280 C.ar    1  UNL1       -0.0558
     20 C           2.3201   -0.3267    0.0204 C.ar    1  UNL1       -0.0145
     21 C           3.5455   -0.4342   -0.5922 C.ar    1  UNL1       -0.0555
     22 C           4.7505   -0.4403    0.0988 C.ar    1  UNL1       -0.0585
     23 C           4.7063   -0.3333    1.4755 C.ar    1  UNL1       -0.0504
     24 C           5.9902   -0.3418    2.2413 C.3     1  UNL1       -0.0397
     25 C           3.4848   -0.2262    2.0867 C.ar    1  UNL1       -0.0585
     26 C           2.2976   -0.2211    1.3846 C.ar    1  UNL1       -0.0555
     27 N          -1.4821   -0.3060    1.6050 N.3     1  UNL1       -0.2985
     28 C          -1.8433    0.6620    2.6169 C.3     1  UNL1       -0.0122
     29 H          -3.8679    1.8957   -3.3620 H       1  UNL1        0.0661
     30 H          -2.6771    0.7118   -4.0113 H       1  UNL1        0.0661
     31 H          -4.4170    0.3056   -3.9624 H       1  UNL1        0.0661
     32 H          -3.0241   -1.9653   -0.4969 H       1  UNL1        0.0455
     33 H          -2.6162    0.8250    0.2617 H       1  UNL1        0.0471
     34 H          -4.4977   -0.8931    0.5969 H       1  UNL1        0.0281
     35 H          -4.0688    0.0903    2.0866 H       1  UNL1        0.0281
     36 H          -3.5958   -1.9985    3.0310 H       1  UNL1        0.0281
     37 H          -3.4131   -2.7437    1.3448 H       1  UNL1        0.0281
     38 H          -1.2474   -1.7795    3.0250 H       1  UNL1        0.0463
     39 H          -1.4133   -3.5084    1.0022 H       1  UNL1        0.0305
     40 H           0.0940   -2.6299    1.4238 H       1  UNL1        0.0305
     41 H          -0.8408   -2.6550   -1.0707 H       1  UNL1        0.0605
     42 H           1.4321   -0.9220   -1.7342 H       1  UNL1        0.0697
     43 H           2.1772    0.7396   -3.0919 H       1  UNL1        0.0621
     44 H           1.8899    3.0108   -4.0424 H       1  UNL1        0.0618
     45 H           0.4752    4.5886   -2.9447 H       1  UNL1        0.0618
     46 H          -0.7061    3.9956   -0.8622 H       1  UNL1        0.0618
     47 H          -0.4192    1.7673    0.0664 H       1  UNL1        0.0621
     48 H           3.6522   -0.5206   -1.6872 H       1  UNL1        0.0621
     49 H           5.6858   -0.5257   -0.4285 H       1  UNL1        0.0620
     50 H           6.6977    0.3299    1.7118 H       1  UNL1        0.0278
     51 H           5.8508    0.0522    3.2449 H       1  UNL1        0.0278
     52 H           6.4728   -1.3496    2.2482 H       1  UNL1        0.0278
     53 H           3.4403   -0.1413    3.1746 H       1  UNL1        0.0620
     54 H           1.3441   -0.1367    1.8937 H       1  UNL1        0.0621
     55 H          -2.3119    0.2245    3.5144 H       1  UNL1        0.0391
     56 H          -2.5520    1.4315    2.1995 H       1  UNL1        0.0391
     57 H          -0.8999    1.1607    2.9587 H       1  UNL1        0.0391
@<TRIPOS>BOND
     1     1     2    1
     2     2     3    1
     3     3     4    2
     4     3     5    1
     5     5     6    1
     6     6     7    1
     7     7     8    1
     8     8     9    1
     9     9    10    1
    10    10    11    1
    11    11    12    1
    12    12    13    1
    13    13    14    1
    14    14    15   ar
    15    15    16   ar
    16    16    17   ar
    17    17    18   ar
    18    18    19   ar
    19    13    20    1
    20    20    21   ar
    21    21    22   ar
    22    22    23   ar
    23    23    24    1
    24    23    25   ar
    25    25    26   ar
    26     9    27    1
    27    27    28    1
    28    11     5    1
    29    19    14   ar
    30    26    20   ar
    31    27     6    1
    32     1    29    1
    33     1    30    1
    34     1    31    1
    35     5    32    1
    36     6    33    1
    37     7    34    1
    38     7    35    1
    39     8    36    1
    40     8    37    1
    41     9    38    1
    42    10    39    1
    43    10    40    1
    44    11    41    1
    45    13    42    1
    46    15    43    1
    47    16    44    1
    48    17    45    1
    49    18    46    1
    50    19    47    1
    51    21    48    1
    52    22    49    1
    53    24    50    1
    54    24    51    1
    55    24    52    1
    56    25    53    1
    57    26    54    1
    58    28    55    1
    59    28    56    1
    60    28    57    1
