
     RDKit          3D

 57 60  0  0  0  0  0  0  0  0999 V2000
   -3.5861    0.8159   -3.4130 C   0  0  0  0  0  0  0  0  0  0  0  0
   -3.5013    0.1969   -2.1522 O   0  0  0  0  0  0  0  0  0  0  0  0
   -2.3621   -0.5323   -1.8394 C   0  0  0  0  0  0  0  0  0  0  0  0
   -1.4537   -0.6092   -2.6905 O   0  0  0  0  0  0  0  0  0  0  0  0
   -2.2407   -1.1864   -0.5440 C   0  0  0  0  0  0  0  0  0  0  0  0
   -2.4996   -0.2083    0.5621 C   0  0  0  0  0  0  0  0  0  0  0  0
   -3.7151   -0.6299    1.3591 C   0  0  0  0  0  0  0  0  0  0  0  0
   -3.1817   -1.9127    2.0086 C   0  0  0  0  0  0  0  0  0  0  0  0
   -1.6884   -1.6742    2.0276 C   0  0  0  0  0  0  0  0  0  0  0  0
   -0.9322   -2.5467    1.0518 C   0  0  0  0  0  0  0  0  0  0  0  0
   -0.8384   -1.8403   -0.3305 C   0  0  2  0  0  0  0  0  0  0  0  0
    0.0650   -0.9864   -0.4274 O   0  0  0  0  0  0  0  0  0  0  0  0
    1.0725   -0.3358   -0.8169 C   0  0  0  0  0  0  0  0  0  0  0  0
    0.9005    1.0465   -1.4181 C   0  0  0  0  0  0  0  0  0  0  0  0
    1.5335    1.4389   -2.5762 C   0  0  0  0  0  0  0  0  0  0  0  0
    1.3973    2.6932   -3.1355 C   0  0  0  0  0  0  0  0  0  0  0  0
    0.5801    3.6156   -2.5045 C   0  0  0  0  0  0  0  0  0  0  0  0
   -0.0609    3.2623   -1.3597 C   0  0  0  0  0  0  0  0  0  0  0  0
    0.0980    2.0007   -0.8280 C   0  0  0  0  0  0  0  0  0  0  0  0
    2.3201   -0.3267    0.0204 C   0  0  0  0  0  0  0  0  0  0  0  0
    3.5455   -0.4342   -0.5922 C   0  0  0  0  0  0  0  0  0  0  0  0
    4.7505   -0.4403    0.0988 C   0  0  0  0  0  0  0  0  0  0  0  0
    4.7063   -0.3333    1.4755 C   0  0  0  0  0  0  0  0  0  0  0  0
    5.9902   -0.3418    2.2413 C   0  0  0  0  0  0  0  0  0  0  0  0
    3.4848   -0.2262    2.0867 C   0  0  0  0  0  0  0  0  0  0  0  0
    2.2976   -0.2211    1.3846 C   0  0  0  0  0  0  0  0  0  0  0  0
   -1.4821   -0.3060    1.6050 N   0  0  0  0  0  0  0  0  0  0  0  0
   -1.8433    0.6620    2.6169 C   0  0  0  0  0  0  0  0  0  0  0  0
   -3.8679    1.8957   -3.3620 H   0  0  0  0  0  0  0  0  0  0  0  0
   -2.6771    0.7118   -4.0113 H   0  0  0  0  0  0  0  0  0  0  0  0
   -4.4170    0.3056   -3.9624 H   0  0  0  0  0  0  0  0  0  0  0  0
   -3.0241   -1.9653   -0.4969 H   0  0  0  0  0  0  0  0  0  0  0  0
   -2.6162    0.8250    0.2617 H   0  0  0  0  0  0  0  0  0  0  0  0
   -4.4977   -0.8931    0.5969 H   0  0  0  0  0  0  0  0  0  0  0  0
   -4.0688    0.0903    2.0866 H   0  0  0  0  0  0  0  0  0  0  0  0
   -3.5958   -1.9985    3.0310 H   0  0  0  0  0  0  0  0  0  0  0  0
   -3.4131   -2.7437    1.3448 H   0  0  0  0  0  0  0  0  0  0  0  0
   -1.2474   -1.7795    3.0250 H   0  0  0  0  0  0  0  0  0  0  0  0
   -1.4133   -3.5084    1.0022 H   0  0  0  0  0  0  0  0  0  0  0  0
    0.0940   -2.6299    1.4238 H   0  0  0  0  0  0  0  0  0  0  0  0
   -0.8408   -2.6550   -1.0707 H   0  0  0  0  0  0  0  0  0  0  0  0
    1.4321   -0.9220   -1.7342 H   0  0  0  0  0  0  0  0  0  0  0  0
    2.1772    0.7396   -3.0919 H   0  0  0  0  0  0  0  0  0  0  0  0
    1.8899    3.0108   -4.0424 H   0  0  0  0  0  0  0  0  0  0  0  0
    0.4752    4.5886   -2.9447 H   0  0  0  0  0  0  0  0  0  0  0  0
   -0.7061    3.9956   -0.8622 H   0  0  0  0  0  0  0  0  0  0  0  0
   -0.4192    1.7673    0.0664 H   0  0  0  0  0  0  0  0  0  0  0  0
    3.6522   -0.5206   -1.6872 H   0  0  0  0  0  0  0  0  0  0  0  0
    5.6858   -0.5257   -0.4285 H   0  0  0  0  0  0  0  0  0  0  0  0
    6.6977    0.3299    1.7118 H   0  0  0  0  0  0  0  0  0  0  0  0
    5.8508    0.0522    3.2449 H   0  0  0  0  0  0  0  0  0  0  0  0
    6.4728   -1.3496    2.2482 H   0  0  0  0  0  0  0  0  0  0  0  0
    3.4403   -0.1413    3.1746 H   0  0  0  0  0  0  0  0  0  0  0  0
    1.3441   -0.1367    1.8937 H   0  0  0  0  0  0  0  0  0  0  0  0
   -2.3119    0.2245    3.5144 H   0  0  0  0  0  0  0  0  0  0  0  0
   -2.5520    1.4315    2.1995 H   0  0  0  0  0  0  0  0  0  0  0  0
   -0.8999    1.1607    2.9587 H   0  0  0  0  0  0  0  0  0  0  0  0
  1  2  1  0
  2  3  1  0
  3  4  2  0
  3  5  1  0
  5  6  1  0
  6  7  1  0
  7  8  1  0
  8  9  1  0
  9 10  1  0
 10 11  1  0
 11 12  1  0
 12 13  1  0
 13 14  1  0
 14 15  2  0
 15 16  1  0
 16 17  2  0
 17 18  1  0
 18 19  2  0
 13 20  1  0
 20 21  2  0
 21 22  1  0
 22 23  2  0
 23 24  1  0
 23 25  1  0
 25 26  2  0
  9 27  1  0
 27 28  1  0
 11  5  1  0
 19 14  1  0
 26 20  1  0
 27  6  1  0
  1 29  1  0
  1 30  1  0
  1 31  1  0
  5 32  1  0
  6 33  1  0
  7 34  1  0
  7 35  1  0
  8 36  1  0
  8 37  1  0
  9 38  1  0
 10 39  1  0
 10 40  1  0
 11 41  1  6
 13 42  1  0
 15 43  1  0
 16 44  1  0
 17 45  1  0
 18 46  1  0
 19 47  1  0
 21 48  1  0
 22 49  1  0
 24 50  1  0
 24 51  1  0
 24 52  1  0
 25 53  1  0
 26 54  1  0
 28 55  1  0
 28 56  1  0
 28 57  1  0
M  END
$$$$
