
     RDKit          3D

 60 63  0  0  0  0  0  0  0  0999 V2000
   -1.3714    5.8924    3.1623 C   0  0  0  0  0  0  0  0  0  0  0  0
   -0.9504    4.6267    2.5605 C   0  0  0  0  0  0  0  0  0  0  0  0
    0.2867    3.9353    2.6718 C   0  0  0  0  0  0  0  0  0  0  0  0
    0.4149    2.8358    2.0456 N   0  0  0  0  0  0  0  0  0  0  0  0
   -0.5467    2.3168    1.3037 C   0  0  0  0  0  0  0  0  0  0  0  0
   -0.5975    1.0955    0.5243 C   0  0  0  0  0  0  0  0  0  0  0  0
   -1.7175    0.7366   -0.1888 C   0  0  0  0  0  0  0  0  0  0  0  0
   -1.7935   -0.4175   -0.9348 C   0  0  0  0  0  0  0  0  0  0  0  0
   -2.8519   -0.8166   -1.6399 O   0  0  0  0  0  0  0  0  0  0  0  0
   -4.0933   -0.5327   -1.9715 C   0  0  0  0  0  0  0  0  0  0  0  0
   -5.1658   -0.5316   -0.9374 C   0  0  1  0  0  0  0  0  0  0  0  0
   -5.0521    0.3999    0.1995 C   0  0  0  0  0  0  0  0  0  0  0  0
   -6.5366   -0.3508   -1.6281 C   0  0  0  0  0  0  0  0  0  0  0  0
   -6.7690   -1.7152   -2.1776 C   0  0  0  0  0  0  0  0  0  0  0  0
   -6.0769   -2.6241   -1.4255 O   0  0  0  0  0  0  0  0  0  0  0  0
   -5.3386   -1.9741   -0.4802 C   0  0  0  0  0  0  0  0  0  0  0  0
   -0.6207   -1.2217   -0.9191 C   0  0  0  0  0  0  0  0  0  0  0  0
    0.4974   -0.8643   -0.2084 C   0  0  0  0  0  0  0  0  0  0  0  0
    1.6727   -1.7577   -0.2469 C   0  0  0  0  0  0  0  0  0  0  0  0
    1.6085   -2.8229   -0.9413 O   0  0  0  0  0  0  0  0  0  0  0  0
    2.8270   -1.4421    0.4615 N   0  0  0  0  0  0  0  0  0  0  0  0
    3.9606   -2.3590    0.3903 C   0  0  2  0  0  0  0  0  0  0  0  0
    4.2411   -2.9281    1.7672 C   0  0  0  0  0  0  0  0  0  0  0  0
    5.1247   -1.6343   -0.1547 C   0  0  0  0  0  0  0  0  0  0  0  0
    4.9965   -0.8103   -1.2507 C   0  0  0  0  0  0  0  0  0  0  0  0
    6.0997   -0.1580   -1.7239 N   0  0  0  0  0  0  0  0  0  0  0  0
    7.2953   -0.3014   -1.1492 C   0  0  0  0  0  0  0  0  0  0  0  0
    8.4626    0.4440   -1.7210 C   0  0  0  0  0  0  0  0  0  0  0  0
    7.9727    1.5628   -2.3605 F   0  0  0  0  0  0  0  0  0  0  0  0
    9.2093   -0.3543   -2.5551 F   0  0  0  0  0  0  0  0  0  0  0  0
    9.2129    0.8580   -0.6127 F   0  0  0  0  0  0  0  0  0  0  0  0
    7.4504   -1.0947   -0.0836 N   0  0  0  0  0  0  0  0  0  0  0  0
    6.3663   -1.7576    0.4095 C   0  0  0  0  0  0  0  0  0  0  0  0
    0.5043    0.3038    0.5174 C   0  0  0  0  0  0  0  0  0  0  0  0
   -1.8181    3.5169    1.4931 S   0  0  0  0  0  0  0  0  0  0  0  0
   -2.0874    6.4081    2.4797 H   0  0  0  0  0  0  0  0  0  0  0  0
   -1.7901    5.7735    4.1912 H   0  0  0  0  0  0  0  0  0  0  0  0
   -0.4785    6.5370    3.2598 H   0  0  0  0  0  0  0  0  0  0  0  0
    1.1125    4.3678    3.3008 H   0  0  0  0  0  0  0  0  0  0  0  0
   -2.5464    1.4158   -0.1620 H   0  0  0  0  0  0  0  0  0  0  0  0
   -4.4583   -1.3093   -2.7467 H   0  0  0  0  0  0  0  0  0  0  0  0
   -4.1905    0.4205   -2.6142 H   0  0  0  0  0  0  0  0  0  0  0  0
   -4.9235    1.4447   -0.1903 H   0  0  0  0  0  0  0  0  0  0  0  0
   -4.2891    0.1099    0.9401 H   0  0  0  0  0  0  0  0  0  0  0  0
   -6.0483    0.4051    0.7380 H   0  0  0  0  0  0  0  0  0  0  0  0
   -6.4495    0.4329   -2.4138 H   0  0  0  0  0  0  0  0  0  0  0  0
   -7.2753   -0.0913   -0.8432 H   0  0  0  0  0  0  0  0  0  0  0  0
   -7.8480   -2.0069   -2.1495 H   0  0  0  0  0  0  0  0  0  0  0  0
   -6.4894   -1.7227   -3.2505 H   0  0  0  0  0  0  0  0  0  0  0  0
   -5.7990   -1.9529    0.5254 H   0  0  0  0  0  0  0  0  0  0  0  0
   -4.3031   -2.4208   -0.4355 H   0  0  0  0  0  0  0  0  0  0  0  0
   -0.6568   -2.1450   -1.5062 H   0  0  0  0  0  0  0  0  0  0  0  0
    2.9708   -0.6062    1.0480 H   0  0  0  0  0  0  0  0  0  0  0  0
    3.7060   -3.2187   -0.2587 H   0  0  0  0  0  0  0  0  0  0  0  0
    4.8761   -3.8433    1.6275 H   0  0  0  0  0  0  0  0  0  0  0  0
    3.2960   -3.2905    2.2095 H   0  0  0  0  0  0  0  0  0  0  0  0
    4.8087   -2.2499    2.4129 H   0  0  0  0  0  0  0  0  0  0  0  0
    4.0345   -0.6811   -1.7307 H   0  0  0  0  0  0  0  0  0  0  0  0
    6.5101   -2.3850    1.2593 H   0  0  0  0  0  0  0  0  0  0  0  0
    1.4147    0.5525    1.0702 H   0  0  0  0  0  0  0  0  0  0  0  0
  1  2  1  0
  2  3  2  0
  3  4  1  0
  4  5  2  0
  5  6  1  0
  6  7  2  0
  7  8  1  0
  8  9  1  0
  9 10  1  0
 11 10  1  6
 11 12  1  0
 11 13  1  0
 13 14  1  0
 14 15  1  0
 15 16  1  0
  8 17  2  0
 17 18  1  0
 18 19  1  0
 19 20  2  0
 19 21  1  0
 21 22  1  0
 22 23  1  0
 22 24  1  0
 24 25  2  0
 25 26  1  0
 26 27  2  0
 27 28  1  0
 28 29  1  0
 28 30  1  0
 28 31  1  0
 27 32  1  0
 32 33  2  0
 18 34  2  0
  5 35  1  0
 35  2  1  0
 34  6  1  0
 16 11  1  0
 33 24  1  0
  1 36  1  0
  1 37  1  0
  1 38  1  0
  3 39  1  0
  7 40  1  0
 10 41  1  0
 10 42  1  0
 12 43  1  0
 12 44  1  0
 12 45  1  0
 13 46  1  0
 13 47  1  0
 14 48  1  0
 14 49  1  0
 16 50  1  0
 16 51  1  0
 17 52  1  0
 21 53  1  0
 22 54  1  6
 23 55  1  0
 23 56  1  0
 23 57  1  0
 25 58  1  0
 33 59  1  0
 34 60  1  0
M  END
$$$$
