@<TRIPOS>MOLECULE
*****
 60 63 0 0 0
SMALL
GASTEIGER

@<TRIPOS>ATOM
      1 C          -1.3714    5.8924    3.1623 C.3     1  UNL1       -0.0319
      2 C          -0.9504    4.6267    2.5605 C.ar    1  UNL1        0.0068
      3 C           0.2867    3.9353    2.6718 C.ar    1  UNL1        0.0383
      4 N           0.4149    2.8358    2.0456 N.ar    1  UNL1       -0.2471
      5 C          -0.5467    2.3168    1.3037 C.ar    1  UNL1        0.1086
      6 C          -0.5975    1.0955    0.5243 C.ar    1  UNL1        0.0113
      7 C          -1.7175    0.7366   -0.1888 C.ar    1  UNL1       -0.0102
      8 C          -1.7935   -0.4175   -0.9348 C.ar    1  UNL1        0.1219
      9 O          -2.8519   -0.8166   -1.6399 O.3     1  UNL1       -0.4913
     10 C          -4.0933   -0.5327   -1.9715 C.3     1  UNL1        0.0971
     11 C          -5.1658   -0.5316   -0.9374 C.3     1  UNL1        0.0274
     12 C          -5.0521    0.3999    0.1995 C.3     1  UNL1       -0.0543
     13 C          -6.5366   -0.3508   -1.6281 C.3     1  UNL1       -0.0188
     14 C          -6.7690   -1.7152   -2.1776 C.3     1  UNL1        0.0484
     15 O          -6.0769   -2.6241   -1.4255 O.3     1  UNL1       -0.3791
     16 C          -5.3386   -1.9741   -0.4802 C.3     1  UNL1        0.0562
     17 C          -0.6207   -1.2217   -0.9191 C.ar    1  UNL1       -0.0078
     18 C           0.4974   -0.8643   -0.2084 C.ar    1  UNL1        0.0408
     19 C           1.6727   -1.7577   -0.2469 C.2     1  UNL1        0.2447
     20 O           1.6085   -2.8229   -0.9413 O.2     1  UNL1       -0.2702
     21 N           2.8270   -1.4421    0.4615 N.am    1  UNL1       -0.3047
     22 C           3.9606   -2.3590    0.3903 C.3     1  UNL1        0.0487
     23 C           4.2411   -2.9281    1.7672 C.3     1  UNL1       -0.0423
     24 C           5.1247   -1.6343   -0.1547 C.ar    1  UNL1        0.0087
     25 C           4.9965   -0.8103   -1.2507 C.ar    1  UNL1        0.0363
     26 N           6.0997   -0.1580   -1.7239 N.ar    1  UNL1       -0.2321
     27 C           7.2953   -0.3014   -1.1492 C.ar    1  UNL1        0.2339
     28 C           8.4626    0.4440   -1.7210 C.3     1  UNL1        0.4522
     29 F           7.9727    1.5628   -2.3605 F       1  UNL1       -0.1632
     30 F           9.2093   -0.3543   -2.5551 F       1  UNL1       -0.1632
     31 F           9.2129    0.8580   -0.6127 F       1  UNL1       -0.1632
     32 N           7.4504   -1.0947   -0.0836 N.ar    1  UNL1       -0.2321
     33 C           6.3663   -1.7576    0.4095 C.ar    1  UNL1        0.0363
     34 C           0.5043    0.3038    0.5174 C.ar    1  UNL1       -0.0397
     35 S          -1.8181    3.5169    1.4931 S.2     1  UNL1       -0.0725
     36 H          -2.0874    6.4081    2.4797 H       1  UNL1        0.0283
     37 H          -1.7901    5.7735    4.1912 H       1  UNL1        0.0283
     38 H          -0.4785    6.5370    3.2598 H       1  UNL1        0.0283
     39 H           1.1125    4.3678    3.3008 H       1  UNL1        0.0838
     40 H          -2.5464    1.4158   -0.1620 H       1  UNL1        0.0661
     41 H          -4.4583   -1.3093   -2.7467 H       1  UNL1        0.0703
     42 H          -4.1905    0.4205   -2.6142 H       1  UNL1        0.0703
     43 H          -4.9235    1.4447   -0.1903 H       1  UNL1        0.0237
     44 H          -4.2891    0.1099    0.9401 H       1  UNL1        0.0237
     45 H          -6.0483    0.4051    0.7380 H       1  UNL1        0.0237
     46 H          -6.4495    0.4329   -2.4138 H       1  UNL1        0.0294
     47 H          -7.2753   -0.0913   -0.8432 H       1  UNL1        0.0294
     48 H          -7.8480   -2.0069   -2.1495 H       1  UNL1        0.0560
     49 H          -6.4894   -1.7227   -3.2505 H       1  UNL1        0.0560
     50 H          -5.7990   -1.9529    0.5254 H       1  UNL1        0.0566
     51 H          -4.3031   -2.4208   -0.4355 H       1  UNL1        0.0566
     52 H          -0.6568   -2.1450   -1.5062 H       1  UNL1        0.0662
     53 H           2.9708   -0.6062    1.0480 H       1  UNL1        0.1496
     54 H           3.7060   -3.2187   -0.2587 H       1  UNL1        0.0546
     55 H           4.8761   -3.8433    1.6275 H       1  UNL1        0.0251
     56 H           3.2960   -3.2905    2.2095 H       1  UNL1        0.0251
     57 H           4.8087   -2.2499    2.4129 H       1  UNL1        0.0251
     58 H           4.0345   -0.6811   -1.7307 H       1  UNL1        0.0834
     59 H           6.5101   -2.3850    1.2593 H       1  UNL1        0.0834
     60 H           1.4147    0.5525    1.0702 H       1  UNL1        0.0632
@<TRIPOS>BOND
     1     1     2    1
     2     2     3   ar
     3     3     4   ar
     4     4     5   ar
     5     5     6    1
     6     6     7   ar
     7     7     8   ar
     8     8     9    1
     9     9    10    1
    10    11    10    1
    11    11    12    1
    12    11    13    1
    13    13    14    1
    14    14    15    1
    15    15    16    1
    16     8    17   ar
    17    17    18   ar
    18    18    19    1
    19    19    20    2
    20    19    21   am
    21    21    22    1
    22    22    23    1
    23    22    24    1
    24    24    25   ar
    25    25    26   ar
    26    26    27   ar
    27    27    28    1
    28    28    29    1
    29    28    30    1
    30    28    31    1
    31    27    32   ar
    32    32    33   ar
    33    18    34   ar
    34     5    35   ar
    35    35     2   ar
    36    34     6   ar
    37    16    11    1
    38    33    24   ar
    39     1    36    1
    40     1    37    1
    41     1    38    1
    42     3    39    1
    43     7    40    1
    44    10    41    1
    45    10    42    1
    46    12    43    1
    47    12    44    1
    48    12    45    1
    49    13    46    1
    50    13    47    1
    51    14    48    1
    52    14    49    1
    53    16    50    1
    54    16    51    1
    55    17    52    1
    56    21    53    1
    57    22    54    1
    58    23    55    1
    59    23    56    1
    60    23    57    1
    61    25    58    1
    62    33    59    1
    63    34    60    1
