@<TRIPOS>MOLECULE
*****
 45 48 0 0 0
SMALL
GASTEIGER

@<TRIPOS>ATOM
      1 O          -4.7342   -2.9021    2.1437 O.2     1  UNL1       -0.2697
      2 C          -4.9226   -1.9408    1.3218 C.2     1  UNL1        0.2523
      3 N          -6.2285   -1.5526    0.9719 N.am    1  UNL1       -0.2483
      4 C          -6.4186   -0.4907    0.0642 C.2     1  UNL1        0.2511
      5 O          -7.5934   -0.1125   -0.2752 O.2     1  UNL1       -0.2698
      6 C          -5.2892    0.2024   -0.5101 C.ar    1  UNL1        0.0451
      7 C          -5.5389    1.2354   -1.3941 C.ar    1  UNL1       -0.0481
      8 C          -4.4883    1.9156   -1.9586 C.ar    1  UNL1       -0.0479
      9 C          -3.2026    1.5633   -1.6397 C.ar    1  UNL1        0.0140
     10 I          -1.5537    2.5704   -2.4741 I       1  UNL1       -0.0438
     11 C          -2.9468    0.5165   -0.7439 C.ar    1  UNL1       -0.0400
     12 C          -3.9785   -0.1862   -0.1600 C.ar    1  UNL1        0.0014
     13 C          -3.7141   -1.2679    0.7658 C.2     1  UNL1        0.0584
     14 C          -2.5302   -1.6541    1.1121 C.2     1  UNL1        0.0025
     15 N          -1.2306   -1.2832    0.8148 N.pl3   1  UNL1       -0.3449
     16 C          -0.4380   -0.4312    1.7201 C.3     1  UNL1        0.0340
     17 C           0.9148   -0.1944    1.1513 C.ar    1  UNL1       -0.0269
     18 C           1.1474    0.8856    0.3257 C.ar    1  UNL1       -0.0563
     19 C           2.3949    1.1278   -0.2154 C.ar    1  UNL1       -0.0502
     20 C           3.4686    0.3001    0.0446 C.ar    1  UNL1        0.0250
     21 C           4.7931    0.5420   -0.5193 C.ar    1  UNL1        0.0037
     22 C           5.9352    0.4477    0.2553 C.ar    1  UNL1       -0.0510
     23 C           7.1923    0.6697   -0.2480 C.ar    1  UNL1       -0.0430
     24 C           7.3174    0.9991   -1.5770 C.ar    1  UNL1        0.0276
     25 N           6.2121    1.1021   -2.3754 N.ar    1  UNL1       -0.2627
     26 C           4.9932    0.8779   -1.8504 C.ar    1  UNL1        0.0354
     27 C           3.2284   -0.7800    0.8726 C.ar    1  UNL1        0.1249
     28 O           4.3116   -1.6326    1.1473 O.3     1  UNL1       -0.5061
     29 C           1.9835   -1.0260    1.4156 C.ar    1  UNL1       -0.0149
     30 H          -7.0478   -2.0480    1.3823 H       1  UNL1        0.1581
     31 H          -6.5529    1.4967   -1.6316 H       1  UNL1        0.0626
     32 H          -4.6236    2.7409   -2.6639 H       1  UNL1        0.0628
     33 H          -1.9371    0.2761   -0.5243 H       1  UNL1        0.0634
     34 H          -2.5360   -2.5212    1.8510 H       1  UNL1        0.0786
     35 H          -0.7685   -1.6195   -0.0566 H       1  UNL1        0.1459
     36 H          -1.0133    0.5102    1.8290 H       1  UNL1        0.0511
     37 H          -0.4000   -0.9288    2.7029 H       1  UNL1        0.0511
     38 H           0.3195    1.5496    0.1071 H       1  UNL1        0.0621
     39 H           2.5594    1.9959   -0.8725 H       1  UNL1        0.0625
     40 H           5.8239    0.1894    1.2929 H       1  UNL1        0.0625
     41 H           8.0456    0.5840    0.3938 H       1  UNL1        0.0633
     42 H           8.3047    1.1721   -1.9669 H       1  UNL1        0.0829
     43 H           4.0939    0.9510   -2.4552 H       1  UNL1        0.0836
     44 H           4.8495   -1.9744    0.3612 H       1  UNL1        0.2922
     45 H           1.7985   -1.8752    2.0655 H       1  UNL1        0.0657
@<TRIPOS>BOND
     1     1     2    2
     2     2     3   am
     3     3     4   am
     4     4     5    2
     5     4     6    1
     6     6     7   ar
     7     7     8   ar
     8     8     9   ar
     9     9    10    1
    10     9    11   ar
    11    11    12   ar
    12    12    13    1
    13    13    14    2
    14    14    15    1
    15    15    16    1
    16    16    17    1
    17    17    18   ar
    18    18    19   ar
    19    19    20   ar
    20    20    21    1
    21    21    22   ar
    22    22    23   ar
    23    23    24   ar
    24    24    25   ar
    25    25    26   ar
    26    20    27   ar
    27    27    28    1
    28    27    29   ar
    29    13     2    1
    30    29    17   ar
    31    12     6   ar
    32    26    21   ar
    33     3    30    1
    34     7    31    1
    35     8    32    1
    36    11    33    1
    37    14    34    1
    38    15    35    1
    39    16    36    1
    40    16    37    1
    41    18    38    1
    42    19    39    1
    43    22    40    1
    44    23    41    1
    45    24    42    1
    46    26    43    1
    47    28    44    1
    48    29    45    1
