@<TRIPOS>MOLECULE
*****
 47 51 0 0 0
SMALL
GASTEIGER

@<TRIPOS>ATOM
      1 O           7.5036    0.9205   -2.2015 O.2     1  UNL1       -0.2489
      2 C           7.6757    1.6756   -1.2338 C.2     1  UNL1        0.3282
      3 O           7.9685    3.0012   -1.4331 O.3     1  UNL1       -0.4793
      4 C           7.5685    1.1535    0.1413 C.3     1  UNL1        0.1593
      5 N           6.2062    1.0946    0.6230 N.ar    1  UNL1       -0.1518
      6 N           5.5896    2.0650    1.2625 N.ar    1  UNL1       -0.0452
      7 N           4.3376    1.6802    1.5664 N.ar    1  UNL1       -0.1045
      8 C           4.1809    0.4292    1.0969 C.ar    1  UNL1        0.2420
      9 C           2.9576   -0.3530    1.2277 C.ar    1  UNL1        0.2094
     10 C           1.9335   -0.5058    0.3169 C.ar    1  UNL1        0.0303
     11 C           0.9817   -1.3370    0.8683 C.ar    1  UNL1        0.1648
     12 N          -0.2437   -1.7819    0.3227 N.pl3   1  UNL1       -0.3119
     13 C          -1.1110   -2.7506    0.9428 C.3     1  UNL1        0.0182
     14 C          -2.4105   -2.7035    0.1634 C.3     1  UNL1       -0.0039
     15 C          -3.3828   -1.7190    0.7697 C.3     1  UNL1        0.0168
     16 N          -3.6431   -0.7265   -0.2713 N.pl3   1  UNL1       -0.3280
     17 C          -4.1793    0.5836   -0.0770 C.ar    1  UNL1        0.0510
     18 C          -3.5099    1.7259   -0.4526 C.ar    1  UNL1       -0.0040
     19 C          -4.0200    2.9929   -0.2689 C.ar    1  UNL1        0.1252
     20 F          -3.3476    4.1064   -0.6474 F       1  UNL1       -0.2054
     21 C          -5.2672    3.0845    0.3240 C.ar    1  UNL1       -0.0250
     22 C          -5.9405    1.9547    0.7008 C.ar    1  UNL1       -0.0389
     23 C          -5.4191    0.6868    0.5115 C.ar    1  UNL1        0.0621
     24 CL         -6.3528   -0.6787    1.0210 Cl      1  UNL1       -0.0816
     25 C          -3.2607   -1.3181   -1.5160 C.3     1  UNL1        0.0168
     26 C          -2.0456   -2.1324   -1.1833 C.3     1  UNL1       -0.0039
     27 C          -0.8174   -1.3402   -0.9152 C.3     1  UNL1        0.0182
     28 N           1.4789   -1.6543    2.1044 N.ar    1  UNL1       -0.0624
     29 O           2.6212   -1.0718    2.2856 O.2     1  UNL1       -0.3495
     30 N           5.3429    0.0859    0.5192 N.ar    1  UNL1       -0.1266
     31 H           8.0356    3.4449   -2.3423 H       1  UNL1        0.2951
     32 H           8.0724    0.1677    0.2436 H       1  UNL1        0.0644
     33 H           8.1265    1.8680    0.8171 H       1  UNL1        0.0644
     34 H           1.8817   -0.0586   -0.6581 H       1  UNL1        0.0692
     35 H          -0.6703   -3.7769    0.9269 H       1  UNL1        0.0467
     36 H          -1.3459   -2.4355    1.9786 H       1  UNL1        0.0467
     37 H          -2.8577   -3.7286    0.0658 H       1  UNL1        0.0335
     38 H          -2.9386   -1.1849    1.6427 H       1  UNL1        0.0467
     39 H          -4.3254   -2.2036    1.0689 H       1  UNL1        0.0467
     40 H          -2.5274    1.6614   -0.9213 H       1  UNL1        0.0665
     41 H          -5.7039    4.0704    0.4855 H       1  UNL1        0.0647
     42 H          -6.9215    2.0553    1.1670 H       1  UNL1        0.0634
     43 H          -4.0371   -1.9878   -1.9020 H       1  UNL1        0.0467
     44 H          -3.0445   -0.5084   -2.2476 H       1  UNL1        0.0467
     45 H          -1.8996   -2.9335   -1.9470 H       1  UNL1        0.0335
     46 H          -1.1466   -0.2727   -0.7376 H       1  UNL1        0.0467
     47 H          -0.0931   -1.3449   -1.7562 H       1  UNL1        0.0467
@<TRIPOS>BOND
     1     1     2    2
     2     2     3    1
     3     2     4    1
     4     4     5    1
     5     5     6   ar
     6     6     7   ar
     7     7     8   ar
     8     8     9    1
     9     9    10   ar
    10    10    11   ar
    11    11    12    1
    12    12    13    1
    13    13    14    1
    14    14    15    1
    15    15    16    1
    16    16    17    1
    17    17    18   ar
    18    18    19   ar
    19    19    20    1
    20    19    21   ar
    21    21    22   ar
    22    22    23   ar
    23    23    24    1
    24    16    25    1
    25    25    26    1
    26    26    27    1
    27    11    28   ar
    28    28    29   ar
    29     8    30   ar
    30    30     5   ar
    31    29     9   ar
    32    27    12    1
    33    26    14    1
    34    23    17   ar
    35     3    31    1
    36     4    32    1
    37     4    33    1
    38    10    34    1
    39    13    35    1
    40    13    36    1
    41    14    37    1
    42    15    38    1
    43    15    39    1
    44    18    40    1
    45    21    41    1
    46    22    42    1
    47    25    43    1
    48    25    44    1
    49    26    45    1
    50    27    46    1
    51    27    47    1
