@<TRIPOS>MOLECULE
*****
 64 69 0 0 0
SMALL
GASTEIGER

@<TRIPOS>ATOM
      1 C          -5.1642   -0.7890    0.1565 C.3     1  UNL1       -0.0373
      2 C          -4.4479    0.1130   -0.7706 C.ar    1  UNL1       -0.0202
      3 C          -3.7352   -0.4376   -1.8209 C.ar    1  UNL1        0.0350
      4 N          -3.5949   -1.8008   -2.0780 N.pl3   1  UNL1       -0.3126
      5 C          -3.2658   -2.9181   -1.3266 C.ar    1  UNL1        0.0626
      6 C          -4.0907   -4.0485   -1.5183 C.ar    1  UNL1        0.0916
      7 C          -5.1287   -4.0502   -2.5564 C.1     1  UNL1        0.1026
      8 N          -5.9136   -4.0700   -3.3336 N.1     1  UNL1       -0.1908
      9 C          -3.8454   -5.1685   -0.7874 C.ar    1  UNL1        0.0468
     10 N          -2.8464   -5.2178    0.1007 N.ar    1  UNL1       -0.2612
     11 C          -2.0716   -4.1533    0.2724 C.ar    1  UNL1        0.0401
     12 C          -2.2429   -2.9494   -0.4317 C.ar    1  UNL1        0.0577
     13 C          -1.3273   -1.8736   -0.0942 C.ar    1  UNL1        0.1395
     14 C          -0.1737   -2.0172    0.6793 C.ar    1  UNL1       -0.0080
     15 C           0.4019   -0.7770    0.7595 C.ar    1  UNL1        0.0211
     16 C           1.5049   -0.2633    1.3490 C.ar    1  UNL1       -0.0466
     17 C           1.8699    1.0320    1.2831 C.ar    1  UNL1       -0.0326
     18 C           3.0778    1.6031    1.9018 C.3     1  UNL1        0.0241
     19 N           4.1527    1.5415    0.9129 N.3     1  UNL1       -0.2957
     20 C           4.2801    0.1980    0.3862 C.3     1  UNL1        0.0120
     21 C           5.5474    0.0901   -0.4379 C.3     1  UNL1        0.0114
     22 N           6.7094    0.4053    0.3530 N.3     1  UNL1       -0.3029
     23 C           7.6592    1.2199   -0.3249 C.3     1  UNL1       -0.0127
     24 C           6.3360    0.8869    1.6462 C.3     1  UNL1        0.0114
     25 C           5.3632    2.0440    1.4879 C.3     1  UNL1        0.0120
     26 C           1.0425    1.9265    0.5459 C.ar    1  UNL1       -0.0538
     27 C          -0.0714    1.4080   -0.0501 C.ar    1  UNL1       -0.0184
     28 C          -0.4066    0.0979    0.0364 C.ar    1  UNL1        0.1357
     29 O          -1.3844   -0.6364   -0.4206 O.2     1  UNL1       -0.4547
     30 C          -3.0808    0.4984   -2.6689 C.ar    1  UNL1       -0.0383
     31 C          -3.1817    1.8295   -2.4233 C.ar    1  UNL1       -0.0360
     32 C          -3.8779    2.3499   -1.3995 C.ar    1  UNL1        0.0468
     33 N          -4.0944    3.6158   -0.9710 N.ar    1  UNL1       -0.3606
     34 C          -4.8828    3.5641    0.1578 C.ar    1  UNL1        0.0027
     35 C          -5.1469    2.2609    0.4119 C.ar    1  UNL1       -0.0364
     36 C          -4.5508    1.4763   -0.5181 C.ar    1  UNL1        0.0043
     37 H          -5.2163   -1.8009   -0.2603 H       1  UNL1        0.0278
     38 H          -6.1683   -0.3823    0.4114 H       1  UNL1        0.0278
     39 H          -4.6101   -0.8614    1.1320 H       1  UNL1        0.0278
     40 H          -3.7747   -2.0393   -3.1394 H       1  UNL1        0.1522
     41 H          -4.5038   -6.0418   -0.9503 H       1  UNL1        0.0843
     42 H          -1.2632   -4.2282    0.9982 H       1  UNL1        0.0837
     43 H           0.1755   -2.9246    1.1125 H       1  UNL1        0.0661
     44 H           2.1376   -0.9543    1.9240 H       1  UNL1        0.0628
     45 H           3.3634    0.9019    2.7250 H       1  UNL1        0.0476
     46 H           2.9233    2.6258    2.2922 H       1  UNL1        0.0476
     47 H           3.4323    0.0385   -0.3229 H       1  UNL1        0.0439
     48 H           4.3305   -0.5706    1.1496 H       1  UNL1        0.0439
     49 H           5.6416   -0.9926   -0.6922 H       1  UNL1        0.0439
     50 H           5.4898    0.6706   -1.3595 H       1  UNL1        0.0439
     51 H           8.6325    0.6744   -0.4731 H       1  UNL1        0.0391
     52 H           7.9278    2.0920    0.3094 H       1  UNL1        0.0391
     53 H           7.2751    1.6505   -1.2791 H       1  UNL1        0.0391
     54 H           7.2640    1.2253    2.1847 H       1  UNL1        0.0439
     55 H           5.8403    0.1225    2.2545 H       1  UNL1        0.0439
     56 H           5.1244    2.4692    2.4950 H       1  UNL1        0.0439
     57 H           5.7763    2.8396    0.8298 H       1  UNL1        0.0439
     58 H           1.3196    2.9425    0.4898 H       1  UNL1        0.0622
     59 H          -0.6979    2.1276   -0.6165 H       1  UNL1        0.0654
     60 H          -2.5324    0.0910   -3.4794 H       1  UNL1        0.0637
     61 H          -2.6410    2.4986   -3.1371 H       1  UNL1        0.0639
     62 H          -3.7436    4.4806   -1.3956 H       1  UNL1        0.1653
     63 H          -5.1756    4.4669    0.6565 H       1  UNL1        0.0807
     64 H          -5.7463    1.8879    1.2483 H       1  UNL1        0.0639
@<TRIPOS>BOND
     1     1     2    1
     2     2     3   ar
     3     3     4    1
     4     4     5    1
     5     5     6   ar
     6     6     7    1
     7     7     8    3
     8     6     9   ar
     9     9    10   ar
    10    10    11   ar
    11    11    12   ar
    12    12    13    1
    13    13    14   ar
    14    14    15   ar
    15    15    16   ar
    16    16    17   ar
    17    17    18    1
    18    18    19    1
    19    19    20    1
    20    20    21    1
    21    21    22    1
    22    22    23    1
    23    22    24    1
    24    24    25    1
    25    17    26   ar
    26    26    27   ar
    27    27    28   ar
    28    28    29   ar
    29     3    30   ar
    30    30    31   ar
    31    31    32   ar
    32    32    33   ar
    33    33    34   ar
    34    34    35   ar
    35    35    36   ar
    36    36     2   ar
    37    12     5   ar
    38    29    13   ar
    39    36    32   ar
    40    28    15   ar
    41    25    19    1
    42     1    37    1
    43     1    38    1
    44     1    39    1
    45     4    40    1
    46     9    41    1
    47    11    42    1
    48    14    43    1
    49    16    44    1
    50    18    45    1
    51    18    46    1
    52    20    47    1
    53    20    48    1
    54    21    49    1
    55    21    50    1
    56    23    51    1
    57    23    52    1
    58    23    53    1
    59    24    54    1
    60    24    55    1
    61    25    56    1
    62    25    57    1
    63    26    58    1
    64    27    59    1
    65    30    60    1
    66    31    61    1
    67    33    62    1
    68    34    63    1
    69    35    64    1
