
     RDKit          3D

 64 69  0  0  0  0  0  0  0  0999 V2000
   -5.1642   -0.7890    0.1565 C   0  0  0  0  0  0  0  0  0  0  0  0
   -4.4479    0.1130   -0.7706 C   0  0  0  0  0  0  0  0  0  0  0  0
   -3.7352   -0.4376   -1.8209 C   0  0  0  0  0  0  0  0  0  0  0  0
   -3.5949   -1.8008   -2.0780 N   0  0  0  0  0  0  0  0  0  0  0  0
   -3.2658   -2.9181   -1.3266 C   0  0  0  0  0  0  0  0  0  0  0  0
   -4.0907   -4.0485   -1.5183 C   0  0  0  0  0  0  0  0  0  0  0  0
   -5.1287   -4.0502   -2.5564 C   0  0  0  0  0  0  0  0  0  0  0  0
   -5.9136   -4.0700   -3.3336 N   0  0  0  0  0  0  0  0  0  0  0  0
   -3.8454   -5.1685   -0.7874 C   0  0  0  0  0  0  0  0  0  0  0  0
   -2.8464   -5.2178    0.1007 N   0  0  0  0  0  0  0  0  0  0  0  0
   -2.0716   -4.1533    0.2724 C   0  0  0  0  0  0  0  0  0  0  0  0
   -2.2429   -2.9494   -0.4317 C   0  0  0  0  0  0  0  0  0  0  0  0
   -1.3273   -1.8736   -0.0942 C   0  0  0  0  0  0  0  0  0  0  0  0
   -0.1737   -2.0172    0.6793 C   0  0  0  0  0  0  0  0  0  0  0  0
    0.4019   -0.7770    0.7595 C   0  0  0  0  0  0  0  0  0  0  0  0
    1.5049   -0.2633    1.3490 C   0  0  0  0  0  0  0  0  0  0  0  0
    1.8699    1.0320    1.2831 C   0  0  0  0  0  0  0  0  0  0  0  0
    3.0778    1.6031    1.9018 C   0  0  0  0  0  0  0  0  0  0  0  0
    4.1527    1.5415    0.9129 N   0  0  0  0  0  0  0  0  0  0  0  0
    4.2801    0.1980    0.3862 C   0  0  0  0  0  0  0  0  0  0  0  0
    5.5474    0.0901   -0.4379 C   0  0  0  0  0  0  0  0  0  0  0  0
    6.7094    0.4053    0.3530 N   0  0  0  0  0  0  0  0  0  0  0  0
    7.6592    1.2199   -0.3249 C   0  0  0  0  0  0  0  0  0  0  0  0
    6.3360    0.8869    1.6462 C   0  0  0  0  0  0  0  0  0  0  0  0
    5.3632    2.0440    1.4879 C   0  0  0  0  0  0  0  0  0  0  0  0
    1.0425    1.9265    0.5459 C   0  0  0  0  0  0  0  0  0  0  0  0
   -0.0714    1.4080   -0.0501 C   0  0  0  0  0  0  0  0  0  0  0  0
   -0.4066    0.0979    0.0364 C   0  0  0  0  0  0  0  0  0  0  0  0
   -1.3844   -0.6364   -0.4206 O   0  0  0  0  0  0  0  0  0  0  0  0
   -3.0808    0.4984   -2.6689 C   0  0  0  0  0  0  0  0  0  0  0  0
   -3.1817    1.8295   -2.4233 C   0  0  0  0  0  0  0  0  0  0  0  0
   -3.8779    2.3499   -1.3995 C   0  0  0  0  0  0  0  0  0  0  0  0
   -4.0944    3.6158   -0.9710 N   0  0  0  0  0  0  0  0  0  0  0  0
   -4.8828    3.5641    0.1578 C   0  0  0  0  0  0  0  0  0  0  0  0
   -5.1469    2.2609    0.4119 C   0  0  0  0  0  0  0  0  0  0  0  0
   -4.5508    1.4763   -0.5181 C   0  0  0  0  0  0  0  0  0  0  0  0
   -5.2163   -1.8009   -0.2603 H   0  0  0  0  0  0  0  0  0  0  0  0
   -6.1683   -0.3823    0.4114 H   0  0  0  0  0  0  0  0  0  0  0  0
   -4.6101   -0.8614    1.1320 H   0  0  0  0  0  0  0  0  0  0  0  0
   -3.7747   -2.0393   -3.1394 H   0  0  0  0  0  0  0  0  0  0  0  0
   -4.5038   -6.0418   -0.9503 H   0  0  0  0  0  0  0  0  0  0  0  0
   -1.2632   -4.2282    0.9982 H   0  0  0  0  0  0  0  0  0  0  0  0
    0.1755   -2.9246    1.1125 H   0  0  0  0  0  0  0  0  0  0  0  0
    2.1376   -0.9543    1.9240 H   0  0  0  0  0  0  0  0  0  0  0  0
    3.3634    0.9019    2.7250 H   0  0  0  0  0  0  0  0  0  0  0  0
    2.9233    2.6258    2.2922 H   0  0  0  0  0  0  0  0  0  0  0  0
    3.4323    0.0385   -0.3229 H   0  0  0  0  0  0  0  0  0  0  0  0
    4.3305   -0.5706    1.1496 H   0  0  0  0  0  0  0  0  0  0  0  0
    5.6416   -0.9926   -0.6922 H   0  0  0  0  0  0  0  0  0  0  0  0
    5.4898    0.6706   -1.3595 H   0  0  0  0  0  0  0  0  0  0  0  0
    8.6325    0.6744   -0.4731 H   0  0  0  0  0  0  0  0  0  0  0  0
    7.9278    2.0920    0.3094 H   0  0  0  0  0  0  0  0  0  0  0  0
    7.2751    1.6505   -1.2791 H   0  0  0  0  0  0  0  0  0  0  0  0
    7.2640    1.2253    2.1847 H   0  0  0  0  0  0  0  0  0  0  0  0
    5.8403    0.1225    2.2545 H   0  0  0  0  0  0  0  0  0  0  0  0
    5.1244    2.4692    2.4950 H   0  0  0  0  0  0  0  0  0  0  0  0
    5.7763    2.8396    0.8298 H   0  0  0  0  0  0  0  0  0  0  0  0
    1.3196    2.9425    0.4898 H   0  0  0  0  0  0  0  0  0  0  0  0
   -0.6979    2.1276   -0.6165 H   0  0  0  0  0  0  0  0  0  0  0  0
   -2.5324    0.0910   -3.4794 H   0  0  0  0  0  0  0  0  0  0  0  0
   -2.6410    2.4986   -3.1371 H   0  0  0  0  0  0  0  0  0  0  0  0
   -3.7436    4.4806   -1.3956 H   0  0  0  0  0  0  0  0  0  0  0  0
   -5.1756    4.4669    0.6565 H   0  0  0  0  0  0  0  0  0  0  0  0
   -5.7463    1.8879    1.2483 H   0  0  0  0  0  0  0  0  0  0  0  0
  1  2  1  0
  2  3  2  0
  3  4  1  0
  4  5  1  0
  5  6  2  0
  6  7  1  0
  7  8  3  0
  6  9  1  0
  9 10  2  0
 10 11  1  0
 11 12  2  0
 12 13  1  0
 13 14  2  0
 14 15  1  0
 15 16  2  0
 16 17  1  0
 17 18  1  0
 18 19  1  0
 19 20  1  0
 20 21  1  0
 21 22  1  0
 22 23  1  0
 22 24  1  0
 24 25  1  0
 17 26  2  0
 26 27  1  0
 27 28  2  0
 28 29  1  0
  3 30  1  0
 30 31  2  0
 31 32  1  0
 32 33  1  0
 33 34  1  0
 34 35  2  0
 35 36  1  0
 36  2  1  0
 12  5  1  0
 29 13  1  0
 36 32  2  0
 28 15  1  0
 25 19  1  0
  1 37  1  0
  1 38  1  0
  1 39  1  0
  4 40  1  0
  9 41  1  0
 11 42  1  0
 14 43  1  0
 16 44  1  0
 18 45  1  0
 18 46  1  0
 20 47  1  0
 20 48  1  0
 21 49  1  0
 21 50  1  0
 23 51  1  0
 23 52  1  0
 23 53  1  0
 24 54  1  0
 24 55  1  0
 25 56  1  0
 25 57  1  0
 26 58  1  0
 27 59  1  0
 30 60  1  0
 31 61  1  0
 33 62  1  0
 34 63  1  0
 35 64  1  0
M  END
$$$$
