@<TRIPOS>MOLECULE
*****
 103 107 0 0 0
SMALL
GASTEIGER

@<TRIPOS>ATOM
      1 C          -4.3983    2.6496   -0.1441 C.3     1  UNL1        0.0364
      2 O          -4.2282    1.5920    0.7745 O.3     1  UNL1       -0.3830
      3 C          -4.5174    2.0274    2.0451 C.3     1  UNL1        0.0476
      4 C          -4.3393    1.0056    3.1068 C.3     1  UNL1       -0.0255
      5 C          -5.1638   -0.2259    3.0166 C.3     1  UNL1       -0.0255
      6 C          -4.9057   -0.9435    1.7459 C.ar    1  UNL1       -0.0435
      7 C          -3.8231   -1.8038    1.6652 C.ar    1  UNL1       -0.0537
      8 C          -3.5225   -2.5323    0.5416 C.ar    1  UNL1       -0.0264
      9 C          -2.3684   -3.4667    0.4499 C.3     1  UNL1        0.0401
     10 N          -1.1989   -2.6413   -0.0001 N.am    1  UNL1       -0.2938
     11 C          -0.3565   -2.2132    1.0055 C.2     1  UNL1        0.2210
     12 O          -0.7373   -2.5410    2.2191 O.2     1  UNL1       -0.2752
     13 C           0.9004   -1.4504    0.9475 C.3     1  UNL1        0.0550
     14 C           1.2022   -0.8482    2.3388 C.3     1  UNL1        0.0076
     15 N           0.9679   -1.8854    3.3035 N.3     1  UNL1       -0.3152
     16 C           1.7981   -3.0338    3.1604 C.3     1  UNL1       -0.0035
     17 C           2.1573   -3.4289    1.7778 C.3     1  UNL1       -0.0329
     18 C           2.1256   -2.3699    0.7353 C.3     1  UNL1       -0.0024
     19 C           3.3067   -1.4957    0.7089 C.ar    1  UNL1       -0.0432
     20 C           4.3552   -1.5885    1.5889 C.ar    1  UNL1       -0.0548
     21 C           5.4556   -0.7503    1.5660 C.ar    1  UNL1       -0.0197
     22 C           5.5268    0.2398    0.6166 C.ar    1  UNL1        0.1207
     23 O           6.5445    1.1183    0.4857 O.3     1  UNL1       -0.4886
     24 C           7.7163    1.2897    1.1513 C.3     1  UNL1        0.1235
     25 C           8.7461    0.2248    1.1236 C.3     1  UNL1        0.1236
     26 O           9.2921   -0.1503   -0.0975 O.3     1  UNL1       -0.4857
     27 C           9.9932    0.7138   -0.8877 C.ar    1  UNL1        0.1571
     28 C           9.4781    1.4254   -1.9311 C.ar    1  UNL1        0.0842
     29 CL          7.8197    1.2627   -2.4324 Cl      1  UNL1       -0.0797
     30 C          10.2524    2.3056   -2.7025 C.ar    1  UNL1       -0.0368
     31 C          11.5708    2.4731   -2.4211 C.ar    1  UNL1       -0.0475
     32 C          12.4667    3.3911   -3.1917 C.3     1  UNL1       -0.0396
     33 C          12.1194    1.7580   -1.3637 C.ar    1  UNL1       -0.0368
     34 C          11.3558    0.9000   -0.6138 C.ar    1  UNL1        0.0842
     35 CL         12.0960    0.0178    0.7133 Cl      1  UNL1       -0.0797
     36 C           4.4604    0.3471   -0.2911 C.ar    1  UNL1       -0.0197
     37 C           3.3870   -0.5000   -0.2384 C.ar    1  UNL1       -0.0548
     38 C          -1.1784   -2.3698   -1.3950 C.3     1  UNL1        0.0265
     39 C          -0.0246   -1.9807   -2.2443 C.3     1  UNL1       -0.0326
     40 C          -1.1159   -0.9612   -1.8965 C.3     1  UNL1       -0.0326
     41 C          -4.3569   -2.3804   -0.5403 C.ar    1  UNL1       -0.0152
     42 C          -5.4779   -1.5183   -0.5207 C.ar    1  UNL1        0.1211
     43 O          -6.2376   -1.4539   -1.6568 O.3     1  UNL1       -0.4919
     44 C          -7.3481   -0.6963   -1.9075 C.3     1  UNL1        0.0908
     45 C          -7.1821    0.7847   -1.9159 C.3     1  UNL1       -0.0044
     46 C          -8.4872    1.5060   -2.2045 C.3     1  UNL1        0.0201
     47 N          -9.4894    1.1811   -1.1876 N.3     1  UNL1       -0.1947
     48 S         -10.9454    2.0216   -1.5614 S.O2    1  UNL1        0.0265
     49 C         -10.7295    3.7710   -1.5438 C.3     1  UNL1        0.0705
     50 O         -11.4085    1.5902   -2.9204 O.2     1  UNL1       -0.1585
     51 O         -12.0095    1.6531   -0.5628 O.2     1  UNL1       -0.1585
     52 C          -5.7125   -0.8237    0.6365 C.ar    1  UNL1       -0.0167
     53 H          -4.1731    2.3181   -1.1587 H       1  UNL1        0.0523
     54 H          -3.7030    3.4573    0.2087 H       1  UNL1        0.0523
     55 H          -5.4378    3.0344   -0.1321 H       1  UNL1        0.0523
     56 H          -5.5002    2.5287    2.0800 H       1  UNL1        0.0560
     57 H          -3.7763    2.8545    2.2591 H       1  UNL1        0.0560
     58 H          -4.5362    1.4567    4.1193 H       1  UNL1        0.0290
     59 H          -3.2606    0.6754    3.1856 H       1  UNL1        0.0290
     60 H          -6.2553   -0.0436    3.1358 H       1  UNL1        0.0314
     61 H          -4.8463   -0.8957    3.8459 H       1  UNL1        0.0314
     62 H          -3.2219   -1.8937    2.5331 H       1  UNL1        0.0624
     63 H          -2.1971   -3.8943    1.4337 H       1  UNL1        0.0514
     64 H          -2.5617   -4.2301   -0.3253 H       1  UNL1        0.0514
     65 H           0.8612   -0.6855    0.1924 H       1  UNL1        0.0413
     66 H           2.2490   -0.5527    2.3228 H       1  UNL1        0.0432
     67 H           0.5025   -0.0101    2.5423 H       1  UNL1        0.0432
     68 H           1.1484   -1.4680    4.2588 H       1  UNL1        0.1220
     69 H           2.6700   -2.9753    3.8754 H       1  UNL1        0.0424
     70 H           1.1983   -3.8933    3.6107 H       1  UNL1        0.0424
     71 H           3.1408   -3.9449    1.7911 H       1  UNL1        0.0283
     72 H           1.4336   -4.2289    1.4385 H       1  UNL1        0.0283
     73 H           1.9344   -2.8410   -0.2440 H       1  UNL1        0.0357
     74 H           4.3256   -2.3602    2.3359 H       1  UNL1        0.0622
     75 H           6.2211   -0.8906    2.3052 H       1  UNL1        0.0654
     76 H           8.2309    2.2398    0.8157 H       1  UNL1        0.0731
     77 H           7.5245    1.5016    2.2615 H       1  UNL1        0.0731
     78 H           8.3897   -0.7112    1.6509 H       1  UNL1        0.0731
     79 H           9.6082    0.6213    1.7681 H       1  UNL1        0.0731
     80 H           9.8295    2.8637   -3.5261 H       1  UNL1        0.0636
     81 H          12.6950    4.2804   -2.5368 H       1  UNL1        0.0278
     82 H          11.8908    3.8080   -4.0563 H       1  UNL1        0.0278
     83 H          13.4014    2.8900   -3.5031 H       1  UNL1        0.0278
     84 H          13.1795    1.8973   -1.1441 H       1  UNL1        0.0636
     85 H           4.5108    1.1127   -1.0281 H       1  UNL1        0.0654
     86 H           2.6130   -0.3453   -0.9682 H       1  UNL1        0.0622
     87 H          -1.9774   -2.9402   -2.0178 H       1  UNL1        0.0500
     88 H          -0.0205   -2.3187   -3.3311 H       1  UNL1        0.0284
     89 H           0.9691   -1.7100   -1.9021 H       1  UNL1        0.0284
     90 H          -1.7576   -0.6732   -2.7595 H       1  UNL1        0.0284
     91 H          -0.8283   -0.1104   -1.2920 H       1  UNL1        0.0284
     92 H          -4.1777   -2.9483   -1.4551 H       1  UNL1        0.0657
     93 H          -7.7678   -1.0432   -2.9130 H       1  UNL1        0.0697
     94 H          -8.1477   -1.0225   -1.1838 H       1  UNL1        0.0697
     95 H          -6.6878    1.2014   -1.0442 H       1  UNL1        0.0311
     96 H          -6.5242    1.0303   -2.7896 H       1  UNL1        0.0311
     97 H          -8.2798    2.5928   -2.2449 H       1  UNL1        0.0442
     98 H          -8.8669    1.2208   -3.2117 H       1  UNL1        0.0442
     99 H          -9.1427    1.5293   -0.2705 H       1  UNL1        0.1476
    100 H         -11.6556    4.2347   -1.1616 H       1  UNL1        0.0479
    101 H         -10.5954    4.1743   -2.5755 H       1  UNL1        0.0479
    102 H          -9.9060    4.0745   -0.8702 H       1  UNL1        0.0479
    103 H          -6.5537   -0.1630    0.7429 H       1  UNL1        0.0657
@<TRIPOS>BOND
     1     1     2    1
     2     2     3    1
     3     3     4    1
     4     4     5    1
     5     5     6    1
     6     6     7   ar
     7     7     8   ar
     8     8     9    1
     9     9    10    1
    10    10    11   am
    11    11    12    2
    12    11    13    1
    13    13    14    1
    14    14    15    1
    15    15    16    1
    16    16    17    1
    17    17    18    1
    18    18    19    1
    19    19    20   ar
    20    20    21   ar
    21    21    22   ar
    22    22    23    1
    23    23    24    1
    24    24    25    1
    25    25    26    1
    26    26    27    1
    27    27    28   ar
    28    28    29    1
    29    28    30   ar
    30    30    31   ar
    31    31    32    1
    32    31    33   ar
    33    33    34   ar
    34    34    35    1
    35    22    36   ar
    36    36    37   ar
    37    10    38    1
    38    38    39    1
    39    39    40    1
    40     8    41   ar
    41    41    42   ar
    42    42    43    1
    43    43    44    1
    44    44    45    1
    45    45    46    1
    46    46    47    1
    47    47    48    1
    48    48    49    1
    49    48    50    2
    50    48    51    2
    51    42    52   ar
    52    52     6   ar
    53    18    13    1
    54    37    19   ar
    55    40    38    1
    56    34    27   ar
    57     1    53    1
    58     1    54    1
    59     1    55    1
    60     3    56    1
    61     3    57    1
    62     4    58    1
    63     4    59    1
    64     5    60    1
    65     5    61    1
    66     7    62    1
    67     9    63    1
    68     9    64    1
    69    13    65    1
    70    14    66    1
    71    14    67    1
    72    15    68    1
    73    16    69    1
    74    16    70    1
    75    17    71    1
    76    17    72    1
    77    18    73    1
    78    20    74    1
    79    21    75    1
    80    24    76    1
    81    24    77    1
    82    25    78    1
    83    25    79    1
    84    30    80    1
    85    32    81    1
    86    32    82    1
    87    32    83    1
    88    33    84    1
    89    36    85    1
    90    37    86    1
    91    38    87    1
    92    39    88    1
    93    39    89    1
    94    40    90    1
    95    40    91    1
    96    41    92    1
    97    44    93    1
    98    44    94    1
    99    45    95    1
   100    45    96    1
   101    46    97    1
   102    46    98    1
   103    47    99    1
   104    49   100    1
   105    49   101    1
   106    49   102    1
   107    52   103    1
