@<TRIPOS>MOLECULE
*****
 24 24 0 0 0
SMALL
GASTEIGER

@<TRIPOS>ATOM
      1 O           2.6982    0.0368    0.4178 O.3     1  UNL1       -0.3865
      2 C           1.3270    0.0857    0.3415 C.3     1  UNL1        0.1118
      3 C           0.8201    1.1569   -0.6178 C.3     1  UNL1        0.1118
      4 O           1.5920    2.2807   -0.6286 O.3     1  UNL1       -0.3865
      5 C          -0.6014    1.4038   -0.1637 C.3     1  UNL1        0.1118
      6 O          -1.2135    2.4339   -0.8638 O.3     1  UNL1       -0.3865
      7 C          -1.4209    0.1727   -0.3198 C.3     1  UNL1        0.1118
      8 O          -2.5668    0.3627    0.4857 O.3     1  UNL1       -0.3865
      9 C          -0.7866   -1.1082    0.0608 C.3     1  UNL1        0.1118
     10 O          -1.3639   -2.1690   -0.6557 O.3     1  UNL1       -0.3865
     11 C           0.6893   -1.1820   -0.1699 C.3     1  UNL1        0.1118
     12 O           1.2049   -2.3169    0.4117 O.3     1  UNL1       -0.3865
     13 H           3.1197   -0.4619   -0.3129 H       1  UNL1        0.2100
     14 H           0.9263    0.2569    1.3658 H       1  UNL1        0.0647
     15 H           0.7888    0.7372   -1.6551 H       1  UNL1        0.0647
     16 H           1.7069    2.6165    0.2879 H       1  UNL1        0.2100
     17 H          -0.5438    1.6234    0.9315 H       1  UNL1        0.0647
     18 H          -0.8473    2.4716   -1.7850 H       1  UNL1        0.2100
     19 H          -1.8262    0.1640   -1.3681 H       1  UNL1        0.0647
     20 H          -2.9897   -0.4779    0.7579 H       1  UNL1        0.2100
     21 H          -0.9688   -1.2900    1.1469 H       1  UNL1        0.0647
     22 H          -2.1469   -2.5534   -0.2062 H       1  UNL1        0.2100
     23 H           0.8433   -1.2656   -1.2750 H       1  UNL1        0.0647
     24 H           1.5591   -2.9779   -0.2546 H       1  UNL1        0.2100
@<TRIPOS>BOND
     1     1     2    1
     2     2     3    1
     3     3     4    1
     4     3     5    1
     5     5     6    1
     6     5     7    1
     7     7     8    1
     8     7     9    1
     9     9    10    1
    10     9    11    1
    11    11    12    1
    12    11     2    1
    13     1    13    1
    14     2    14    1
    15     3    15    1
    16     4    16    1
    17     5    17    1
    18     6    18    1
    19     7    19    1
    20     8    20    1
    21     9    21    1
    22    10    22    1
    23    11    23    1
    24    12    24    1
