
     RDKit          3D

 24 24  0  0  0  0  0  0  0  0999 V2000
    2.6982    0.0368    0.4178 O   0  0  0  0  0  0  0  0  0  0  0  0
    1.3270    0.0857    0.3415 C   0  0  1  0  0  0  0  0  0  0  0  0
    0.8201    1.1569   -0.6178 C   0  0  2  0  0  0  0  0  0  0  0  0
    1.5920    2.2807   -0.6286 O   0  0  0  0  0  0  0  0  0  0  0  0
   -0.6014    1.4038   -0.1637 C   0  0  1  0  0  0  0  0  0  0  0  0
   -1.2135    2.4339   -0.8638 O   0  0  0  0  0  0  0  0  0  0  0  0
   -1.4209    0.1727   -0.3198 C   0  0  2  0  0  0  0  0  0  0  0  0
   -2.5668    0.3627    0.4857 O   0  0  0  0  0  0  0  0  0  0  0  0
   -0.7866   -1.1082    0.0608 C   0  0  1  0  0  0  0  0  0  0  0  0
   -1.3639   -2.1690   -0.6557 O   0  0  0  0  0  0  0  0  0  0  0  0
    0.6893   -1.1820   -0.1699 C   0  0  2  0  0  0  0  0  0  0  0  0
    1.2049   -2.3169    0.4117 O   0  0  0  0  0  0  0  0  0  0  0  0
    3.1197   -0.4619   -0.3129 H   0  0  0  0  0  0  0  0  0  0  0  0
    0.9263    0.2569    1.3658 H   0  0  0  0  0  0  0  0  0  0  0  0
    0.7888    0.7372   -1.6551 H   0  0  0  0  0  0  0  0  0  0  0  0
    1.7069    2.6165    0.2879 H   0  0  0  0  0  0  0  0  0  0  0  0
   -0.5438    1.6234    0.9315 H   0  0  0  0  0  0  0  0  0  0  0  0
   -0.8473    2.4716   -1.7850 H   0  0  0  0  0  0  0  0  0  0  0  0
   -1.8262    0.1640   -1.3681 H   0  0  0  0  0  0  0  0  0  0  0  0
   -2.9897   -0.4779    0.7579 H   0  0  0  0  0  0  0  0  0  0  0  0
   -0.9688   -1.2900    1.1469 H   0  0  0  0  0  0  0  0  0  0  0  0
   -2.1469   -2.5534   -0.2062 H   0  0  0  0  0  0  0  0  0  0  0  0
    0.8433   -1.2656   -1.2750 H   0  0  0  0  0  0  0  0  0  0  0  0
    1.5591   -2.9779   -0.2546 H   0  0  0  0  0  0  0  0  0  0  0  0
  1  2  1  0
  2  3  1  0
  3  4  1  0
  3  5  1  0
  5  6  1  0
  5  7  1  0
  7  8  1  0
  7  9  1  0
  9 10  1  0
  9 11  1  0
 11 12  1  0
 11  2  1  0
  1 13  1  0
  2 14  1  1
  3 15  1  6
  4 16  1  0
  5 17  1  1
  6 18  1  0
  7 19  1  6
  8 20  1  0
  9 21  1  1
 10 22  1  0
 11 23  1  6
 12 24  1  0
M  END
$$$$
