@<TRIPOS>MOLECULE
*****
 73 77 0 0 0
SMALL
GASTEIGER

@<TRIPOS>ATOM
      1 C          -8.7852   -3.1872    3.3402 C.3     1  UNL1        0.0820
      2 O          -8.1155   -2.4563    2.3290 O.3     1  UNL1       -0.4644
      3 C          -7.0973   -2.9575    1.5630 C.2     1  UNL1        0.3390
      4 O          -6.7133   -4.1329    1.7460 O.2     1  UNL1       -0.2450
      5 C          -6.4219   -2.1751    0.5217 C.ar    1  UNL1        0.0608
      6 C          -6.7561   -0.8871    0.2349 C.ar    1  UNL1       -0.0474
      7 C          -6.1156   -0.1415   -0.7518 C.ar    1  UNL1       -0.0549
      8 C          -5.0945   -0.6806   -1.4984 C.ar    1  UNL1       -0.0084
      9 C          -4.7550   -2.0052   -1.2019 C.ar    1  UNL1        0.0385
     10 C          -5.4014   -2.7299   -0.2185 C.ar    1  UNL1       -0.0262
     11 N          -3.7081   -2.4047   -2.0965 N.am    1  UNL1       -0.2844
     12 C          -3.3925   -1.3425   -2.9510 C.2     1  UNL1        0.2306
     13 O          -2.5562   -1.3043   -3.9143 O.2     1  UNL1       -0.2744
     14 C          -4.2150   -0.1618   -2.5748 C.3     1  UNL1        0.1051
     15 C          -3.2071    0.8495   -2.0300 C.2     1  UNL1        0.0653
     16 N          -2.0930    0.4380   -1.7227 N.2     1  UNL1       -0.2505
     17 C          -0.8593    0.7377   -1.2373 C.ar    1  UNL1        0.0643
     18 C           0.1317    1.2636   -2.0642 C.ar    1  UNL1       -0.0346
     19 C           1.3660    1.5384   -1.5461 C.ar    1  UNL1       -0.0383
     20 C           1.6941    1.3205   -0.2242 C.ar    1  UNL1        0.0361
     21 N           2.9867    1.6153    0.2834 N.am    1  UNL1       -0.2734
     22 C           3.2590    2.9289    0.8393 C.3     1  UNL1        0.0083
     23 C           4.0402    0.6617    0.2693 C.2     1  UNL1        0.2336
     24 O           3.7851   -0.4694   -0.2212 O.2     1  UNL1       -0.2739
     25 C           5.3717    0.9650    0.7986 C.3     1  UNL1        0.0763
     26 N           6.3025   -0.1069    0.6991 N.3     1  UNL1       -0.2916
     27 C           6.0482   -1.2466    1.5181 C.3     1  UNL1        0.0122
     28 C           6.7449   -2.4642    0.9683 C.3     1  UNL1        0.0114
     29 N           8.0834   -2.1147    0.6027 N.3     1  UNL1       -0.3029
     30 C           8.9697   -3.1907    0.9928 C.3     1  UNL1       -0.0127
     31 C           8.5740   -0.8885    1.1559 C.3     1  UNL1        0.0114
     32 C           7.6928    0.2963    0.7827 C.3     1  UNL1        0.0122
     33 C           0.7245    0.8029    0.5976 C.ar    1  UNL1       -0.0383
     34 C          -0.5219    0.5184    0.1033 C.ar    1  UNL1       -0.0346
     35 C          -3.6408    2.2349   -1.8370 C.ar    1  UNL1       -0.0027
     36 C          -4.8773    2.6619   -2.2811 C.ar    1  UNL1       -0.0528
     37 C          -5.2605    3.9520   -2.0746 C.ar    1  UNL1       -0.0611
     38 C          -4.4319    4.8440   -1.4270 C.ar    1  UNL1       -0.0617
     39 C          -3.2083    4.4280   -0.9856 C.ar    1  UNL1       -0.0611
     40 C          -2.8171    3.1196   -1.1937 C.ar    1  UNL1       -0.0528
     41 H          -9.7275   -3.5660    2.9454 H       1  UNL1        0.0661
     42 H          -9.0153   -2.4855    4.1700 H       1  UNL1        0.0661
     43 H          -8.1346   -3.9714    3.7808 H       1  UNL1        0.0661
     44 H          -7.5489   -0.3922    0.7784 H       1  UNL1        0.0626
     45 H          -6.4647    0.8919   -0.9135 H       1  UNL1        0.0621
     46 H          -5.0821   -3.7523   -0.0443 H       1  UNL1        0.0644
     47 H          -3.2406   -3.3363   -2.1232 H       1  UNL1        0.1548
     48 H          -4.6819    0.2727   -3.4308 H       1  UNL1        0.0508
     49 H          -0.1294    1.4323   -3.0979 H       1  UNL1        0.0639
     50 H           2.1143    1.9490   -2.2242 H       1  UNL1        0.0637
     51 H           2.3408    3.4939    1.0547 H       1  UNL1        0.0433
     52 H           3.8668    3.5148    0.1133 H       1  UNL1        0.0433
     53 H           3.8332    2.7713    1.7751 H       1  UNL1        0.0433
     54 H           5.3367    1.2781    1.8827 H       1  UNL1        0.0522
     55 H           5.7989    1.8460    0.2713 H       1  UNL1        0.0522
     56 H           6.5277   -1.0480    2.5211 H       1  UNL1        0.0439
     57 H           4.9819   -1.4027    1.7284 H       1  UNL1        0.0439
     58 H           6.2282   -2.8730    0.0753 H       1  UNL1        0.0439
     59 H           6.7730   -3.2674    1.7226 H       1  UNL1        0.0439
     60 H           9.1273   -3.8307    0.0934 H       1  UNL1        0.0391
     61 H           8.5166   -3.8558    1.7543 H       1  UNL1        0.0391
     62 H           9.9601   -2.8011    1.2965 H       1  UNL1        0.0391
     63 H           8.7121   -0.9498    2.2585 H       1  UNL1        0.0439
     64 H           9.5715   -0.6934    0.7140 H       1  UNL1        0.0439
     65 H           8.0690    0.7574   -0.1293 H       1  UNL1        0.0439
     66 H           7.7849    1.0277    1.6109 H       1  UNL1        0.0439
     67 H           0.9023    0.6003    1.6578 H       1  UNL1        0.0637
     68 H          -1.2739    0.1104    0.7679 H       1  UNL1        0.0639
     69 H          -5.5170    1.9788   -2.7855 H       1  UNL1        0.0624
     70 H          -6.2421    4.3163   -2.4197 H       1  UNL1        0.0618
     71 H          -4.7365    5.8747   -1.2614 H       1  UNL1        0.0618
     72 H          -2.5327    5.1265   -0.4663 H       1  UNL1        0.0618
     73 H          -1.8479    2.8544   -0.8184 H       1  UNL1        0.0624
@<TRIPOS>BOND
     1     1     2    1
     2     2     3    1
     3     3     4    2
     4     3     5    1
     5     5     6   ar
     6     6     7   ar
     7     7     8   ar
     8     8     9   ar
     9     9    10   ar
    10     9    11    1
    11    11    12   am
    12    12    13    2
    13    12    14    1
    14    14    15    1
    15    15    16    2
    16    16    17    1
    17    17    18   ar
    18    18    19   ar
    19    19    20   ar
    20    20    21    1
    21    21    22    1
    22    21    23   am
    23    23    24    2
    24    23    25    1
    25    25    26    1
    26    26    27    1
    27    27    28    1
    28    28    29    1
    29    29    30    1
    30    29    31    1
    31    31    32    1
    32    20    33   ar
    33    33    34   ar
    34    15    35    1
    35    35    36   ar
    36    36    37   ar
    37    37    38   ar
    38    38    39   ar
    39    39    40   ar
    40    10     5   ar
    41    34    17   ar
    42    40    35   ar
    43    14     8    1
    44    32    26    1
    45     1    41    1
    46     1    42    1
    47     1    43    1
    48     6    44    1
    49     7    45    1
    50    10    46    1
    51    11    47    1
    52    14    48    1
    53    18    49    1
    54    19    50    1
    55    22    51    1
    56    22    52    1
    57    22    53    1
    58    25    54    1
    59    25    55    1
    60    27    56    1
    61    27    57    1
    62    28    58    1
    63    28    59    1
    64    30    60    1
    65    30    61    1
    66    30    62    1
    67    31    63    1
    68    31    64    1
    69    32    65    1
    70    32    66    1
    71    33    67    1
    72    34    68    1
    73    36    69    1
    74    37    70    1
    75    38    71    1
    76    39    72    1
    77    40    73    1
