
     RDKit          3D

 73 77  0  0  0  0  0  0  0  0999 V2000
   -8.7852   -3.1872    3.3402 C   0  0  0  0  0  0  0  0  0  0  0  0
   -8.1155   -2.4563    2.3290 O   0  0  0  0  0  0  0  0  0  0  0  0
   -7.0973   -2.9575    1.5630 C   0  0  0  0  0  0  0  0  0  0  0  0
   -6.7133   -4.1329    1.7460 O   0  0  0  0  0  0  0  0  0  0  0  0
   -6.4219   -2.1751    0.5217 C   0  0  0  0  0  0  0  0  0  0  0  0
   -6.7561   -0.8871    0.2349 C   0  0  0  0  0  0  0  0  0  0  0  0
   -6.1156   -0.1415   -0.7518 C   0  0  0  0  0  0  0  0  0  0  0  0
   -5.0945   -0.6806   -1.4984 C   0  0  0  0  0  0  0  0  0  0  0  0
   -4.7550   -2.0052   -1.2019 C   0  0  0  0  0  0  0  0  0  0  0  0
   -5.4014   -2.7299   -0.2185 C   0  0  0  0  0  0  0  0  0  0  0  0
   -3.7081   -2.4047   -2.0965 N   0  0  0  0  0  0  0  0  0  0  0  0
   -3.3925   -1.3425   -2.9510 C   0  0  0  0  0  0  0  0  0  0  0  0
   -2.5562   -1.3043   -3.9143 O   0  0  0  0  0  0  0  0  0  0  0  0
   -4.2150   -0.1618   -2.5748 C   0  0  0  0  0  0  0  0  0  0  0  0
   -3.2071    0.8495   -2.0300 C   0  0  0  0  0  0  0  0  0  0  0  0
   -2.0930    0.4380   -1.7227 N   0  0  0  0  0  0  0  0  0  0  0  0
   -0.8593    0.7377   -1.2373 C   0  0  0  0  0  0  0  0  0  0  0  0
    0.1317    1.2636   -2.0642 C   0  0  0  0  0  0  0  0  0  0  0  0
    1.3660    1.5384   -1.5461 C   0  0  0  0  0  0  0  0  0  0  0  0
    1.6941    1.3205   -0.2242 C   0  0  0  0  0  0  0  0  0  0  0  0
    2.9867    1.6153    0.2834 N   0  0  0  0  0  0  0  0  0  0  0  0
    3.2590    2.9289    0.8393 C   0  0  0  0  0  0  0  0  0  0  0  0
    4.0402    0.6617    0.2693 C   0  0  0  0  0  0  0  0  0  0  0  0
    3.7851   -0.4694   -0.2212 O   0  0  0  0  0  0  0  0  0  0  0  0
    5.3717    0.9650    0.7986 C   0  0  0  0  0  0  0  0  0  0  0  0
    6.3025   -0.1069    0.6991 N   0  0  0  0  0  0  0  0  0  0  0  0
    6.0482   -1.2466    1.5181 C   0  0  0  0  0  0  0  0  0  0  0  0
    6.7449   -2.4642    0.9683 C   0  0  0  0  0  0  0  0  0  0  0  0
    8.0834   -2.1147    0.6027 N   0  0  0  0  0  0  0  0  0  0  0  0
    8.9697   -3.1907    0.9928 C   0  0  0  0  0  0  0  0  0  0  0  0
    8.5740   -0.8885    1.1559 C   0  0  0  0  0  0  0  0  0  0  0  0
    7.6928    0.2963    0.7827 C   0  0  0  0  0  0  0  0  0  0  0  0
    0.7245    0.8029    0.5976 C   0  0  0  0  0  0  0  0  0  0  0  0
   -0.5219    0.5184    0.1033 C   0  0  0  0  0  0  0  0  0  0  0  0
   -3.6408    2.2349   -1.8370 C   0  0  0  0  0  0  0  0  0  0  0  0
   -4.8773    2.6619   -2.2811 C   0  0  0  0  0  0  0  0  0  0  0  0
   -5.2605    3.9520   -2.0746 C   0  0  0  0  0  0  0  0  0  0  0  0
   -4.4319    4.8440   -1.4270 C   0  0  0  0  0  0  0  0  0  0  0  0
   -3.2083    4.4280   -0.9856 C   0  0  0  0  0  0  0  0  0  0  0  0
   -2.8171    3.1196   -1.1937 C   0  0  0  0  0  0  0  0  0  0  0  0
   -9.7275   -3.5660    2.9454 H   0  0  0  0  0  0  0  0  0  0  0  0
   -9.0153   -2.4855    4.1700 H   0  0  0  0  0  0  0  0  0  0  0  0
   -8.1346   -3.9714    3.7808 H   0  0  0  0  0  0  0  0  0  0  0  0
   -7.5489   -0.3922    0.7784 H   0  0  0  0  0  0  0  0  0  0  0  0
   -6.4647    0.8919   -0.9135 H   0  0  0  0  0  0  0  0  0  0  0  0
   -5.0821   -3.7523   -0.0443 H   0  0  0  0  0  0  0  0  0  0  0  0
   -3.2406   -3.3363   -2.1232 H   0  0  0  0  0  0  0  0  0  0  0  0
   -4.6819    0.2727   -3.4308 H   0  0  0  0  0  0  0  0  0  0  0  0
   -0.1294    1.4323   -3.0979 H   0  0  0  0  0  0  0  0  0  0  0  0
    2.1143    1.9490   -2.2242 H   0  0  0  0  0  0  0  0  0  0  0  0
    2.3408    3.4939    1.0547 H   0  0  0  0  0  0  0  0  0  0  0  0
    3.8668    3.5148    0.1133 H   0  0  0  0  0  0  0  0  0  0  0  0
    3.8332    2.7713    1.7751 H   0  0  0  0  0  0  0  0  0  0  0  0
    5.3367    1.2781    1.8827 H   0  0  0  0  0  0  0  0  0  0  0  0
    5.7989    1.8460    0.2713 H   0  0  0  0  0  0  0  0  0  0  0  0
    6.5277   -1.0480    2.5211 H   0  0  0  0  0  0  0  0  0  0  0  0
    4.9819   -1.4027    1.7284 H   0  0  0  0  0  0  0  0  0  0  0  0
    6.2282   -2.8730    0.0753 H   0  0  0  0  0  0  0  0  0  0  0  0
    6.7730   -3.2674    1.7226 H   0  0  0  0  0  0  0  0  0  0  0  0
    9.1273   -3.8307    0.0934 H   0  0  0  0  0  0  0  0  0  0  0  0
    8.5166   -3.8558    1.7543 H   0  0  0  0  0  0  0  0  0  0  0  0
    9.9601   -2.8011    1.2965 H   0  0  0  0  0  0  0  0  0  0  0  0
    8.7121   -0.9498    2.2585 H   0  0  0  0  0  0  0  0  0  0  0  0
    9.5715   -0.6934    0.7140 H   0  0  0  0  0  0  0  0  0  0  0  0
    8.0690    0.7574   -0.1293 H   0  0  0  0  0  0  0  0  0  0  0  0
    7.7849    1.0277    1.6109 H   0  0  0  0  0  0  0  0  0  0  0  0
    0.9023    0.6003    1.6578 H   0  0  0  0  0  0  0  0  0  0  0  0
   -1.2739    0.1104    0.7679 H   0  0  0  0  0  0  0  0  0  0  0  0
   -5.5170    1.9788   -2.7855 H   0  0  0  0  0  0  0  0  0  0  0  0
   -6.2421    4.3163   -2.4197 H   0  0  0  0  0  0  0  0  0  0  0  0
   -4.7365    5.8747   -1.2614 H   0  0  0  0  0  0  0  0  0  0  0  0
   -2.5327    5.1265   -0.4663 H   0  0  0  0  0  0  0  0  0  0  0  0
   -1.8479    2.8544   -0.8184 H   0  0  0  0  0  0  0  0  0  0  0  0
  1  2  1  0
  2  3  1  0
  3  4  2  0
  3  5  1  0
  5  6  2  0
  6  7  1  0
  7  8  2  0
  8  9  1  0
  9 10  2  0
  9 11  1  0
 11 12  1  0
 12 13  2  0
 12 14  1  0
 14 15  1  0
 15 16  2  3
 16 17  1  0
 17 18  2  0
 18 19  1  0
 19 20  2  0
 20 21  1  0
 21 22  1  0
 21 23  1  0
 23 24  2  0
 23 25  1  0
 25 26  1  0
 26 27  1  0
 27 28  1  0
 28 29  1  0
 29 30  1  0
 29 31  1  0
 31 32  1  0
 20 33  1  0
 33 34  2  0
 15 35  1  0
 35 36  2  0
 36 37  1  0
 37 38  2  0
 38 39  1  0
 39 40  2  0
 10  5  1  0
 34 17  1  0
 40 35  1  0
 14  8  1  0
 32 26  1  0
  1 41  1  0
  1 42  1  0
  1 43  1  0
  6 44  1  0
  7 45  1  0
 10 46  1  0
 11 47  1  0
 14 48  1  0
 18 49  1  0
 19 50  1  0
 22 51  1  0
 22 52  1  0
 22 53  1  0
 25 54  1  0
 25 55  1  0
 27 56  1  0
 27 57  1  0
 28 58  1  0
 28 59  1  0
 30 60  1  0
 30 61  1  0
 30 62  1  0
 31 63  1  0
 31 64  1  0
 32 65  1  0
 32 66  1  0
 33 67  1  0
 34 68  1  0
 36 69  1  0
 37 70  1  0
 38 71  1  0
 39 72  1  0
 40 73  1  0
M  END
$$$$
