@<TRIPOS>MOLECULE
*****
 50 55 0 0 0
SMALL
GASTEIGER

@<TRIPOS>ATOM
      1 O          -5.2805    3.3233   -2.2160 O.2     1  UNL1       -0.2658
      2 C          -4.6217    3.3439   -1.1589 C.ar    1  UNL1        0.2710
      3 N          -4.9871    4.1476   -0.1172 N.ar    1  UNL1       -0.2628
      4 N          -4.3061    4.1991    1.0356 N.ar    1  UNL1       -0.2628
      5 C          -3.2072    3.4476    1.2293 C.ar    1  UNL1        0.2712
      6 O          -2.5834    3.5127    2.3213 O.2     1  UNL1       -0.2658
      7 C          -2.7769    2.6178    0.2361 C.ar    1  UNL1        0.0594
      8 C          -1.6594    1.8212    0.3687 C.ar    1  UNL1        0.0283
      9 C          -1.1917    0.9624   -0.6250 C.ar    1  UNL1        0.2709
     10 C          -1.9219    0.9320   -1.8116 C.ar    1  UNL1        0.0160
     11 C          -3.0464    1.7279   -1.9567 C.ar    1  UNL1       -0.0422
     12 C          -3.4828    2.5647   -0.9586 C.ar    1  UNL1        0.0534
     13 N          -0.0228    0.1932   -0.3589 N.ar    1  UNL1        0.0679
     14 N           1.2697    0.5536   -0.4237 N.ar    1  UNL1        0.0575
     15 C           2.0554   -0.4848   -0.0904 C.ar    1  UNL1        0.2469
     16 C           3.5111   -0.5131   -0.0339 C.2     1  UNL1       -0.0091
     17 C           4.2333    0.5559   -0.3249 C.2     1  UNL1       -0.0508
     18 C           5.6892    0.6271   -0.2976 C.ar    1  UNL1       -0.0249
     19 C           6.3638    1.7901   -0.6172 C.ar    1  UNL1       -0.0546
     20 C           7.7339    1.8670   -0.5941 C.ar    1  UNL1       -0.0612
     21 C           8.5093    0.8048   -0.2558 C.ar    1  UNL1       -0.0617
     22 C           7.8806   -0.3892    0.0745 C.ar    1  UNL1       -0.0612
     23 C           6.5127   -0.4258    0.0396 C.ar    1  UNL1       -0.0546
     24 N           1.2383   -1.5159    0.1888 N.ar    1  UNL1       -0.0836
     25 N           0.0285   -1.0638    0.0155 N.ar    1  UNL1        0.0285
     26 C          -1.0886   -1.9634    0.2465 C.ar    1  UNL1        0.2589
     27 N          -1.2785   -2.9671    0.8800 N.ar    1  UNL1       -0.2164
     28 C          -2.4239   -3.6294    0.9354 C.ar    1  UNL1        0.0807
     29 C          -3.4729   -3.1276    0.2120 C.ar    1  UNL1        0.0412
     30 S          -2.7317   -1.6480   -0.5582 S.2     1  UNL1       -0.0421
     31 C          -4.7649   -3.6874    0.1439 C.ar    1  UNL1       -0.0458
     32 C          -5.0102   -4.8385    0.8611 C.ar    1  UNL1       -0.0606
     33 C          -3.9535   -5.3337    1.5826 C.ar    1  UNL1       -0.0597
     34 C          -2.6948   -4.7816    1.6442 C.ar    1  UNL1       -0.0351
     35 H          -5.8495    4.7588   -0.2260 H       1  UNL1        0.1900
     36 H          -4.6841    4.8552    1.7617 H       1  UNL1        0.1900
     37 H          -1.1282    1.8904    1.3272 H       1  UNL1        0.0693
     38 H          -1.5473    0.2538   -2.5888 H       1  UNL1        0.0685
     39 H          -3.5995    1.6893   -2.8873 H       1  UNL1        0.0627
     40 H           4.0331   -1.4149    0.2490 H       1  UNL1        0.0657
     41 H           3.6911    1.4258   -0.5992 H       1  UNL1        0.0625
     42 H           5.7925    2.6664   -0.8941 H       1  UNL1        0.0623
     43 H           8.1889    2.8255   -0.8608 H       1  UNL1        0.0618
     44 H           9.5843    0.9440   -0.2610 H       1  UNL1        0.0618
     45 H           8.5014   -1.2196    0.3395 H       1  UNL1        0.0618
     46 H           6.0659   -1.3746    0.3038 H       1  UNL1        0.0623
     47 H          -5.4538   -3.1400   -0.4834 H       1  UNL1        0.0629
     48 H          -6.0058   -5.2285    0.7794 H       1  UNL1        0.0618
     49 H          -4.1559   -6.2541    2.1535 H       1  UNL1        0.0618
     50 H          -1.9523   -5.3002    2.2701 H       1  UNL1        0.0639
@<TRIPOS>UNITY_ATOM_ATTR
13 1
charge 1
@<TRIPOS>BOND
     1     1     2    2
     2     2     3   ar
     3     3     4   ar
     4     4     5   ar
     5     5     6    2
     6     5     7   ar
     7     7     8   ar
     8     8     9   ar
     9     9    10   ar
    10    10    11   ar
    11    11    12   ar
    12     9    13    1
    13    13    14   ar
    14    14    15   ar
    15    15    16    1
    16    16    17    2
    17    17    18    1
    18    18    19   ar
    19    19    20   ar
    20    20    21   ar
    21    21    22   ar
    22    22    23   ar
    23    15    24   ar
    24    24    25   ar
    25    25    26    1
    26    26    27   ar
    27    27    28   ar
    28    28    29   ar
    29    29    30   ar
    30    29    31   ar
    31    31    32   ar
    32    32    33   ar
    33    33    34   ar
    34    12     2   ar
    35    25    13   ar
    36    30    26   ar
    37    12     7   ar
    38    23    18   ar
    39    34    28   ar
    40     3    35    1
    41     4    36    1
    42     8    37    1
    43    10    38    1
    44    11    39    1
    45    16    40    1
    46    17    41    1
    47    19    42    1
    48    20    43    1
    49    21    44    1
    50    22    45    1
    51    23    46    1
    52    31    47    1
    53    32    48    1
    54    33    49    1
    55    34    50    1
