
     RDKit          3D

 56 60  0  0  0  0  0  0  0  0999 V2000
   -9.0337    1.0344    1.9417 O   0  0  0  0  0  0  0  0  0  0  0  0
   -7.8872    1.0371    1.4399 C   0  0  0  0  0  0  0  0  0  0  0  0
   -6.8977    1.7251    2.1230 O   0  0  0  0  0  0  0  0  0  0  0  0
   -7.5862    0.3356    0.1651 C   0  0  0  0  0  0  0  0  0  0  0  0
   -6.1315    0.5146   -0.1836 C   0  0  2  0  0  0  0  0  0  0  0  0
   -5.7446   -0.1630   -1.4575 C   0  0  0  0  0  0  0  0  0  0  0  0
   -4.6097   -0.9069   -1.2278 O   0  0  0  0  0  0  0  0  0  0  0  0
   -4.0427   -0.4950   -0.0435 C   0  0  0  0  0  0  0  0  0  0  0  0
   -3.1560    0.7162   -0.2874 C   0  0  0  0  0  0  0  0  0  0  0  0
   -2.1990    0.2776   -1.4144 C   0  0  0  0  0  0  0  0  0  0  0  0
   -1.3734   -0.7156   -0.8126 N   0  0  0  0  0  0  0  0  0  0  0  0
    0.0217   -0.5722   -0.6707 C   0  0  0  0  0  0  0  0  0  0  0  0
    0.7080    0.5544   -1.0485 C   0  0  0  0  0  0  0  0  0  0  0  0
    2.0675    0.7082   -0.9185 C   0  0  0  0  0  0  0  0  0  0  0  0
    2.7915   -0.3309   -0.3751 C   0  0  0  0  0  0  0  0  0  0  0  0
    4.2356   -0.2198   -0.2152 C   0  0  0  0  0  0  0  0  0  0  0  0
    4.9576    0.8394   -0.5606 N   0  0  0  0  0  0  0  0  0  0  0  0
    6.2364    0.5737   -0.2650 C   0  0  0  0  0  0  0  0  0  0  0  0
    7.3735    1.3362   -0.4253 C   0  0  0  0  0  0  0  0  0  0  0  0
    8.6012    0.8345   -0.0372 C   0  0  0  0  0  0  0  0  0  0  0  0
    9.8294    1.6447   -0.2047 C   0  0  0  0  0  0  0  0  0  0  0  0
    9.8110    2.1205   -1.5165 F   0  0  0  0  0  0  0  0  0  0  0  0
    9.7104    2.7438    0.6254 F   0  0  0  0  0  0  0  0  0  0  0  0
   10.9496    0.9015    0.0388 F   0  0  0  0  0  0  0  0  0  0  0  0
    8.6192   -0.4315    0.5017 C   0  0  0  0  0  0  0  0  0  0  0  0
    7.4869   -1.2041    0.6670 C   0  0  0  0  0  0  0  0  0  0  0  0
    6.2668   -0.6957    0.2771 C   0  0  0  0  0  0  0  0  0  0  0  0
    5.0242   -1.1851    0.3066 N   0  0  0  0  0  0  0  0  0  0  0  0
    2.0855   -1.4473   -0.0043 C   0  0  0  0  0  0  0  0  0  0  0  0
    0.7707   -1.5833   -0.1355 N   0  0  0  0  0  0  0  0  0  0  0  0
   -2.0235   -1.9106   -0.3323 C   0  0  0  0  0  0  0  0  0  0  0  0
   -3.2061   -1.5893    0.5570 C   0  0  0  0  0  0  0  0  0  0  0  0
   -5.2177   -0.1608    0.8215 C   0  0  0  0  0  0  0  0  0  0  0  0
   -7.0558    2.5213    2.7059 H   0  0  0  0  0  0  0  0  0  0  0  0
   -7.8774   -0.7153    0.2934 H   0  0  0  0  0  0  0  0  0  0  0  0
   -8.1720    0.8329   -0.6347 H   0  0  0  0  0  0  0  0  0  0  0  0
   -5.9155    1.6010   -0.1890 H   0  0  0  0  0  0  0  0  0  0  0  0
   -6.5331   -0.8782   -1.8211 H   0  0  0  0  0  0  0  0  0  0  0  0
   -5.5559    0.5846   -2.2579 H   0  0  0  0  0  0  0  0  0  0  0  0
   -3.7033    1.5746   -0.6713 H   0  0  0  0  0  0  0  0  0  0  0  0
   -2.5400    0.9190    0.6122 H   0  0  0  0  0  0  0  0  0  0  0  0
   -2.8626   -0.1758   -2.2089 H   0  0  0  0  0  0  0  0  0  0  0  0
   -1.7244    1.1226   -1.8887 H   0  0  0  0  0  0  0  0  0  0  0  0
    0.1867    1.3993   -1.4788 H   0  0  0  0  0  0  0  0  0  0  0  0
    2.5415    1.6318   -1.2410 H   0  0  0  0  0  0  0  0  0  0  0  0
    7.3538    2.3396   -0.8532 H   0  0  0  0  0  0  0  0  0  0  0  0
    9.5610   -0.8578    0.8171 H   0  0  0  0  0  0  0  0  0  0  0  0
    7.5643   -2.1989    1.0995 H   0  0  0  0  0  0  0  0  0  0  0  0
    4.7390   -2.1195    0.6616 H   0  0  0  0  0  0  0  0  0  0  0  0
    2.6657   -2.2601    0.4227 H   0  0  0  0  0  0  0  0  0  0  0  0
   -2.4325   -2.5370   -1.1733 H   0  0  0  0  0  0  0  0  0  0  0  0
   -1.3009   -2.5403    0.2389 H   0  0  0  0  0  0  0  0  0  0  0  0
   -3.8153   -2.5198    0.6173 H   0  0  0  0  0  0  0  0  0  0  0  0
   -2.8860   -1.3559    1.5808 H   0  0  0  0  0  0  0  0  0  0  0  0
   -4.9776    0.4682    1.6820 H   0  0  0  0  0  0  0  0  0  0  0  0
   -5.6976   -1.1231    1.1134 H   0  0  0  0  0  0  0  0  0  0  0  0
  1  2  2  0
  2  3  1  0
  2  4  1  0
  4  5  1  0
  5  6  1  0
  6  7  1  0
  7  8  1  0
  8  9  1  0
  9 10  1  0
 10 11  1  0
 11 12  1  0
 12 13  2  0
 13 14  1  0
 14 15  2  0
 15 16  1  0
 16 17  2  0
 17 18  1  0
 18 19  2  0
 19 20  1  0
 20 21  1  0
 21 22  1  0
 21 23  1  0
 21 24  1  0
 20 25  2  0
 25 26  1  0
 26 27  2  0
 27 28  1  0
 15 29  1  0
 29 30  2  0
 11 31  1  0
 31 32  1  0
  8 33  1  0
 33  5  1  0
 32  8  1  0
 30 12  1  0
 28 16  1  0
 27 18  1  0
  3 34  1  0
  4 35  1  0
  4 36  1  0
  5 37  1  6
  6 38  1  0
  6 39  1  0
  9 40  1  0
  9 41  1  0
 10 42  1  0
 10 43  1  0
 13 44  1  0
 14 45  1  0
 19 46  1  0
 25 47  1  0
 26 48  1  0
 28 49  1  0
 29 50  1  0
 31 51  1  0
 31 52  1  0
 32 53  1  0
 32 54  1  0
 33 55  1  0
 33 56  1  0
M  END
$$$$
