@<TRIPOS>MOLECULE
*****
 56 60 0 0 0
SMALL
GASTEIGER

@<TRIPOS>ATOM
      1 O          -9.0337    1.0344    1.9417 O.2     1  UNL1       -0.2510
      2 C          -7.8872    1.0371    1.4399 C.2     1  UNL1        0.3050
      3 O          -6.8977    1.7251    2.1230 O.3     1  UNL1       -0.4806
      4 C          -7.5862    0.3356    0.1651 C.3     1  UNL1        0.0498
      5 C          -6.1315    0.5146   -0.1836 C.3     1  UNL1       -0.0049
      6 C          -5.7446   -0.1630   -1.4575 C.3     1  UNL1        0.0518
      7 O          -4.6097   -0.9069   -1.2278 O.3     1  UNL1       -0.3730
      8 C          -4.0427   -0.4950   -0.0435 C.3     1  UNL1        0.0727
      9 C          -3.1560    0.7162   -0.2874 C.3     1  UNL1       -0.0079
     10 C          -2.1990    0.2776   -1.4144 C.3     1  UNL1        0.0161
     11 N          -1.3734   -0.7156   -0.8126 N.pl3   1  UNL1       -0.3150
     12 C           0.0217   -0.5722   -0.6707 C.ar    1  UNL1        0.1212
     13 C           0.7080    0.5544   -1.0485 C.ar    1  UNL1       -0.0210
     14 C           2.0675    0.7082   -0.9185 C.ar    1  UNL1       -0.0464
     15 C           2.7915   -0.3309   -0.3751 C.ar    1  UNL1        0.0355
     16 C           4.2356   -0.2198   -0.2152 C.ar    1  UNL1        0.1407
     17 N           4.9576    0.8394   -0.5606 N.ar    1  UNL1       -0.2277
     18 C           6.2364    0.5737   -0.2650 C.ar    1  UNL1        0.0900
     19 C           7.3735    1.3362   -0.4253 C.ar    1  UNL1       -0.0226
     20 C           8.6012    0.8345   -0.0372 C.ar    1  UNL1        0.0569
     21 C           9.8294    1.6447   -0.2047 C.3     1  UNL1        0.4175
     22 F           9.8110    2.1205   -1.5165 F       1  UNL1       -0.1659
     23 F           9.7104    2.7438    0.6254 F       1  UNL1       -0.1659
     24 F          10.9496    0.9015    0.0388 F       1  UNL1       -0.1659
     25 C           8.6192   -0.4315    0.5017 C.ar    1  UNL1       -0.0480
     26 C           7.4869   -1.2041    0.6670 C.ar    1  UNL1       -0.0357
     27 C           6.2668   -0.6957    0.2771 C.ar    1  UNL1        0.0665
     28 N           5.0242   -1.1851    0.3066 N.ar    1  UNL1       -0.3378
     29 C           2.0855   -1.4473   -0.0043 C.ar    1  UNL1        0.0403
     30 N           0.7707   -1.5833   -0.1355 N.ar    1  UNL1       -0.2396
     31 C          -2.0235   -1.9106   -0.3323 C.3     1  UNL1        0.0161
     32 C          -3.2061   -1.5893    0.5570 C.3     1  UNL1       -0.0079
     33 C          -5.2177   -0.1608    0.8215 C.3     1  UNL1       -0.0182
     34 H          -7.0558    2.5213    2.7059 H       1  UNL1        0.2951
     35 H          -7.8774   -0.7153    0.2934 H       1  UNL1        0.0381
     36 H          -8.1720    0.8329   -0.6347 H       1  UNL1        0.0381
     37 H          -5.9155    1.6010   -0.1890 H       1  UNL1        0.0329
     38 H          -6.5331   -0.8782   -1.8211 H       1  UNL1        0.0563
     39 H          -5.5559    0.5846   -2.2579 H       1  UNL1        0.0563
     40 H          -3.7033    1.5746   -0.6713 H       1  UNL1        0.0308
     41 H          -2.5400    0.9190    0.6122 H       1  UNL1        0.0308
     42 H          -2.8626   -0.1758   -2.2089 H       1  UNL1        0.0465
     43 H          -1.7244    1.1226   -1.8887 H       1  UNL1        0.0465
     44 H           0.1867    1.3993   -1.4788 H       1  UNL1        0.0652
     45 H           2.5415    1.6318   -1.2410 H       1  UNL1        0.0626
     46 H           7.3538    2.3396   -0.8532 H       1  UNL1        0.0645
     47 H           9.5610   -0.8578    0.8171 H       1  UNL1        0.0624
     48 H           7.5643   -2.1989    1.0995 H       1  UNL1        0.0639
     49 H           4.7390   -2.1195    0.6616 H       1  UNL1        0.1674
     50 H           2.6657   -2.2601    0.4227 H       1  UNL1        0.0837
     51 H          -2.4325   -2.5370   -1.1733 H       1  UNL1        0.0465
     52 H          -1.3009   -2.5403    0.2389 H       1  UNL1        0.0465
     53 H          -3.8153   -2.5198    0.6173 H       1  UNL1        0.0308
     54 H          -2.8860   -1.3559    1.5808 H       1  UNL1        0.0308
     55 H          -4.9776    0.4682    1.6820 H       1  UNL1        0.0296
     56 H          -5.6976   -1.1231    1.1134 H       1  UNL1        0.0296
@<TRIPOS>BOND
     1     1     2    2
     2     2     3    1
     3     2     4    1
     4     4     5    1
     5     5     6    1
     6     6     7    1
     7     7     8    1
     8     8     9    1
     9     9    10    1
    10    10    11    1
    11    11    12    1
    12    12    13   ar
    13    13    14   ar
    14    14    15   ar
    15    15    16    1
    16    16    17   ar
    17    17    18   ar
    18    18    19   ar
    19    19    20   ar
    20    20    21    1
    21    21    22    1
    22    21    23    1
    23    21    24    1
    24    20    25   ar
    25    25    26   ar
    26    26    27   ar
    27    27    28   ar
    28    15    29   ar
    29    29    30   ar
    30    11    31    1
    31    31    32    1
    32     8    33    1
    33    33     5    1
    34    32     8    1
    35    30    12   ar
    36    28    16   ar
    37    27    18   ar
    38     3    34    1
    39     4    35    1
    40     4    36    1
    41     5    37    1
    42     6    38    1
    43     6    39    1
    44     9    40    1
    45     9    41    1
    46    10    42    1
    47    10    43    1
    48    13    44    1
    49    14    45    1
    50    19    46    1
    51    25    47    1
    52    26    48    1
    53    28    49    1
    54    29    50    1
    55    31    51    1
    56    31    52    1
    57    32    53    1
    58    32    54    1
    59    33    55    1
    60    33    56    1
