
     RDKit          3D

 59 63  0  0  0  0  0  0  0  0999 V2000
    2.9849   -2.3549   -3.1495 O   0  0  0  0  0  0  0  0  0  0  0  0
    3.2898   -2.0320   -1.9727 C   0  0  0  0  0  0  0  0  0  0  0  0
    4.5150   -2.3436   -1.2537 C   0  0  0  0  0  0  0  0  0  0  0  0
    5.4740   -3.0007   -1.7206 O   0  0  0  0  0  0  0  0  0  0  0  0
    4.3944   -1.7586    0.0565 N   0  0  0  0  0  0  0  0  0  0  0  0
    5.4378   -1.8772    1.0371 C   0  0  0  0  0  0  0  0  0  0  0  0
    6.3678   -0.7313    0.8715 C   0  0  0  0  0  0  0  0  0  0  0  0
    7.4668   -0.7801    0.0331 C   0  0  0  0  0  0  0  0  0  0  0  0
    8.3085    0.3160   -0.0889 C   0  0  0  0  0  0  0  0  0  0  0  0
    8.0655    1.4718    0.6219 C   0  0  0  0  0  0  0  0  0  0  0  0
    8.9312    2.5423    0.4705 O   0  0  0  0  0  0  0  0  0  0  0  0
    6.9786    1.5307    1.4559 C   0  0  0  0  0  0  0  0  0  0  0  0
    6.1479    0.4297    1.5675 C   0  0  0  0  0  0  0  0  0  0  0  0
    3.1307   -1.1061    0.1401 C   0  0  0  0  0  0  0  0  0  0  0  0
    2.5428   -0.4106    1.1571 C   0  0  0  0  0  0  0  0  0  0  0  0
    1.2694    0.1480    0.9961 C   0  0  0  0  0  0  0  0  0  0  0  0
    0.5800    0.0114   -0.1857 C   0  0  0  0  0  0  0  0  0  0  0  0
   -1.0019    0.6832   -0.4569 S   0  0  0  0  0  6  0  0  0  0  0  0
   -1.1358    0.9596   -1.9477 O   0  0  0  0  0  0  0  0  0  0  0  0
   -1.0510    2.0193    0.2180 O   0  0  0  0  0  0  0  0  0  0  0  0
   -2.2607   -0.3562    0.0402 N   0  0  0  0  0  0  0  0  0  0  0  0
   -2.1910   -1.5807   -0.7262 C   0  0  0  0  0  0  0  0  0  0  0  0
   -2.9263   -1.3606   -2.0049 C   0  0  0  0  0  0  0  0  0  0  0  0
   -3.7210   -0.1103   -1.8213 C   0  0  0  0  0  0  0  0  0  0  0  0
   -3.5747    0.1579   -0.3273 C   0  0  1  0  0  0  0  0  0  0  0  0
   -4.5919   -0.7158    0.3658 C   0  0  0  0  0  0  0  0  0  0  0  0
   -5.9081   -0.4187    0.1752 O   0  0  0  0  0  0  0  0  0  0  0  0
   -6.6813    0.6685    0.4949 C   0  0  0  0  0  0  0  0  0  0  0  0
   -8.0413    0.6793    0.1248 C   0  0  0  0  0  0  0  0  0  0  0  0
   -8.8521    1.7379    0.4228 C   0  0  0  0  0  0  0  0  0  0  0  0
   -8.4022    2.8500    1.0952 C   0  0  0  0  0  0  0  0  0  0  0  0
   -7.0782    2.8445    1.4585 C   0  0  0  0  0  0  0  0  0  0  0  0
   -6.2278    1.7781    1.1680 C   0  0  0  0  0  0  0  0  0  0  0  0
    1.1913   -0.6936   -1.1980 C   0  0  0  0  0  0  0  0  0  0  0  0
    2.4528   -1.2515   -1.0495 C   0  0  0  0  0  0  0  0  0  0  0  0
    6.0313   -2.8131    0.8796 H   0  0  0  0  0  0  0  0  0  0  0  0
    5.0129   -1.8885    2.0689 H   0  0  0  0  0  0  0  0  0  0  0  0
    7.6721   -1.6782   -0.5315 H   0  0  0  0  0  0  0  0  0  0  0  0
    9.1685    0.2771   -0.7453 H   0  0  0  0  0  0  0  0  0  0  0  0
    8.7449    3.4064    0.9865 H   0  0  0  0  0  0  0  0  0  0  0  0
    6.7721    2.4242    2.0193 H   0  0  0  0  0  0  0  0  0  0  0  0
    5.3161    0.5242    2.2291 H   0  0  0  0  0  0  0  0  0  0  0  0
    3.0700   -0.2954    2.0897 H   0  0  0  0  0  0  0  0  0  0  0  0
    0.8323    0.6877    1.8085 H   0  0  0  0  0  0  0  0  0  0  0  0
   -1.0965   -1.7567   -0.9173 H   0  0  0  0  0  0  0  0  0  0  0  0
   -2.5196   -2.4735   -0.1551 H   0  0  0  0  0  0  0  0  0  0  0  0
   -2.1934   -1.1945   -2.8279 H   0  0  0  0  0  0  0  0  0  0  0  0
   -3.5368   -2.2317   -2.3190 H   0  0  0  0  0  0  0  0  0  0  0  0
   -4.8092   -0.2469   -1.9975 H   0  0  0  0  0  0  0  0  0  0  0  0
   -3.4073    0.7396   -2.4400 H   0  0  0  0  0  0  0  0  0  0  0  0
   -3.6964    1.2070   -0.1063 H   0  0  0  0  0  0  0  0  0  0  0  0
   -4.3403   -0.8023    1.4692 H   0  0  0  0  0  0  0  0  0  0  0  0
   -4.4178   -1.7722   -0.0173 H   0  0  0  0  0  0  0  0  0  0  0  0
   -8.4213   -0.1715   -0.3994 H   0  0  0  0  0  0  0  0  0  0  0  0
   -9.9173    1.7581    0.1388 H   0  0  0  0  0  0  0  0  0  0  0  0
   -9.0312    3.6914    1.3360 H   0  0  0  0  0  0  0  0  0  0  0  0
   -6.6506    3.7023    1.9993 H   0  0  0  0  0  0  0  0  0  0  0  0
   -5.1892    1.8084    1.4911 H   0  0  0  0  0  0  0  0  0  0  0  0
    0.7230   -0.8478   -2.1619 H   0  0  0  0  0  0  0  0  0  0  0  0
  1  2  2  0
  2  3  1  0
  3  4  2  0
  3  5  1  0
  5  6  1  0
  6  7  1  0
  7  8  2  0
  8  9  1  0
  9 10  2  0
 10 11  1  0
 10 12  1  0
 12 13  2  0
  5 14  1  0
 14 15  2  0
 15 16  1  0
 16 17  2  0
 17 18  1  0
 18 19  2  0
 18 20  2  0
 18 21  1  0
 21 22  1  0
 22 23  1  0
 23 24  1  0
 24 25  1  0
 25 26  1  0
 26 27  1  0
 27 28  1  0
 28 29  2  0
 29 30  1  0
 30 31  2  0
 31 32  1  0
 32 33  2  0
 17 34  1  0
 34 35  2  0
 35  2  1  0
 13  7  1  0
 35 14  1  0
 25 21  1  0
 33 28  1  0
  6 36  1  0
  6 37  1  0
  8 38  1  0
  9 39  1  0
 11 40  1  0
 12 41  1  0
 13 42  1  0
 15 43  1  0
 16 44  1  0
 22 45  1  0
 22 46  1  0
 23 47  1  0
 23 48  1  0
 24 49  1  0
 24 50  1  0
 25 51  1  6
 26 52  1  0
 26 53  1  0
 29 54  1  0
 30 55  1  0
 31 56  1  0
 32 57  1  0
 33 58  1  0
 34 59  1  0
M  END
$$$$
