@<TRIPOS>MOLECULE
*****
 59 63 0 0 0
SMALL
GASTEIGER

@<TRIPOS>ATOM
      1 O           2.9849   -2.3549   -3.1495 O.2     1  UNL1       -0.2817
      2 C           3.2898   -2.0320   -1.9727 C.2     1  UNL1        0.2496
      3 C           4.5150   -2.3436   -1.2537 C.2     1  UNL1        0.2915
      4 O           5.4740   -3.0007   -1.7206 O.2     1  UNL1       -0.2661
      5 N           4.3944   -1.7586    0.0565 N.am    1  UNL1       -0.2598
      6 C           5.4378   -1.8772    1.0371 C.3     1  UNL1        0.0452
      7 C           6.3678   -0.7313    0.8715 C.ar    1  UNL1       -0.0295
      8 C           7.4668   -0.7801    0.0331 C.ar    1  UNL1       -0.0536
      9 C           8.3085    0.3160   -0.0889 C.ar    1  UNL1       -0.0199
     10 C           8.0655    1.4718    0.6219 C.ar    1  UNL1        0.1169
     11 O           8.9312    2.5423    0.4705 O.3     1  UNL1       -0.5068
     12 C           6.9786    1.5307    1.4559 C.ar    1  UNL1       -0.0199
     13 C           6.1479    0.4297    1.5675 C.ar    1  UNL1       -0.0536
     14 C           3.1307   -1.1061    0.1401 C.ar    1  UNL1        0.0481
     15 C           2.5428   -0.4106    1.1571 C.ar    1  UNL1       -0.0377
     16 C           1.2694    0.1480    0.9961 C.ar    1  UNL1       -0.0335
     17 C           0.5800    0.0114   -0.1857 C.ar    1  UNL1        0.1063
     18 S          -1.0019    0.6832   -0.4569 S.O2    1  UNL1        0.0612
     19 O          -1.1358    0.9596   -1.9477 O.2     1  UNL1       -0.1528
     20 O          -1.0510    2.0193    0.2180 O.2     1  UNL1       -0.1528
     21 N          -2.2607   -0.3562    0.0402 N.3     1  UNL1       -0.1703
     22 C          -2.1910   -1.5807   -0.7262 C.3     1  UNL1        0.0210
     23 C          -2.9263   -1.3606   -2.0049 C.3     1  UNL1       -0.0370
     24 C          -3.7210   -0.1103   -1.8213 C.3     1  UNL1       -0.0313
     25 C          -3.5747    0.1579   -0.3273 C.3     1  UNL1        0.0659
     26 C          -4.5919   -0.7158    0.3658 C.3     1  UNL1        0.1067
     27 O          -5.9081   -0.4187    0.1752 O.3     1  UNL1       -0.4904
     28 C          -6.6813    0.6685    0.4949 C.ar    1  UNL1        0.1206
     29 C          -8.0413    0.6793    0.1248 C.ar    1  UNL1       -0.0199
     30 C          -8.8521    1.7379    0.4228 C.ar    1  UNL1       -0.0583
     31 C          -8.4022    2.8500    1.0952 C.ar    1  UNL1       -0.0615
     32 C          -7.0782    2.8445    1.4585 C.ar    1  UNL1       -0.0583
     33 C          -6.2278    1.7781    1.1680 C.ar    1  UNL1       -0.0199
     34 C           1.1913   -0.6936   -1.1980 C.ar    1  UNL1       -0.0226
     35 C           2.4528   -1.2515   -1.0495 C.ar    1  UNL1        0.0502
     36 H           6.0313   -2.8131    0.8796 H       1  UNL1        0.0518
     37 H           5.0129   -1.8885    2.0689 H       1  UNL1        0.0518
     38 H           7.6721   -1.6782   -0.5315 H       1  UNL1        0.0622
     39 H           9.1685    0.2771   -0.7453 H       1  UNL1        0.0654
     40 H           8.7449    3.4064    0.9865 H       1  UNL1        0.2921
     41 H           6.7721    2.4242    2.0193 H       1  UNL1        0.0654
     42 H           5.3161    0.5242    2.2291 H       1  UNL1        0.0622
     43 H           3.0700   -0.2954    2.0897 H       1  UNL1        0.0637
     44 H           0.8323    0.6877    1.8085 H       1  UNL1        0.0638
     45 H          -1.0965   -1.7567   -0.9173 H       1  UNL1        0.0444
     46 H          -2.5196   -2.4735   -0.1551 H       1  UNL1        0.0444
     47 H          -2.1934   -1.1945   -2.8279 H       1  UNL1        0.0279
     48 H          -3.5368   -2.2317   -2.3190 H       1  UNL1        0.0279
     49 H          -4.8092   -0.2469   -1.9975 H       1  UNL1        0.0282
     50 H          -3.4073    0.7396   -2.4400 H       1  UNL1        0.0282
     51 H          -3.6964    1.2070   -0.1063 H       1  UNL1        0.0513
     52 H          -4.3403   -0.8023    1.4692 H       1  UNL1        0.0713
     53 H          -4.4178   -1.7722   -0.0173 H       1  UNL1        0.0713
     54 H          -8.4213   -0.1715   -0.3994 H       1  UNL1        0.0654
     55 H          -9.9173    1.7581    0.1388 H       1  UNL1        0.0619
     56 H          -9.0312    3.6914    1.3360 H       1  UNL1        0.0618
     57 H          -6.6506    3.7023    1.9993 H       1  UNL1        0.0619
     58 H          -5.1892    1.8084    1.4911 H       1  UNL1        0.0654
     59 H           0.7230   -0.8478   -2.1619 H       1  UNL1        0.0645
@<TRIPOS>BOND
     1     1     2    2
     2     2     3    1
     3     3     4    2
     4     3     5   am
     5     5     6    1
     6     6     7    1
     7     7     8   ar
     8     8     9   ar
     9     9    10   ar
    10    10    11    1
    11    10    12   ar
    12    12    13   ar
    13     5    14    1
    14    14    15   ar
    15    15    16   ar
    16    16    17   ar
    17    17    18    1
    18    18    19    2
    19    18    20    2
    20    18    21    1
    21    21    22    1
    22    22    23    1
    23    23    24    1
    24    24    25    1
    25    25    26    1
    26    26    27    1
    27    27    28    1
    28    28    29   ar
    29    29    30   ar
    30    30    31   ar
    31    31    32   ar
    32    32    33   ar
    33    17    34   ar
    34    34    35   ar
    35    35     2    1
    36    13     7   ar
    37    35    14   ar
    38    25    21    1
    39    33    28   ar
    40     6    36    1
    41     6    37    1
    42     8    38    1
    43     9    39    1
    44    11    40    1
    45    12    41    1
    46    13    42    1
    47    15    43    1
    48    16    44    1
    49    22    45    1
    50    22    46    1
    51    23    47    1
    52    23    48    1
    53    24    49    1
    54    24    50    1
    55    25    51    1
    56    26    52    1
    57    26    53    1
    58    29    54    1
    59    30    55    1
    60    31    56    1
    61    32    57    1
    62    33    58    1
    63    34    59    1
