@<TRIPOS>MOLECULE
*****
 42 44 0 0 0
SMALL
GASTEIGER

@<TRIPOS>ATOM
      1 C           2.9573    1.3041   -2.4859 C.3     1  UNL1       -0.0652
      2 C           2.1646    0.4288   -1.5268 C.3     1  UNL1       -0.0530
      3 C           2.4155    0.8776   -0.0871 C.3     1  UNL1       -0.0188
      4 C           1.5870   -0.0472    0.7889 C.3     1  UNL1        0.1107
      5 C           1.7522    0.3026    2.2614 C.3     1  UNL1        0.0784
      6 C           3.1180    0.1922    2.7604 C.2     1  UNL1        0.3078
      7 O           4.0505   -0.1971    2.0337 O.2     1  UNL1       -0.2509
      8 O           3.3994    0.5250    4.0715 O.3     1  UNL1       -0.4805
      9 O           2.0882   -1.3027    0.6197 O.3     1  UNL1       -0.3674
     10 C           1.2226   -2.2508    0.1906 C.3     1  UNL1        0.0529
     11 C          -0.1395   -2.1941    0.8553 C.3     1  UNL1       -0.0026
     12 C          -0.7783   -0.9062    0.3535 C.ar    1  UNL1       -0.0232
     13 C           0.1871    0.1017    0.3516 C.ar    1  UNL1        0.0263
     14 S          -0.6226    1.5032   -0.2413 S.2     1  UNL1       -0.0897
     15 C          -2.2372    0.7090   -0.4727 C.ar    1  UNL1        0.0243
     16 C          -3.4161    1.2379   -0.9310 C.ar    1  UNL1       -0.0334
     17 C          -3.4285    2.6623   -1.3137 C.3     1  UNL1       -0.0386
     18 C          -4.5284    0.4260   -1.0144 C.ar    1  UNL1       -0.0212
     19 C          -4.3451   -0.8756   -0.6180 C.ar    1  UNL1        0.1416
     20 F          -5.4328   -1.7031   -0.6901 F       1  UNL1       -0.2041
     21 C          -3.1457   -1.4009   -0.1552 C.ar    1  UNL1        0.0953
     22 C          -3.1411   -2.7861    0.2326 C.1     1  UNL1        0.1027
     23 N          -3.1517   -3.9255    0.5362 N.1     1  UNL1       -0.1908
     24 C          -2.0090   -0.5725   -0.0708 C.ar    1  UNL1        0.0132
     25 H           2.9664    0.7519   -3.4643 H       1  UNL1        0.0230
     26 H           4.0118    1.3985   -2.1587 H       1  UNL1        0.0230
     27 H           2.4750    2.2761   -2.6632 H       1  UNL1        0.0230
     28 H           2.5612   -0.5818   -1.6279 H       1  UNL1        0.0264
     29 H           1.1082    0.4906   -1.8131 H       1  UNL1        0.0264
     30 H           1.9914    1.8964   -0.0121 H       1  UNL1        0.0296
     31 H           3.4865    0.8200    0.0663 H       1  UNL1        0.0296
     32 H           1.1120   -0.3411    2.8980 H       1  UNL1        0.0410
     33 H           1.3321    1.3318    2.3563 H       1  UNL1        0.0410
     34 H           4.3723    0.6544    4.3889 H       1  UNL1        0.2951
     35 H           1.0534   -2.2898   -0.8852 H       1  UNL1        0.0563
     36 H           1.6477   -3.2581    0.4741 H       1  UNL1        0.0563
     37 H          -0.0924   -2.1757    1.9558 H       1  UNL1        0.0336
     38 H          -0.6610   -3.0832    0.5435 H       1  UNL1        0.0336
     39 H          -2.8819    3.3001   -0.5673 H       1  UNL1        0.0278
     40 H          -3.1180    2.8507   -2.3429 H       1  UNL1        0.0278
     41 H          -4.5022    2.9969   -1.2256 H       1  UNL1        0.0278
     42 H          -5.4292    0.8535   -1.3711 H       1  UNL1        0.0649
@<TRIPOS>BOND
     1     1     2    1
     2     2     3    1
     3     4     3    1
     4     4     5    1
     5     5     6    1
     6     6     7    2
     7     6     8    1
     8     4     9    1
     9     9    10    1
    10    10    11    1
    11    11    12    1
    12    12    13   ar
    13    13    14   ar
    14    14    15   ar
    15    15    16   ar
    16    16    17    1
    17    16    18   ar
    18    18    19   ar
    19    19    20    1
    20    19    21   ar
    21    21    22    1
    22    22    23    3
    23    21    24   ar
    24    13     4    1
    25    24    15   ar
    26    24    12   ar
    27     1    25    1
    28     1    26    1
    29     1    27    1
    30     2    28    1
    31     2    29    1
    32     3    30    1
    33     3    31    1
    34     5    32    1
    35     5    33    1
    36     8    34    1
    37    10    35    1
    38    10    36    1
    39    11    37    1
    40    11    38    1
    41    17    39    1
    42    17    40    1
    43    17    41    1
    44    18    42    1
