
     RDKit          3D

 42 44  0  0  0  0  0  0  0  0999 V2000
    2.9573    1.3041   -2.4859 C   0  0  0  0  0  0  0  0  0  0  0  0
    2.1646    0.4288   -1.5268 C   0  0  0  0  0  0  0  0  0  0  0  0
    2.4155    0.8776   -0.0871 C   0  0  0  0  0  0  0  0  0  0  0  0
    1.5870   -0.0472    0.7889 C   0  0  2  0  0  0  0  0  0  0  0  0
    1.7522    0.3026    2.2614 C   0  0  0  0  0  0  0  0  0  0  0  0
    3.1180    0.1922    2.7604 C   0  0  0  0  0  0  0  0  0  0  0  0
    4.0505   -0.1971    2.0337 O   0  0  0  0  0  0  0  0  0  0  0  0
    3.3994    0.5250    4.0715 O   0  0  0  0  0  0  0  0  0  0  0  0
    2.0882   -1.3027    0.6197 O   0  0  0  0  0  0  0  0  0  0  0  0
    1.2226   -2.2508    0.1906 C   0  0  0  0  0  0  0  0  0  0  0  0
   -0.1395   -2.1941    0.8553 C   0  0  0  0  0  0  0  0  0  0  0  0
   -0.7783   -0.9062    0.3535 C   0  0  0  0  0  0  0  0  0  0  0  0
    0.1871    0.1017    0.3516 C   0  0  0  0  0  0  0  0  0  0  0  0
   -0.6226    1.5032   -0.2413 S   0  0  0  0  0  0  0  0  0  0  0  0
   -2.2372    0.7090   -0.4727 C   0  0  0  0  0  0  0  0  0  0  0  0
   -3.4161    1.2379   -0.9310 C   0  0  0  0  0  0  0  0  0  0  0  0
   -3.4285    2.6623   -1.3137 C   0  0  0  0  0  0  0  0  0  0  0  0
   -4.5284    0.4260   -1.0144 C   0  0  0  0  0  0  0  0  0  0  0  0
   -4.3451   -0.8756   -0.6180 C   0  0  0  0  0  0  0  0  0  0  0  0
   -5.4328   -1.7031   -0.6901 F   0  0  0  0  0  0  0  0  0  0  0  0
   -3.1457   -1.4009   -0.1552 C   0  0  0  0  0  0  0  0  0  0  0  0
   -3.1411   -2.7861    0.2326 C   0  0  0  0  0  0  0  0  0  0  0  0
   -3.1517   -3.9255    0.5362 N   0  0  0  0  0  0  0  0  0  0  0  0
   -2.0090   -0.5725   -0.0708 C   0  0  0  0  0  0  0  0  0  0  0  0
    2.9664    0.7519   -3.4643 H   0  0  0  0  0  0  0  0  0  0  0  0
    4.0118    1.3985   -2.1587 H   0  0  0  0  0  0  0  0  0  0  0  0
    2.4750    2.2761   -2.6632 H   0  0  0  0  0  0  0  0  0  0  0  0
    2.5612   -0.5818   -1.6279 H   0  0  0  0  0  0  0  0  0  0  0  0
    1.1082    0.4906   -1.8131 H   0  0  0  0  0  0  0  0  0  0  0  0
    1.9914    1.8964   -0.0121 H   0  0  0  0  0  0  0  0  0  0  0  0
    3.4865    0.8200    0.0663 H   0  0  0  0  0  0  0  0  0  0  0  0
    1.1120   -0.3411    2.8980 H   0  0  0  0  0  0  0  0  0  0  0  0
    1.3321    1.3318    2.3563 H   0  0  0  0  0  0  0  0  0  0  0  0
    4.3723    0.6544    4.3889 H   0  0  0  0  0  0  0  0  0  0  0  0
    1.0534   -2.2898   -0.8852 H   0  0  0  0  0  0  0  0  0  0  0  0
    1.6477   -3.2581    0.4741 H   0  0  0  0  0  0  0  0  0  0  0  0
   -0.0924   -2.1757    1.9558 H   0  0  0  0  0  0  0  0  0  0  0  0
   -0.6610   -3.0832    0.5435 H   0  0  0  0  0  0  0  0  0  0  0  0
   -2.8819    3.3001   -0.5673 H   0  0  0  0  0  0  0  0  0  0  0  0
   -3.1180    2.8507   -2.3429 H   0  0  0  0  0  0  0  0  0  0  0  0
   -4.5022    2.9969   -1.2256 H   0  0  0  0  0  0  0  0  0  0  0  0
   -5.4292    0.8535   -1.3711 H   0  0  0  0  0  0  0  0  0  0  0  0
  1  2  1  0
  2  3  1  0
  4  3  1  6
  4  5  1  0
  5  6  1  0
  6  7  2  0
  6  8  1  0
  4  9  1  0
  9 10  1  0
 10 11  1  0
 11 12  1  0
 12 13  2  0
 13 14  1  0
 14 15  1  0
 15 16  2  0
 16 17  1  0
 16 18  1  0
 18 19  2  0
 19 20  1  0
 19 21  1  0
 21 22  1  0
 22 23  3  0
 21 24  2  0
 13  4  1  0
 24 15  1  0
 24 12  1  0
  1 25  1  0
  1 26  1  0
  1 27  1  0
  2 28  1  0
  2 29  1  0
  3 30  1  0
  3 31  1  0
  5 32  1  0
  5 33  1  0
  8 34  1  0
 10 35  1  0
 10 36  1  0
 11 37  1  0
 11 38  1  0
 17 39  1  0
 17 40  1  0
 17 41  1  0
 18 42  1  0
M  END
$$$$
