
     RDKit          3D

 51 56  0  0  0  0  0  0  0  0999 V2000
   -3.7363    2.2431   -1.2015 C   0  0  0  0  0  0  0  0  0  0  0  0
   -3.3273    0.9027   -0.6512 C   0  0  0  0  0  0  0  0  0  0  0  0
   -4.1333   -0.0760   -0.2025 N   0  0  0  0  0  0  0  0  0  0  0  0
   -3.4234   -1.1119    0.2060 N   0  0  0  0  0  0  0  0  0  0  0  0
   -3.9447   -2.3495    0.7524 C   0  0  0  0  0  0  0  0  0  0  0  0
   -3.6775   -3.6342    0.0688 C   0  0  0  0  0  0  0  0  0  0  0  0
   -5.0553   -3.0276   -0.0402 C   0  0  0  0  0  0  0  0  0  0  0  0
   -2.1116   -0.8326    0.0318 C   0  0  0  0  0  0  0  0  0  0  0  0
   -2.0382    0.4227   -0.5028 C   0  0  0  0  0  0  0  0  0  0  0  0
   -0.6286    0.8149   -0.7264 C   0  0  1  0  0  0  0  0  0  0  0  0
   -0.3905    2.0585    0.0565 C   0  0  0  0  0  0  0  0  0  0  0  0
   -0.2815    3.2394   -0.6475 C   0  0  0  0  0  0  0  0  0  0  0  0
   -0.0618    4.4202    0.0180 C   0  0  0  0  0  0  0  0  0  0  0  0
    0.0430    4.3772    1.3884 C   0  0  0  0  0  0  0  0  0  0  0  0
    0.3241    5.8791    2.2550 Cl  0  0  0  0  0  0  0  0  0  0  0  0
   -0.0625    3.2079    2.1154 C   0  0  0  0  0  0  0  0  0  0  0  0
   -0.2817    2.0403    1.4341 C   0  0  0  0  0  0  0  0  0  0  0  0
    0.1617   -0.2925   -0.2992 N   0  0  0  0  0  0  0  0  0  0  0  0
    1.5744   -0.4636   -0.2962 C   0  0  0  0  0  0  0  0  0  0  0  0
    2.4091    0.5373   -0.7674 C   0  0  0  0  0  0  0  0  0  0  0  0
    3.7807    0.3844   -0.7689 C   0  0  0  0  0  0  0  0  0  0  0  0
    4.6649    1.4427   -1.2671 C   0  0  0  0  0  0  0  0  0  0  0  0
    4.2867   -0.8036   -0.2830 C   0  0  0  0  0  0  0  0  0  0  0  0
    5.5456   -1.2545   -0.1509 N   0  0  0  0  0  0  0  0  0  0  0  0
    5.4965   -2.4679    0.3730 N   0  0  0  0  0  0  0  0  0  0  0  0
    4.2165   -2.8191    0.5867 C   0  0  0  0  0  0  0  0  0  0  0  0
    3.6519   -4.0681    1.1512 C   0  0  0  0  0  0  0  0  0  0  0  0
    3.4742   -1.7733    0.1736 N   0  0  0  0  0  0  0  0  0  0  0  0
    2.1697   -1.5816    0.1551 N   0  0  0  0  0  0  0  0  0  0  0  0
   -0.7346   -1.2958    0.1662 C   0  0  0  0  0  0  0  0  0  0  0  0
   -0.4290   -2.4373    0.6362 O   0  0  0  0  0  0  0  0  0  0  0  0
   -3.2424    3.0713   -0.6614 H   0  0  0  0  0  0  0  0  0  0  0  0
   -3.5753    2.2737   -2.2981 H   0  0  0  0  0  0  0  0  0  0  0  0
   -4.8272    2.3533   -1.0284 H   0  0  0  0  0  0  0  0  0  0  0  0
   -4.0838   -2.3368    1.8506 H   0  0  0  0  0  0  0  0  0  0  0  0
   -3.0388   -3.6575   -0.8371 H   0  0  0  0  0  0  0  0  0  0  0  0
   -3.5322   -4.5257    0.7124 H   0  0  0  0  0  0  0  0  0  0  0  0
   -5.3644   -2.6055   -1.0014 H   0  0  0  0  0  0  0  0  0  0  0  0
   -5.8679   -3.5299    0.5526 H   0  0  0  0  0  0  0  0  0  0  0  0
   -0.4000    1.0177   -1.7863 H   0  0  0  0  0  0  0  0  0  0  0  0
   -0.3673    3.2521   -1.7309 H   0  0  0  0  0  0  0  0  0  0  0  0
    0.0261    5.3649   -0.5372 H   0  0  0  0  0  0  0  0  0  0  0  0
    0.0291    3.2251    3.2189 H   0  0  0  0  0  0  0  0  0  0  0  0
   -0.3707    1.1077    1.9547 H   0  0  0  0  0  0  0  0  0  0  0  0
    1.9227    1.4376   -1.1315 H   0  0  0  0  0  0  0  0  0  0  0  0
    4.7127    1.3755   -2.3678 H   0  0  0  0  0  0  0  0  0  0  0  0
    5.7037    1.2658   -0.9015 H   0  0  0  0  0  0  0  0  0  0  0  0
    4.3559    2.4664   -0.9417 H   0  0  0  0  0  0  0  0  0  0  0  0
    2.8419   -4.4841    0.4886 H   0  0  0  0  0  0  0  0  0  0  0  0
    3.1927   -3.8897    2.1289 H   0  0  0  0  0  0  0  0  0  0  0  0
    4.4043   -4.8631    1.2369 H   0  0  0  0  0  0  0  0  0  0  0  0
  1  2  1  0
  2  3  2  0
  3  4  1  0
  4  5  1  0
  5  6  1  0
  6  7  1  0
  4  8  1  0
  8  9  2  0
  9 10  1  0
 10 11  1  0
 11 12  2  0
 12 13  1  0
 13 14  2  0
 14 15  1  0
 14 16  1  0
 16 17  2  0
 10 18  1  0
 18 19  1  0
 19 20  1  0
 20 21  2  0
 21 22  1  0
 21 23  1  0
 23 24  2  0
 24 25  1  0
 25 26  2  0
 26 27  1  0
 26 28  1  0
 28 29  1  0
 18 30  1  0
 30 31  2  0
  9  2  1  0
 17 11  1  0
 29 19  2  0
  7  5  1  0
 30  8  1  0
 28 23  1  0
  1 32  1  0
  1 33  1  0
  1 34  1  0
  5 35  1  0
  6 36  1  0
  6 37  1  0
  7 38  1  0
  7 39  1  0
 10 40  1  6
 12 41  1  0
 13 42  1  0
 16 43  1  0
 17 44  1  0
 20 45  1  0
 22 46  1  0
 22 47  1  0
 22 48  1  0
 27 49  1  0
 27 50  1  0
 27 51  1  0
M  END
$$$$
