@<TRIPOS>MOLECULE
*****
 51 56 0 0 0
SMALL
GASTEIGER

@<TRIPOS>ATOM
      1 C          -3.7363    2.2431   -1.2015 C.3     1  UNL1       -0.0203
      2 C          -3.3273    0.9027   -0.6512 C.ar    1  UNL1        0.0660
      3 N          -4.1333   -0.0760   -0.2025 N.ar    1  UNL1       -0.1752
      4 N          -3.4234   -1.1119    0.2060 N.ar    1  UNL1       -0.2556
      5 C          -3.9447   -2.3495    0.7524 C.3     1  UNL1        0.0537
      6 C          -3.6775   -3.6342    0.0688 C.3     1  UNL1       -0.0285
      7 C          -5.0553   -3.0276   -0.0402 C.3     1  UNL1       -0.0285
      8 C          -2.1116   -0.8326    0.0318 C.ar    1  UNL1        0.1297
      9 C          -2.0382    0.4227   -0.5028 C.ar    1  UNL1        0.0305
     10 C          -0.6286    0.8149   -0.7264 C.3     1  UNL1        0.0868
     11 C          -0.3905    2.0585    0.0565 C.ar    1  UNL1       -0.0220
     12 C          -0.2815    3.2394   -0.6475 C.ar    1  UNL1       -0.0551
     13 C          -0.0618    4.4202    0.0180 C.ar    1  UNL1       -0.0431
     14 C           0.0430    4.3772    1.3884 C.ar    1  UNL1        0.0410
     15 CL          0.3241    5.8791    2.2550 Cl      1  UNL1       -0.0835
     16 C          -0.0625    3.2079    2.1154 C.ar    1  UNL1       -0.0431
     17 C          -0.2817    2.0403    1.4341 C.ar    1  UNL1       -0.0551
     18 N           0.1617   -0.2925   -0.2992 N.am    1  UNL1       -0.2376
     19 C           1.5744   -0.4636   -0.2962 C.ar    1  UNL1        0.1499
     20 C           2.4091    0.5373   -0.7674 C.ar    1  UNL1       -0.0131
     21 C           3.7807    0.3844   -0.7689 C.ar    1  UNL1       -0.0012
     22 C           4.6649    1.4427   -1.2671 C.3     1  UNL1       -0.0360
     23 C           4.2867   -0.8036   -0.2830 C.ar    1  UNL1        0.1809
     24 N           5.5456   -1.2545   -0.1509 N.ar    1  UNL1       -0.1277
     25 N           5.4965   -2.4679    0.3730 N.ar    1  UNL1       -0.1325
     26 C           4.2165   -2.8191    0.5867 C.ar    1  UNL1        0.1521
     27 C           3.6519   -4.0681    1.1512 C.3     1  UNL1       -0.0027
     28 N           3.4742   -1.7733    0.1736 N.ar    1  UNL1       -0.1953
     29 N           2.1697   -1.5816    0.1551 N.ar    1  UNL1       -0.1478
     30 C          -0.7346   -1.2958    0.1662 C.2     1  UNL1        0.2711
     31 O          -0.4290   -2.4373    0.6362 O.2     1  UNL1       -0.2679
     32 H          -3.2424    3.0713   -0.6614 H       1  UNL1        0.0293
     33 H          -3.5753    2.2737   -2.2981 H       1  UNL1        0.0293
     34 H          -4.8272    2.3533   -1.0284 H       1  UNL1        0.0293
     35 H          -4.0838   -2.3368    1.8506 H       1  UNL1        0.0545
     36 H          -3.0388   -3.6575   -0.8371 H       1  UNL1        0.0286
     37 H          -3.5322   -4.5257    0.7124 H       1  UNL1        0.0286
     38 H          -5.3644   -2.6055   -1.0014 H       1  UNL1        0.0286
     39 H          -5.8679   -3.5299    0.5526 H       1  UNL1        0.0286
     40 H          -0.4000    1.0177   -1.7863 H       1  UNL1        0.0606
     41 H          -0.3673    3.2521   -1.7309 H       1  UNL1        0.0621
     42 H           0.0261    5.3649   -0.5372 H       1  UNL1        0.0632
     43 H           0.0291    3.2251    3.2189 H       1  UNL1        0.0632
     44 H          -0.3707    1.1077    1.9547 H       1  UNL1        0.0621
     45 H           1.9227    1.4376   -1.1315 H       1  UNL1        0.0656
     46 H           4.7127    1.3755   -2.3678 H       1  UNL1        0.0279
     47 H           5.7037    1.2658   -0.9015 H       1  UNL1        0.0279
     48 H           4.3559    2.4664   -0.9417 H       1  UNL1        0.0279
     49 H           2.8419   -4.4841    0.4886 H       1  UNL1        0.0309
     50 H           3.1927   -3.8897    2.1289 H       1  UNL1        0.0309
     51 H           4.4043   -4.8631    1.2369 H       1  UNL1        0.0309
@<TRIPOS>BOND
     1     1     2    1
     2     2     3   ar
     3     3     4   ar
     4     4     5    1
     5     5     6    1
     6     6     7    1
     7     4     8   ar
     8     8     9   ar
     9     9    10    1
    10    10    11    1
    11    11    12   ar
    12    12    13   ar
    13    13    14   ar
    14    14    15    1
    15    14    16   ar
    16    16    17   ar
    17    10    18    1
    18    18    19    1
    19    19    20   ar
    20    20    21   ar
    21    21    22    1
    22    21    23   ar
    23    23    24   ar
    24    24    25   ar
    25    25    26   ar
    26    26    27    1
    27    26    28   ar
    28    28    29   ar
    29    18    30   am
    30    30    31    2
    31     9     2   ar
    32    17    11   ar
    33    29    19   ar
    34     7     5    1
    35    30     8    1
    36    28    23   ar
    37     1    32    1
    38     1    33    1
    39     1    34    1
    40     5    35    1
    41     6    36    1
    42     6    37    1
    43     7    38    1
    44     7    39    1
    45    10    40    1
    46    12    41    1
    47    13    42    1
    48    16    43    1
    49    17    44    1
    50    20    45    1
    51    22    46    1
    52    22    47    1
    53    22    48    1
    54    27    49    1
    55    27    50    1
    56    27    51    1
