@<TRIPOS>MOLECULE
*****
 20 19 0 0 0
SMALL
GASTEIGER

@<TRIPOS>ATOM
      1 C          -2.1189    0.4122   -0.0727 C.2     1  UNL1       -0.0705
      2 C          -2.4286   -1.0108   -0.1205 C.3     1  UNL1       -0.0451
      3 C          -0.8809    0.7401    0.2258 C.2     1  UNL1       -0.0024
      4 N          -0.5830    2.1293    0.2714 N.pl3   1  UNL1       -0.3614
      5 C           0.2333   -0.1510    0.5183 C.3     1  UNL1       -0.0053
      6 C           1.3089    0.1427   -0.5368 C.3     1  UNL1        0.0499
      7 C           2.4815   -0.7380   -0.2951 C.2     1  UNL1        0.3050
      8 O           3.5800   -1.5530   -0.0805 O.3     1  UNL1       -0.4806
      9 O           2.1523   -1.4174    0.7109 O.2     1  UNL1       -0.2510
     10 H          -2.8703    1.1765   -0.2733 H       1  UNL1        0.0584
     11 H          -2.6069   -1.3622    0.9311 H       1  UNL1        0.0272
     12 H          -1.6785   -1.6741   -0.5554 H       1  UNL1        0.0272
     13 H          -3.4032   -1.1343   -0.6619 H       1  UNL1        0.0272
     14 H          -0.7923    2.8530   -0.4698 H       1  UNL1        0.1420
     15 H          -0.1169    2.7539    0.9885 H       1  UNL1        0.1420
     16 H           0.0417   -1.2288    0.4473 H       1  UNL1        0.0330
     17 H           0.6559    0.1479    1.4980 H       1  UNL1        0.0330
     18 H           1.6246    1.2034   -0.5233 H       1  UNL1        0.0381
     19 H           0.9435   -0.0822   -1.5530 H       1  UNL1        0.0381
     20 H           4.4579   -1.2070   -0.4490 H       1  UNL1        0.2951
@<TRIPOS>BOND
     1     1     2    1
     2     1     3    2
     3     3     4    1
     4     3     5    1
     5     5     6    1
     6     6     7    1
     7     7     8    1
     8     7     9    2
     9     1    10    1
    10     2    11    1
    11     2    12    1
    12     2    13    1
    13     4    14    1
    14     4    15    1
    15     5    16    1
    16     5    17    1
    17     6    18    1
    18     6    19    1
    19     8    20    1
