
     RDKit          3D

 28 29  0  0  0  0  0  0  0  0999 V2000
    3.9202    0.4400   -1.0418 N   0  0  0  0  0  0  0  0  0  0  0  0
    2.8615    1.2738    0.0385 S   0  0  0  0  0  0  0  0  0  0  0  0
    2.6060    2.6897   -0.4585 O   0  0  0  0  0  0  0  0  0  0  0  0
    3.5567    1.4486    1.3620 O   0  0  0  0  0  0  0  0  0  0  0  0
    1.3146    0.4937    0.1814 C   0  0  0  0  0  0  0  0  0  0  0  0
    0.1206    1.1396   -0.1585 C   0  0  0  0  0  0  0  0  0  0  0  0
   -1.1386    0.5834   -0.0707 C   0  0  0  0  0  0  0  0  0  0  0  0
   -1.2472   -0.7152    0.3880 C   0  0  0  0  0  0  0  0  0  0  0  0
   -2.4995   -1.3272    0.4967 N   0  0  0  0  0  0  0  0  0  0  0  0
   -3.7114   -0.7339    0.0531 C   0  0  0  0  0  0  0  0  0  0  0  0
   -3.8633    0.6700    0.2542 N   0  0  0  0  0  0  0  0  0  0  0  0
   -2.5502    1.5139   -0.5329 S   0  0  0  0  0  0  0  0  0  0  0  0
   -2.4764    2.9407   -0.1275 O   0  0  0  0  0  0  0  0  0  0  0  0
   -2.7314    1.3073   -2.0085 O   0  0  0  0  0  0  0  0  0  0  0  0
   -0.0783   -1.3655    0.7274 C   0  0  0  0  0  0  0  0  0  0  0  0
    1.2088   -0.8207    0.6461 C   0  0  0  0  0  0  0  0  0  0  0  0
    2.4083   -1.5913    1.0315 C   0  0  0  0  0  0  0  0  0  0  0  0
    3.1289   -1.0099    2.0584 F   0  0  0  0  0  0  0  0  0  0  0  0
    3.2270   -1.8983   -0.0484 F   0  0  0  0  0  0  0  0  0  0  0  0
    1.9739   -2.8049    1.5316 F   0  0  0  0  0  0  0  0  0  0  0  0
    4.9195    0.5661   -0.6996 H   0  0  0  0  0  0  0  0  0  0  0  0
    3.8025    0.9079   -1.9804 H   0  0  0  0  0  0  0  0  0  0  0  0
    0.1771    2.1722   -0.5260 H   0  0  0  0  0  0  0  0  0  0  0  0
   -2.4949   -2.2905    0.9430 H   0  0  0  0  0  0  0  0  0  0  0  0
   -3.9096   -0.9258   -1.0367 H   0  0  0  0  0  0  0  0  0  0  0  0
   -4.5598   -1.2269    0.6068 H   0  0  0  0  0  0  0  0  0  0  0  0
   -3.8093    0.9568    1.2570 H   0  0  0  0  0  0  0  0  0  0  0  0
   -0.1557   -2.3936    1.0914 H   0  0  0  0  0  0  0  0  0  0  0  0
  1  2  1  0
  2  3  2  0
  2  4  2  0
  2  5  1  0
  5  6  2  0
  6  7  1  0
  7  8  2  0
  8  9  1  0
  9 10  1  0
 10 11  1  0
 11 12  1  0
 12 13  2  0
 12 14  2  0
  8 15  1  0
 15 16  2  0
 16 17  1  0
 17 18  1  0
 17 19  1  0
 17 20  1  0
 16  5  1  0
 12  7  1  0
  1 21  1  0
  1 22  1  0
  6 23  1  0
  9 24  1  0
 10 25  1  0
 10 26  1  0
 11 27  1  0
 15 28  1  0
M  END
$$$$
