@<TRIPOS>MOLECULE
*****
 25 28 0 0 0
SMALL
GASTEIGER

@<TRIPOS>ATOM
      1 O           0.4460   -2.7288    0.9138 O.2     1  UNL1       -0.2866
      2 C           0.2931   -1.5637    0.5273 C.2     1  UNL1        0.1945
      3 C           1.4352   -0.6724    0.3545 C.ar    1  UNL1        0.0315
      4 C           2.7282   -1.0806    0.6109 C.ar    1  UNL1       -0.0503
      5 C           3.8048   -0.2093    0.4380 C.ar    1  UNL1       -0.0610
      6 C           3.5989    1.0889    0.0039 C.ar    1  UNL1       -0.0611
      7 C           2.3011    1.4785   -0.2470 C.ar    1  UNL1       -0.0518
      8 C           1.2313    0.6356   -0.0826 C.ar    1  UNL1        0.0135
      9 C          -0.1269    1.1190   -0.3693 C.ar    1  UNL1        0.1016
     10 N          -0.6961    2.2603   -0.7888 N.ar    1  UNL1       -0.1727
     11 N          -2.0335    2.1221   -0.8752 N.ar    1  UNL1       -0.2764
     12 C          -2.3560    0.8684   -0.5069 C.ar    1  UNL1        0.0670
     13 C          -3.5155    0.1150   -0.3797 C.ar    1  UNL1       -0.0362
     14 C          -3.4052   -1.1998    0.0504 C.ar    1  UNL1       -0.0591
     15 C          -2.2093   -1.8074    0.3609 C.ar    1  UNL1       -0.0502
     16 C          -1.0462   -1.0579    0.2353 C.ar    1  UNL1        0.0335
     17 C          -1.1745    0.2449   -0.1927 C.ar    1  UNL1        0.0382
     18 H           2.9318   -2.0832    0.9505 H       1  UNL1        0.0625
     19 H           4.7969   -0.5541    0.6448 H       1  UNL1        0.0618
     20 H           4.4663    1.7164   -0.1116 H       1  UNL1        0.0618
     21 H           2.1082    2.4697   -0.5819 H       1  UNL1        0.0624
     22 H          -2.7191    2.8476   -1.1735 H       1  UNL1        0.1889
     23 H          -4.4404    0.5875   -0.6207 H       1  UNL1        0.0639
     24 H          -4.3142   -1.7703    0.1436 H       1  UNL1        0.0618
     25 H          -2.1047   -2.8261    0.6959 H       1  UNL1        0.0625
@<TRIPOS>BOND
     1     1     2    2
     2     2     3    1
     3     3     4   ar
     4     4     5   ar
     5     5     6   ar
     6     6     7   ar
     7     7     8   ar
     8     8     9    1
     9     9    10   ar
    10    10    11   ar
    11    11    12   ar
    12    12    13   ar
    13    13    14   ar
    14    14    15   ar
    15    15    16   ar
    16    16    17   ar
    17    16     2    1
    18     8     3   ar
    19    17     9   ar
    20    17    12   ar
    21     4    18    1
    22     5    19    1
    23     6    20    1
    24     7    21    1
    25    11    22    1
    26    13    23    1
    27    14    24    1
    28    15    25    1
