@<TRIPOS>MOLECULE
*****
 54 58 0 0 0
SMALL
GASTEIGER

@<TRIPOS>ATOM
      1 C           9.3454   -1.9686   -1.2438 C.3     1  UNL1        0.0788
      2 O           8.8172   -2.0173    0.0687 O.3     1  UNL1       -0.4951
      3 C           7.5260   -1.6178    0.3718 C.ar    1  UNL1        0.1208
      4 C           7.1097   -1.7058    1.6834 C.ar    1  UNL1       -0.0196
      5 C           5.8133   -1.3105    2.0208 C.ar    1  UNL1       -0.0529
      6 C           4.9277   -0.8322    1.0848 C.ar    1  UNL1       -0.0173
      7 C           5.3523   -0.7462   -0.2325 C.ar    1  UNL1        0.0454
      8 C           6.6301   -1.1374   -0.5554 C.ar    1  UNL1       -0.0075
      9 C           4.2205   -0.2151   -0.9788 C.2     1  UNL1        0.2530
     10 O           4.2441   -0.0022   -2.2168 O.2     1  UNL1       -0.2696
     11 N           3.1443    0.0087   -0.1141 N.am    1  UNL1       -0.2420
     12 C           1.8222    0.5278   -0.4160 C.ar    1  UNL1        0.1682
     13 N           0.8153    0.7899    0.0963 N.ar    1  UNL1       -0.2198
     14 C          -0.2878    1.2719   -0.4277 C.ar    1  UNL1        0.1349
     15 C          -1.5276    1.5668    0.3583 C.2     1  UNL1        0.2672
     16 O          -1.5877    1.3651    1.5996 O.2     1  UNL1       -0.2682
     17 N          -2.6764    2.0803   -0.2525 N.am    1  UNL1       -0.2775
     18 C          -3.8708    2.3722    0.4613 C.ar    1  UNL1        0.0733
     19 C          -4.1310    3.6062    1.0310 C.ar    1  UNL1        0.0506
     20 N          -5.2961    3.7820    1.6889 N.ar    1  UNL1       -0.2613
     21 C          -6.2205    2.8100    1.8176 C.ar    1  UNL1        0.0294
     22 C          -5.9979    1.5680    1.2644 C.ar    1  UNL1       -0.0207
     23 C          -4.8104    1.3757    0.5892 C.ar    1  UNL1        0.0542
     24 N          -4.5523    0.1064    0.0101 N.pl3   1  UNL1       -0.3260
     25 C          -4.3378   -0.0421   -1.3971 C.3     1  UNL1        0.0248
     26 C          -4.8305   -1.4117   -1.8479 C.3     1  UNL1        0.0117
     27 N          -5.8937   -1.8017   -0.9414 N.3     1  UNL1       -0.3130
     28 C          -5.2546   -2.2225    0.3026 C.3     1  UNL1        0.0117
     29 C          -4.5159   -1.0477    0.9130 C.3     1  UNL1        0.0248
     30 C          -0.2423    1.4965   -1.7685 C.ar    1  UNL1        0.0094
     31 S           1.4712    0.9749   -2.2197 S.2     1  UNL1       -0.0595
     32 C           3.5450   -0.3705    1.2182 C.3     1  UNL1        0.0477
     33 H           9.4961   -0.9046   -1.4983 H       1  UNL1        0.0660
     34 H           8.6348   -2.4707   -1.9338 H       1  UNL1        0.0660
     35 H          10.3297   -2.4706   -1.2515 H       1  UNL1        0.0660
     36 H           7.7924   -2.0807    2.4398 H       1  UNL1        0.0654
     37 H           5.4818   -1.3798    3.0605 H       1  UNL1        0.0622
     38 H           6.9781   -1.0767   -1.5802 H       1  UNL1        0.0662
     39 H          -2.6519    2.2605   -1.2970 H       1  UNL1        0.1553
     40 H          -3.4058    4.3985    0.9405 H       1  UNL1        0.0849
     41 H          -7.1192    3.0630    2.3666 H       1  UNL1        0.0830
     42 H          -6.7336    0.7894    1.3650 H       1  UNL1        0.0652
     43 H          -3.2476   -0.0319   -1.6440 H       1  UNL1        0.0476
     44 H          -4.9149    0.7177   -1.9332 H       1  UNL1        0.0476
     45 H          -5.2407   -1.3890   -2.8659 H       1  UNL1        0.0439
     46 H          -3.9932   -2.1478   -1.8579 H       1  UNL1        0.0439
     47 H          -6.4580   -2.5860   -1.3034 H       1  UNL1        0.1220
     48 H          -4.5341   -3.0456    0.1443 H       1  UNL1        0.0439
     49 H          -6.0535   -2.6001    0.9692 H       1  UNL1        0.0439
     50 H          -4.9916   -0.8250    1.8787 H       1  UNL1        0.0476
     51 H          -3.4477   -1.2849    1.0990 H       1  UNL1        0.0476
     52 H          -0.9516    1.8818   -2.5254 H       1  UNL1        0.0717
     53 H           3.4329    0.5236    1.8598 H       1  UNL1        0.0519
     54 H           2.8466   -1.1341    1.5996 H       1  UNL1        0.0519
@<TRIPOS>BOND
     1     1     2    1
     2     2     3    1
     3     3     4   ar
     4     4     5   ar
     5     5     6   ar
     6     6     7   ar
     7     7     8   ar
     8     7     9    1
     9     9    10    2
    10     9    11   am
    11    11    12    1
    12    12    13   ar
    13    13    14   ar
    14    14    15    1
    15    15    16    2
    16    15    17   am
    17    17    18    1
    18    18    19   ar
    19    19    20   ar
    20    20    21   ar
    21    21    22   ar
    22    22    23   ar
    23    23    24    1
    24    24    25    1
    25    25    26    1
    26    26    27    1
    27    27    28    1
    28    28    29    1
    29    14    30   ar
    30    30    31   ar
    31    11    32    1
    32     8     3   ar
    33    31    12   ar
    34    32     6    1
    35    23    18   ar
    36    29    24    1
    37     1    33    1
    38     1    34    1
    39     1    35    1
    40     4    36    1
    41     5    37    1
    42     8    38    1
    43    17    39    1
    44    19    40    1
    45    21    41    1
    46    22    42    1
    47    25    43    1
    48    25    44    1
    49    26    45    1
    50    26    46    1
    51    27    47    1
    52    28    48    1
    53    28    49    1
    54    29    50    1
    55    29    51    1
    56    30    52    1
    57    32    53    1
    58    32    54    1
