@<TRIPOS>MOLECULE
*****
 66 69 0 0 0
SMALL
GASTEIGER

@<TRIPOS>ATOM
      1 C           6.3566    0.6774   -2.0443 C.3     1  UNL1       -0.0306
      2 C           5.1941    0.5251   -2.9566 C.3     1  UNL1        0.0897
      3 O           3.9359    0.5025   -2.3399 O.3     1  UNL1       -0.4643
      4 C           3.6084   -0.4540   -1.4080 C.2     1  UNL1        0.3178
      5 O           4.7698   -0.9184   -1.5857 O.2     1  UNL1       -0.2498
      6 C           2.5835   -0.9894   -0.4853 C.3     1  UNL1        0.0949
      7 C           2.1833    0.0267    0.5550 C.3     1  UNL1       -0.0203
      8 C           1.0054    0.8707    0.0480 C.3     1  UNL1        0.0002
      9 N          -0.1359    0.0512   -0.2075 N.3     1  UNL1       -0.3022
     10 C          -1.1561    0.5315   -1.0297 C.3     1  UNL1        0.0009
     11 C          -2.0012    1.6487   -0.5793 C.3     1  UNL1       -0.0135
     12 C          -2.7635    1.3425    0.6727 C.3     1  UNL1        0.1082
     13 C          -1.7856    1.0231    1.7442 C.1     1  UNL1        0.0787
     14 N          -1.0106    0.7884    2.6022 N.1     1  UNL1       -0.1953
     15 C          -3.4614    2.6364    1.0433 C.ar    1  UNL1       -0.0232
     16 C          -4.6425    2.9478    0.3645 C.ar    1  UNL1       -0.0568
     17 C          -5.1771    4.1670    0.7781 C.ar    1  UNL1       -0.0614
     18 C          -4.6625    5.0137    1.7314 C.ar    1  UNL1       -0.0617
     19 C          -3.4931    4.6167    2.3451 C.ar    1  UNL1       -0.0614
     20 C          -2.8777    3.4359    2.0168 C.ar    1  UNL1       -0.0568
     21 C          -3.7056    0.2337    0.6076 C.ar    1  UNL1       -0.0232
     22 C          -4.0331   -0.4503    1.7788 C.ar    1  UNL1       -0.0568
     23 C          -4.9328   -1.5091    1.7575 C.ar    1  UNL1       -0.0614
     24 C          -5.5271   -1.9142    0.5850 C.ar    1  UNL1       -0.0617
     25 C          -5.2343   -1.2683   -0.6002 C.ar    1  UNL1       -0.0614
     26 C          -4.3371   -0.2225   -0.5367 C.ar    1  UNL1       -0.0568
     27 C           0.1763   -1.3524   -0.3506 C.3     1  UNL1        0.0002
     28 C           1.3599   -1.4290   -1.2927 C.3     1  UNL1       -0.0203
     29 C           3.1397   -2.1820    0.1716 C.ar    1  UNL1       -0.0305
     30 C           3.2440   -2.6441    1.4631 C.ar    1  UNL1       -0.0575
     31 C           3.8162   -3.8549    1.7779 C.ar    1  UNL1       -0.0615
     32 C           4.3288   -4.6919    0.8097 C.ar    1  UNL1       -0.0617
     33 C           4.2448   -4.2616   -0.5207 C.ar    1  UNL1       -0.0615
     34 C           3.6665   -3.0475   -0.7999 C.ar    1  UNL1       -0.0575
     35 H           6.9603    1.5499   -2.3747 H       1  UNL1        0.0262
     36 H           7.0617   -0.1864   -2.1096 H       1  UNL1        0.0262
     37 H           6.0749    0.9051   -1.0006 H       1  UNL1        0.0262
     38 H           5.1568    1.4084   -3.6526 H       1  UNL1        0.0694
     39 H           5.3225   -0.3806   -3.5892 H       1  UNL1        0.0694
     40 H           3.0183    0.7195    0.7203 H       1  UNL1        0.0291
     41 H           1.8399   -0.4188    1.4884 H       1  UNL1        0.0291
     42 H           1.3464    1.3010   -0.9160 H       1  UNL1        0.0427
     43 H           0.8819    1.6925    0.7565 H       1  UNL1        0.0427
     44 H          -1.8301   -0.3382   -1.2695 H       1  UNL1        0.0427
     45 H          -0.7267    0.8204   -2.0274 H       1  UNL1        0.0427
     46 H          -1.4613    2.5977   -0.3852 H       1  UNL1        0.0299
     47 H          -2.7299    1.8936   -1.3930 H       1  UNL1        0.0299
     48 H          -5.0845    2.3176   -0.3850 H       1  UNL1        0.0621
     49 H          -6.1094    4.4849    0.2908 H       1  UNL1        0.0618
     50 H          -5.1035    5.9333    2.0157 H       1  UNL1        0.0618
     51 H          -2.9695    5.1672    3.1090 H       1  UNL1        0.0618
     52 H          -1.9485    3.0728    2.4765 H       1  UNL1        0.0621
     53 H          -3.5611   -0.1265    2.7115 H       1  UNL1        0.0621
     54 H          -5.1209   -1.9730    2.7125 H       1  UNL1        0.0618
     55 H          -6.2267   -2.7429    0.5768 H       1  UNL1        0.0618
     56 H          -5.6706   -1.5405   -1.5693 H       1  UNL1        0.0618
     57 H          -4.1224    0.2739   -1.4695 H       1  UNL1        0.0621
     58 H          -0.7071   -1.8899   -0.7508 H       1  UNL1        0.0427
     59 H           0.5224   -1.7878    0.6231 H       1  UNL1        0.0427
     60 H           1.4920   -2.4298   -1.7248 H       1  UNL1        0.0291
     61 H           1.2429   -0.6397   -2.0680 H       1  UNL1        0.0291
     62 H           2.8348   -1.9564    2.1735 H       1  UNL1        0.0621
     63 H           3.8063   -4.0493    2.8570 H       1  UNL1        0.0618
     64 H           4.7594   -5.6233    1.1527 H       1  UNL1        0.0618
     65 H           4.6728   -4.9833   -1.1999 H       1  UNL1        0.0618
     66 H           3.7028   -2.9207   -1.8949 H       1  UNL1        0.0621
@<TRIPOS>BOND
     1     1     2    1
     2     2     3    1
     3     3     4    1
     4     4     5    2
     5     4     6    1
     6     6     7    1
     7     7     8    1
     8     8     9    1
     9     9    10    1
    10    10    11    1
    11    11    12    1
    12    12    13    1
    13    13    14    3
    14    12    15    1
    15    15    16   ar
    16    16    17   ar
    17    17    18   ar
    18    18    19   ar
    19    19    20   ar
    20    12    21    1
    21    21    22   ar
    22    22    23   ar
    23    23    24   ar
    24    24    25   ar
    25    25    26   ar
    26     9    27    1
    27    27    28    1
    28     6    29    1
    29    29    30   ar
    30    30    31   ar
    31    31    32   ar
    32    32    33   ar
    33    33    34   ar
    34    28     6    1
    35    34    29   ar
    36    20    15   ar
    37    26    21   ar
    38     1    35    1
    39     1    36    1
    40     1    37    1
    41     2    38    1
    42     2    39    1
    43     7    40    1
    44     7    41    1
    45     8    42    1
    46     8    43    1
    47    10    44    1
    48    10    45    1
    49    11    46    1
    50    11    47    1
    51    16    48    1
    52    17    49    1
    53    18    50    1
    54    19    51    1
    55    20    52    1
    56    22    53    1
    57    23    54    1
    58    24    55    1
    59    25    56    1
    60    26    57    1
    61    27    58    1
    62    27    59    1
    63    28    60    1
    64    28    61    1
    65    30    62    1
    66    31    63    1
    67    32    64    1
    68    33    65    1
    69    34    66    1
