
     RDKit          3D

 37 40  0  0  0  0  0  0  0  0999 V2000
   -0.2520    2.0672   -0.6027 O   0  0  0  0  0  0  0  0  0  0  0  0
   -0.0025    0.9641   -1.1209 C   0  0  0  0  0  0  0  0  0  0  0  0
   -1.0367    0.2790   -1.9375 C   0  0  0  0  0  0  0  0  0  0  0  0
   -1.9822   -0.3906   -1.0539 C   0  0  0  0  0  0  0  0  0  0  0  0
   -1.7297   -1.7534   -0.8209 C   0  0  0  0  0  0  0  0  0  0  0  0
   -2.4773   -2.4932    0.0642 C   0  0  0  0  0  0  0  0  0  0  0  0
   -3.5058   -1.8997    0.7521 C   0  0  0  0  0  0  0  0  0  0  0  0
   -3.7499   -0.5631    0.5196 C   0  0  0  0  0  0  0  0  0  0  0  0
   -4.7786    0.0882    1.1758 C   0  0  0  0  0  0  0  0  0  0  0  0
   -5.0754    1.3828    0.9874 N   0  0  0  0  0  0  0  0  0  0  0  0
   -4.3354    2.1021    0.1043 C   0  0  0  0  0  0  0  0  0  0  0  0
   -3.2821    1.5353   -0.6018 C   0  0  0  0  0  0  0  0  0  0  0  0
   -3.0027    0.2121   -0.3803 C   0  0  0  0  0  0  0  0  0  0  0  0
    1.3122    0.3886   -0.8830 N   0  0  0  0  0  0  0  0  0  0  0  0
    2.2584    1.0611   -0.0857 C   0  0  0  0  0  0  0  0  0  0  0  0
    1.9772    2.8244    0.3654 S   0  0  0  0  0  0  0  0  0  0  0  0
    3.3651    3.0265    1.3105 C   0  0  0  0  0  0  0  0  0  0  0  0
    4.0130    1.7908    1.2799 C   0  0  0  0  0  0  0  0  0  0  0  0
    5.6865    1.5834    2.2717 Br  0  0  0  0  0  0  0  0  0  0  0  0
    3.4084    0.8191    0.5542 C   0  0  0  0  0  0  0  0  0  0  0  0
    4.0061   -0.5624    0.5007 C   0  0  0  0  0  0  0  0  0  0  0  0
    5.1781   -0.8903    1.1191 N   0  0  0  0  0  0  0  0  0  0  0  0
    5.4544   -2.1773    0.9212 N   0  0  0  0  0  0  0  0  0  0  0  0
    4.4812   -2.6914    0.1832 C   0  0  0  0  0  0  0  0  0  0  0  0
    3.6033   -1.6699   -0.0585 N   0  0  0  0  0  0  0  0  0  0  0  0
   -0.4525   -0.4746   -2.5463 H   0  0  0  0  0  0  0  0  0  0  0  0
   -1.4661    1.0298   -2.5976 H   0  0  0  0  0  0  0  0  0  0  0  0
   -0.9160   -2.2546   -1.3543 H   0  0  0  0  0  0  0  0  0  0  0  0
   -2.2809   -3.5536    0.2457 H   0  0  0  0  0  0  0  0  0  0  0  0
   -4.0894   -2.4711    1.4430 H   0  0  0  0  0  0  0  0  0  0  0  0
   -5.3442   -0.5346    1.8786 H   0  0  0  0  0  0  0  0  0  0  0  0
   -4.5725    3.1457   -0.0560 H   0  0  0  0  0  0  0  0  0  0  0  0
   -2.7180    2.1075   -1.3188 H   0  0  0  0  0  0  0  0  0  0  0  0
    1.4277   -0.4988   -1.3731 H   0  0  0  0  0  0  0  0  0  0  0  0
    3.7152    3.9756    1.8750 H   0  0  0  0  0  0  0  0  0  0  0  0
    4.4169   -3.7068   -0.1475 H   0  0  0  0  0  0  0  0  0  0  0  0
    2.7461   -1.7982   -0.6124 H   0  0  0  0  0  0  0  0  0  0  0  0
  1  2  2  0
  2  3  1  0
  3  4  1  0
  4  5  2  0
  5  6  1  0
  6  7  2  0
  7  8  1  0
  8  9  2  0
  9 10  1  0
 10 11  2  0
 11 12  1  0
 12 13  2  0
  2 14  1  0
 14 15  1  0
 15 16  1  0
 16 17  1  0
 17 18  2  0
 18 19  1  0
 18 20  1  0
 20 21  1  0
 21 22  2  0
 22 23  1  0
 23 24  2  0
 24 25  1  0
 13  4  1  0
 20 15  2  0
 25 21  1  0
 13  8  1  0
  3 26  1  0
  3 27  1  0
  5 28  1  0
  6 29  1  0
  7 30  1  0
  9 31  1  0
 11 32  1  0
 12 33  1  0
 14 34  1  0
 17 35  1  0
 24 36  1  0
 25 37  1  0
M  END
$$$$
