@<TRIPOS>MOLECULE
*****
 37 40 0 0 0
SMALL
GASTEIGER

@<TRIPOS>ATOM
      1 O          -0.2520    2.0672   -0.6027 O.2     1  UNL1       -0.2751
      2 C          -0.0025    0.9641   -1.1209 C.2     1  UNL1        0.2219
      3 C          -1.0367    0.2790   -1.9375 C.3     1  UNL1        0.0500
      4 C          -1.9822   -0.3906   -1.0539 C.ar    1  UNL1       -0.0308
      5 C          -1.7297   -1.7534   -0.8209 C.ar    1  UNL1       -0.0575
      6 C          -2.4773   -2.4932    0.0642 C.ar    1  UNL1       -0.0609
      7 C          -3.5058   -1.8997    0.7521 C.ar    1  UNL1       -0.0526
      8 C          -3.7499   -0.5631    0.5196 C.ar    1  UNL1        0.0005
      9 C          -4.7786    0.0882    1.1758 C.ar    1  UNL1        0.0353
     10 N          -5.0754    1.3828    0.9874 N.ar    1  UNL1       -0.2626
     11 C          -4.3354    2.1021    0.1043 C.ar    1  UNL1        0.0282
     12 C          -3.2821    1.5353   -0.6018 C.ar    1  UNL1       -0.0356
     13 C          -3.0027    0.2121   -0.3803 C.ar    1  UNL1       -0.0114
     14 N           1.3122    0.3886   -0.8830 N.am    1  UNL1       -0.2791
     15 C           2.2584    1.0611   -0.0857 C.ar    1  UNL1        0.0836
     16 S           1.9772    2.8244    0.3654 S.2     1  UNL1       -0.0801
     17 C           3.3651    3.0265    1.3105 C.ar    1  UNL1       -0.0078
     18 C           4.0130    1.7908    1.2799 C.ar    1  UNL1        0.0374
     19 BR          5.6865    1.5834    2.2717 Br      1  UNL1       -0.0490
     20 C           3.4084    0.8191    0.5542 C.ar    1  UNL1        0.0614
     21 C           4.0061   -0.5624    0.5007 C.ar    1  UNL1        0.1648
     22 N           5.1781   -0.8903    1.1191 N.ar    1  UNL1       -0.1295
     23 N           5.4544   -2.1773    0.9212 N.ar    1  UNL1       -0.1377
     24 C           4.4812   -2.6914    0.1832 C.ar    1  UNL1        0.1175
     25 N           3.6033   -1.6699   -0.0585 N.ar    1  UNL1       -0.3276
     26 H          -0.4525   -0.4746   -2.5463 H       1  UNL1        0.0407
     27 H          -1.4661    1.0298   -2.5976 H       1  UNL1        0.0407
     28 H          -0.9160   -2.2546   -1.3543 H       1  UNL1        0.0621
     29 H          -2.2809   -3.5536    0.2457 H       1  UNL1        0.0618
     30 H          -4.0894   -2.4711    1.4430 H       1  UNL1        0.0624
     31 H          -5.3442   -0.5346    1.8786 H       1  UNL1        0.0836
     32 H          -4.5725    3.1457   -0.0560 H       1  UNL1        0.0830
     33 H          -2.7180    2.1075   -1.3188 H       1  UNL1        0.0639
     34 H           1.4277   -0.4988   -1.3731 H       1  UNL1        0.1553
     35 H           3.7152    3.9756    1.8750 H       1  UNL1        0.0705
     36 H           4.4169   -3.7068   -0.1475 H       1  UNL1        0.1046
     37 H           2.7461   -1.7982   -0.6124 H       1  UNL1        0.1683
@<TRIPOS>BOND
     1     1     2    2
     2     2     3    1
     3     3     4    1
     4     4     5   ar
     5     5     6   ar
     6     6     7   ar
     7     7     8   ar
     8     8     9   ar
     9     9    10   ar
    10    10    11   ar
    11    11    12   ar
    12    12    13   ar
    13     2    14   am
    14    14    15    1
    15    15    16   ar
    16    16    17   ar
    17    17    18   ar
    18    18    19    1
    19    18    20   ar
    20    20    21    1
    21    21    22   ar
    22    22    23   ar
    23    23    24   ar
    24    24    25   ar
    25    13     4   ar
    26    20    15   ar
    27    25    21   ar
    28    13     8   ar
    29     3    26    1
    30     3    27    1
    31     5    28    1
    32     6    29    1
    33     7    30    1
    34     9    31    1
    35    11    32    1
    36    12    33    1
    37    14    34    1
    38    17    35    1
    39    24    36    1
    40    25    37    1
