@<TRIPOS>MOLECULE
*****
 65 69 0 0 0
SMALL
GASTEIGER

@<TRIPOS>ATOM
      1 O           1.6929   -4.0151    2.0940 O.2     1  UNL1       -0.2817
      2 C           2.0626   -2.8160    2.0639 C.2     1  UNL1        0.2496
      3 C           3.2580   -2.2594    2.6613 C.2     1  UNL1        0.2915
      4 O           4.1590   -2.8478    3.3227 O.2     1  UNL1       -0.2661
      5 N           3.2653   -0.8675    2.3742 N.am    1  UNL1       -0.2598
      6 C           4.3175    0.0642    2.8090 C.3     1  UNL1        0.0452
      7 C           5.4061    0.1332    1.8306 C.ar    1  UNL1       -0.0295
      8 C           6.4694   -0.7394    1.9299 C.ar    1  UNL1       -0.0536
      9 C           7.5257   -0.7042    1.0154 C.ar    1  UNL1       -0.0196
     10 C           7.4936    0.2267   -0.0033 C.ar    1  UNL1        0.1206
     11 O           8.5611    0.2290   -0.8905 O.3     1  UNL1       -0.4894
     12 C           8.5257    1.1875   -1.9376 C.3     1  UNL1        0.1177
     13 C           9.7447    1.0773   -2.8268 C.3     1  UNL1        0.1241
     14 F          10.9000    1.2795   -2.1331 F       1  UNL1       -0.2455
     15 C           6.4349    1.0785   -0.0829 C.ar    1  UNL1       -0.0196
     16 C           5.3639    1.0651    0.8193 C.ar    1  UNL1       -0.0536
     17 C           2.1008   -0.5758    1.6179 C.ar    1  UNL1        0.0481
     18 C           1.6528    0.6419    1.0974 C.ar    1  UNL1       -0.0377
     19 C           0.4715    0.6265    0.3963 C.ar    1  UNL1       -0.0335
     20 C          -0.2740   -0.5084    0.1882 C.ar    1  UNL1        0.1063
     21 S          -1.7701   -0.3907   -0.7295 S.O2    1  UNL1        0.0612
     22 O          -1.6106    0.7893   -1.6436 O.2     1  UNL1       -0.1528
     23 O          -2.0213   -1.6032   -1.5692 O.2     1  UNL1       -0.1528
     24 N          -3.0838   -0.0630    0.3498 N.3     1  UNL1       -0.1703
     25 C          -3.1741   -1.2004    1.3148 C.3     1  UNL1        0.0210
     26 C          -4.5343   -0.9911    1.9396 C.3     1  UNL1       -0.0370
     27 C          -5.3228   -0.2364    0.8930 C.3     1  UNL1       -0.0313
     28 C          -4.3801   -0.2301   -0.2878 C.3     1  UNL1        0.0659
     29 C          -4.6845    0.8409   -1.2989 C.3     1  UNL1        0.1068
     30 O          -5.8387    0.8191   -1.9593 O.3     1  UNL1       -0.4875
     31 C          -7.1473    0.8757   -2.0132 C.ar    1  UNL1        0.1558
     32 C          -7.9529    1.0657   -0.9135 C.ar    1  UNL1       -0.0144
     33 C          -9.3482    1.1262   -0.9833 C.ar    1  UNL1       -0.0228
     34 C          -9.9105    0.9877   -2.2137 C.ar    1  UNL1        0.1264
     35 F         -11.2514    1.0394   -2.3284 F       1  UNL1       -0.2054
     36 C          -9.1303    0.7971   -3.3329 C.ar    1  UNL1        0.0124
     37 C          -7.7800    0.7373   -3.2722 C.ar    1  UNL1        0.1675
     38 F          -7.0467    0.5485   -4.3964 F       1  UNL1       -0.2016
     39 C           0.1695   -1.7019    0.7012 C.ar    1  UNL1       -0.0226
     40 C           1.3519   -1.7129    1.4086 C.ar    1  UNL1        0.0502
     41 H           4.6213   -0.2680    3.8177 H       1  UNL1        0.0518
     42 H           3.8633    1.0870    2.9621 H       1  UNL1        0.0518
     43 H           6.5244   -1.4848    2.7214 H       1  UNL1        0.0622
     44 H           8.3559   -1.3917    1.0999 H       1  UNL1        0.0654
     45 H           7.6455    0.9329   -2.5631 H       1  UNL1        0.0723
     46 H           8.4862    2.2211   -1.5361 H       1  UNL1        0.0723
     47 H           9.6565    1.9185   -3.5712 H       1  UNL1        0.0649
     48 H           9.7421    0.1193   -3.3840 H       1  UNL1        0.0649
     49 H           6.4100    1.7975   -0.8697 H       1  UNL1        0.0654
     50 H           4.5466    1.7640    0.7133 H       1  UNL1        0.0622
     51 H           2.2380    1.5252    1.2646 H       1  UNL1        0.0637
     52 H           0.1396    1.5807   -0.0001 H       1  UNL1        0.0638
     53 H          -2.3541   -1.1210    2.0489 H       1  UNL1        0.0444
     54 H          -3.0868   -2.1554    0.7739 H       1  UNL1        0.0444
     55 H          -4.4100   -0.3913    2.8558 H       1  UNL1        0.0279
     56 H          -4.9953   -1.9792    2.1625 H       1  UNL1        0.0279
     57 H          -6.2788   -0.7517    0.6523 H       1  UNL1        0.0282
     58 H          -5.4738    0.7982    1.2578 H       1  UNL1        0.0282
     59 H          -4.4073   -1.2533   -0.7550 H       1  UNL1        0.0513
     60 H          -3.7740    0.9011   -1.9638 H       1  UNL1        0.0713
     61 H          -4.6152    1.8227   -0.7145 H       1  UNL1        0.0713
     62 H          -7.5357    1.1972    0.0788 H       1  UNL1        0.0656
     63 H          -9.9469    1.2779   -0.0825 H       1  UNL1        0.0647
     64 H          -9.6374    0.6922   -4.2984 H       1  UNL1        0.0676
     65 H          -0.3791   -2.6117    0.5637 H       1  UNL1        0.0645
@<TRIPOS>BOND
     1     1     2    2
     2     2     3    1
     3     3     4    2
     4     3     5   am
     5     5     6    1
     6     6     7    1
     7     7     8   ar
     8     8     9   ar
     9     9    10   ar
    10    10    11    1
    11    11    12    1
    12    12    13    1
    13    13    14    1
    14    10    15   ar
    15    15    16   ar
    16     5    17    1
    17    17    18   ar
    18    18    19   ar
    19    19    20   ar
    20    20    21    1
    21    21    22    2
    22    21    23    2
    23    21    24    1
    24    24    25    1
    25    25    26    1
    26    26    27    1
    27    27    28    1
    28    28    29    1
    29    29    30    1
    30    30    31    1
    31    31    32   ar
    32    32    33   ar
    33    33    34   ar
    34    34    35    1
    35    34    36   ar
    36    36    37   ar
    37    37    38    1
    38    20    39   ar
    39    39    40   ar
    40    40     2    1
    41    16     7   ar
    42    40    17   ar
    43    28    24    1
    44    37    31   ar
    45     6    41    1
    46     6    42    1
    47     8    43    1
    48     9    44    1
    49    12    45    1
    50    12    46    1
    51    13    47    1
    52    13    48    1
    53    15    49    1
    54    16    50    1
    55    18    51    1
    56    19    52    1
    57    25    53    1
    58    25    54    1
    59    26    55    1
    60    26    56    1
    61    27    57    1
    62    27    58    1
    63    28    59    1
    64    29    60    1
    65    29    61    1
    66    32    62    1
    67    33    63    1
    68    36    64    1
    69    39    65    1
