
     RDKit          3D

 65 69  0  0  0  0  0  0  0  0999 V2000
    1.6929   -4.0151    2.0940 O   0  0  0  0  0  0  0  0  0  0  0  0
    2.0626   -2.8160    2.0639 C   0  0  0  0  0  0  0  0  0  0  0  0
    3.2580   -2.2594    2.6613 C   0  0  0  0  0  0  0  0  0  0  0  0
    4.1590   -2.8478    3.3227 O   0  0  0  0  0  0  0  0  0  0  0  0
    3.2653   -0.8675    2.3742 N   0  0  0  0  0  0  0  0  0  0  0  0
    4.3175    0.0642    2.8090 C   0  0  0  0  0  0  0  0  0  0  0  0
    5.4061    0.1332    1.8306 C   0  0  0  0  0  0  0  0  0  0  0  0
    6.4694   -0.7394    1.9299 C   0  0  0  0  0  0  0  0  0  0  0  0
    7.5257   -0.7042    1.0154 C   0  0  0  0  0  0  0  0  0  0  0  0
    7.4936    0.2267   -0.0033 C   0  0  0  0  0  0  0  0  0  0  0  0
    8.5611    0.2290   -0.8905 O   0  0  0  0  0  0  0  0  0  0  0  0
    8.5257    1.1875   -1.9376 C   0  0  0  0  0  0  0  0  0  0  0  0
    9.7447    1.0773   -2.8268 C   0  0  0  0  0  0  0  0  0  0  0  0
   10.9000    1.2795   -2.1331 F   0  0  0  0  0  0  0  0  0  0  0  0
    6.4349    1.0785   -0.0829 C   0  0  0  0  0  0  0  0  0  0  0  0
    5.3639    1.0651    0.8193 C   0  0  0  0  0  0  0  0  0  0  0  0
    2.1008   -0.5758    1.6179 C   0  0  0  0  0  0  0  0  0  0  0  0
    1.6528    0.6419    1.0974 C   0  0  0  0  0  0  0  0  0  0  0  0
    0.4715    0.6265    0.3963 C   0  0  0  0  0  0  0  0  0  0  0  0
   -0.2740   -0.5084    0.1882 C   0  0  0  0  0  0  0  0  0  0  0  0
   -1.7701   -0.3907   -0.7295 S   0  0  0  0  0  6  0  0  0  0  0  0
   -1.6106    0.7893   -1.6436 O   0  0  0  0  0  0  0  0  0  0  0  0
   -2.0213   -1.6032   -1.5692 O   0  0  0  0  0  0  0  0  0  0  0  0
   -3.0838   -0.0630    0.3498 N   0  0  0  0  0  0  0  0  0  0  0  0
   -3.1741   -1.2004    1.3148 C   0  0  0  0  0  0  0  0  0  0  0  0
   -4.5343   -0.9911    1.9396 C   0  0  0  0  0  0  0  0  0  0  0  0
   -5.3228   -0.2364    0.8930 C   0  0  0  0  0  0  0  0  0  0  0  0
   -4.3801   -0.2301   -0.2878 C   0  0  1  0  0  0  0  0  0  0  0  0
   -4.6845    0.8409   -1.2989 C   0  0  0  0  0  0  0  0  0  0  0  0
   -5.8387    0.8191   -1.9593 O   0  0  0  0  0  0  0  0  0  0  0  0
   -7.1473    0.8757   -2.0132 C   0  0  0  0  0  0  0  0  0  0  0  0
   -7.9529    1.0657   -0.9135 C   0  0  0  0  0  0  0  0  0  0  0  0
   -9.3482    1.1262   -0.9833 C   0  0  0  0  0  0  0  0  0  0  0  0
   -9.9105    0.9877   -2.2137 C   0  0  0  0  0  0  0  0  0  0  0  0
  -11.2514    1.0394   -2.3284 F   0  0  0  0  0  0  0  0  0  0  0  0
   -9.1303    0.7971   -3.3329 C   0  0  0  0  0  0  0  0  0  0  0  0
   -7.7800    0.7373   -3.2722 C   0  0  0  0  0  0  0  0  0  0  0  0
   -7.0467    0.5485   -4.3964 F   0  0  0  0  0  0  0  0  0  0  0  0
    0.1695   -1.7019    0.7012 C   0  0  0  0  0  0  0  0  0  0  0  0
    1.3519   -1.7129    1.4086 C   0  0  0  0  0  0  0  0  0  0  0  0
    4.6213   -0.2680    3.8177 H   0  0  0  0  0  0  0  0  0  0  0  0
    3.8633    1.0870    2.9621 H   0  0  0  0  0  0  0  0  0  0  0  0
    6.5244   -1.4848    2.7214 H   0  0  0  0  0  0  0  0  0  0  0  0
    8.3559   -1.3917    1.0999 H   0  0  0  0  0  0  0  0  0  0  0  0
    7.6455    0.9329   -2.5631 H   0  0  0  0  0  0  0  0  0  0  0  0
    8.4862    2.2211   -1.5361 H   0  0  0  0  0  0  0  0  0  0  0  0
    9.6565    1.9185   -3.5712 H   0  0  0  0  0  0  0  0  0  0  0  0
    9.7421    0.1193   -3.3840 H   0  0  0  0  0  0  0  0  0  0  0  0
    6.4100    1.7975   -0.8697 H   0  0  0  0  0  0  0  0  0  0  0  0
    4.5466    1.7640    0.7133 H   0  0  0  0  0  0  0  0  0  0  0  0
    2.2380    1.5252    1.2646 H   0  0  0  0  0  0  0  0  0  0  0  0
    0.1396    1.5807   -0.0001 H   0  0  0  0  0  0  0  0  0  0  0  0
   -2.3541   -1.1210    2.0489 H   0  0  0  0  0  0  0  0  0  0  0  0
   -3.0868   -2.1554    0.7739 H   0  0  0  0  0  0  0  0  0  0  0  0
   -4.4100   -0.3913    2.8558 H   0  0  0  0  0  0  0  0  0  0  0  0
   -4.9953   -1.9792    2.1625 H   0  0  0  0  0  0  0  0  0  0  0  0
   -6.2788   -0.7517    0.6523 H   0  0  0  0  0  0  0  0  0  0  0  0
   -5.4738    0.7982    1.2578 H   0  0  0  0  0  0  0  0  0  0  0  0
   -4.4073   -1.2533   -0.7550 H   0  0  0  0  0  0  0  0  0  0  0  0
   -3.7740    0.9011   -1.9638 H   0  0  0  0  0  0  0  0  0  0  0  0
   -4.6152    1.8227   -0.7145 H   0  0  0  0  0  0  0  0  0  0  0  0
   -7.5357    1.1972    0.0788 H   0  0  0  0  0  0  0  0  0  0  0  0
   -9.9469    1.2779   -0.0825 H   0  0  0  0  0  0  0  0  0  0  0  0
   -9.6374    0.6922   -4.2984 H   0  0  0  0  0  0  0  0  0  0  0  0
   -0.3791   -2.6117    0.5637 H   0  0  0  0  0  0  0  0  0  0  0  0
  1  2  2  0
  2  3  1  0
  3  4  2  0
  3  5  1  0
  5  6  1  0
  6  7  1  0
  7  8  2  0
  8  9  1  0
  9 10  2  0
 10 11  1  0
 11 12  1  0
 12 13  1  0
 13 14  1  0
 10 15  1  0
 15 16  2  0
  5 17  1  0
 17 18  2  0
 18 19  1  0
 19 20  2  0
 20 21  1  0
 21 22  2  0
 21 23  2  0
 21 24  1  0
 24 25  1  0
 25 26  1  0
 26 27  1  0
 27 28  1  0
 28 29  1  0
 29 30  1  0
 30 31  1  0
 31 32  2  0
 32 33  1  0
 33 34  2  0
 34 35  1  0
 34 36  1  0
 36 37  2  0
 37 38  1  0
 20 39  1  0
 39 40  2  0
 40  2  1  0
 16  7  1  0
 40 17  1  0
 28 24  1  0
 37 31  1  0
  6 41  1  0
  6 42  1  0
  8 43  1  0
  9 44  1  0
 12 45  1  0
 12 46  1  0
 13 47  1  0
 13 48  1  0
 15 49  1  0
 16 50  1  0
 18 51  1  0
 19 52  1  0
 25 53  1  0
 25 54  1  0
 26 55  1  0
 26 56  1  0
 27 57  1  0
 27 58  1  0
 28 59  1  6
 29 60  1  0
 29 61  1  0
 32 62  1  0
 33 63  1  0
 36 64  1  0
 39 65  1  0
M  END
$$$$
