
     RDKit          3D

 65 69  0  0  0  0  0  0  0  0999 V2000
   -3.0070   -4.9517    1.1058 C   0  0  0  0  0  0  0  0  0  0  0  0
   -2.4597   -4.4490   -0.1914 C   0  0  0  0  0  0  0  0  0  0  0  0
   -2.5885   -2.9574   -0.3783 C   0  0  0  0  0  0  0  0  0  0  0  0
   -1.8703   -2.1479    0.6442 C   0  0  0  0  0  0  0  0  0  0  0  0
   -2.0721   -0.6885    0.3699 C   0  0  0  0  0  0  0  0  0  0  0  0
   -2.9720    0.1010    1.0362 N   0  0  0  0  0  0  0  0  0  0  0  0
   -2.9441    1.3238    0.5887 N   0  0  0  0  0  0  0  0  0  0  0  0
   -3.7362    2.4252    1.0308 C   0  0  0  0  0  0  0  0  0  0  0  0
   -3.4149    3.1042    2.1835 C   0  0  0  0  0  0  0  0  0  0  0  0
   -4.1633    4.1759    2.6344 C   0  0  0  0  0  0  0  0  0  0  0  0
   -5.2620    4.5909    1.9275 C   0  0  0  0  0  0  0  0  0  0  0  0
   -5.6070    3.9303    0.7698 C   0  0  0  0  0  0  0  0  0  0  0  0
   -4.8542    2.8653    0.3319 C   0  0  0  0  0  0  0  0  0  0  0  0
   -5.2225    2.1455   -0.9177 C   0  0  0  0  0  0  0  0  0  0  0  0
   -2.0117    1.4018   -0.4067 C   0  0  0  0  0  0  0  0  0  0  0  0
   -1.7096    2.6279   -1.1391 C   0  0  0  0  0  0  0  0  0  0  0  0
   -0.8384    2.6928   -2.0499 O   0  0  0  0  0  0  0  0  0  0  0  0
   -2.4113    3.7908   -0.8244 O   0  0  0  0  0  0  0  0  0  0  0  0
   -1.4667    0.1336   -0.5403 C   0  0  0  0  0  0  0  0  0  0  0  0
   -0.4109   -0.2017   -1.5207 C   0  0  0  0  0  0  0  0  0  0  0  0
    0.9396   -0.3511   -0.8983 C   0  0  0  0  0  0  0  0  0  0  0  0
    1.3537    0.3200    0.2250 C   0  0  0  0  0  0  0  0  0  0  0  0
    2.6148    0.1921    0.7564 C   0  0  0  0  0  0  0  0  0  0  0  0
    3.5272   -0.6312    0.1683 C   0  0  0  0  0  0  0  0  0  0  0  0
    4.8612   -0.8791    0.6441 C   0  0  0  0  0  0  0  0  0  0  0  0
    5.0057   -1.7333    1.7618 C   0  0  0  0  0  0  0  0  0  0  0  0
    6.2329   -2.0636    2.2669 C   0  0  0  0  0  0  0  0  0  0  0  0
    7.3635   -1.5518    1.6726 C   0  0  0  0  0  0  0  0  0  0  0  0
    7.2486   -0.7223    0.5895 C   0  0  0  0  0  0  0  0  0  0  0  0
    5.9749   -0.3714    0.0558 C   0  0  0  0  0  0  0  0  0  0  0  0
    5.9459    0.5482   -1.0412 C   0  0  0  0  0  0  0  0  0  0  0  0
    7.0627    0.8805   -1.7690 N   0  0  0  0  0  0  0  0  0  0  0  0
    6.7023    1.7143   -2.7162 N   0  0  0  0  0  0  0  0  0  0  0  0
    5.4108    1.9542   -2.6584 N   0  0  0  0  0  0  0  0  0  0  0  0
    4.9735    1.2165   -1.6101 N   0  0  0  0  0  0  0  0  0  0  0  0
    3.1222   -1.3275   -0.9827 C   0  0  0  0  0  0  0  0  0  0  0  0
    1.8640   -1.1833   -1.4900 C   0  0  0  0  0  0  0  0  0  0  0  0
   -2.6034   -5.9713    1.3032 H   0  0  0  0  0  0  0  0  0  0  0  0
   -2.8172   -4.2613    1.9434 H   0  0  0  0  0  0  0  0  0  0  0  0
   -4.1222   -5.1190    1.0469 H   0  0  0  0  0  0  0  0  0  0  0  0
   -3.0870   -4.9057   -1.0126 H   0  0  0  0  0  0  0  0  0  0  0  0
   -1.4043   -4.7874   -0.3396 H   0  0  0  0  0  0  0  0  0  0  0  0
   -3.6981   -2.7393   -0.3116 H   0  0  0  0  0  0  0  0  0  0  0  0
   -2.3164   -2.7521   -1.4292 H   0  0  0  0  0  0  0  0  0  0  0  0
   -0.7845   -2.3787    0.5766 H   0  0  0  0  0  0  0  0  0  0  0  0
   -2.2667   -2.3541    1.6428 H   0  0  0  0  0  0  0  0  0  0  0  0
   -2.5434    2.7855    2.7542 H   0  0  0  0  0  0  0  0  0  0  0  0
   -3.8895    4.6897    3.5344 H   0  0  0  0  0  0  0  0  0  0  0  0
   -5.8594    5.4455    2.2793 H   0  0  0  0  0  0  0  0  0  0  0  0
   -6.4891    4.2890    0.2334 H   0  0  0  0  0  0  0  0  0  0  0  0
   -4.9190    2.7748   -1.7943 H   0  0  0  0  0  0  0  0  0  0  0  0
   -4.7175    1.1505   -0.9594 H   0  0  0  0  0  0  0  0  0  0  0  0
   -6.3036    1.9434   -0.9261 H   0  0  0  0  0  0  0  0  0  0  0  0
   -2.2245    4.6250   -1.3674 H   0  0  0  0  0  0  0  0  0  0  0  0
   -0.6974   -1.1591   -2.0364 H   0  0  0  0  0  0  0  0  0  0  0  0
   -0.3008    0.5222   -2.3459 H   0  0  0  0  0  0  0  0  0  0  0  0
    0.6297    0.9705    0.6931 H   0  0  0  0  0  0  0  0  0  0  0  0
    2.9156    0.7267    1.6422 H   0  0  0  0  0  0  0  0  0  0  0  0
    4.0883   -2.1240    2.2121 H   0  0  0  0  0  0  0  0  0  0  0  0
    6.3525   -2.7233    3.1307 H   0  0  0  0  0  0  0  0  0  0  0  0
    8.3690   -1.7966    2.0546 H   0  0  0  0  0  0  0  0  0  0  0  0
    8.1257   -0.3072    0.1043 H   0  0  0  0  0  0  0  0  0  0  0  0
    3.9702    1.2544   -1.3566 H   0  0  0  0  0  0  0  0  0  0  0  0
    3.8159   -1.9803   -1.4670 H   0  0  0  0  0  0  0  0  0  0  0  0
    1.5959   -1.7417   -2.3820 H   0  0  0  0  0  0  0  0  0  0  0  0
  1  2  1  0
  2  3  1  0
  3  4  1  0
  4  5  1  0
  5  6  2  0
  6  7  1  0
  7  8  1  0
  8  9  2  0
  9 10  1  0
 10 11  2  0
 11 12  1  0
 12 13  2  0
 13 14  1  0
  7 15  1  0
 15 16  1  0
 16 17  2  0
 16 18  1  0
 15 19  2  0
 19 20  1  0
 20 21  1  0
 21 22  2  0
 22 23  1  0
 23 24  2  0
 24 25  1  0
 25 26  2  0
 26 27  1  0
 27 28  2  0
 28 29  1  0
 29 30  2  0
 30 31  1  0
 31 32  2  0
 32 33  1  0
 33 34  2  0
 34 35  1  0
 24 36  1  0
 36 37  2  0
 19  5  1  0
 37 21  1  0
 13  8  1  0
 30 25  1  0
 35 31  1  0
  1 38  1  0
  1 39  1  0
  1 40  1  0
  2 41  1  0
  2 42  1  0
  3 43  1  0
  3 44  1  0
  4 45  1  0
  4 46  1  0
  9 47  1  0
 10 48  1  0
 11 49  1  0
 12 50  1  0
 14 51  1  0
 14 52  1  0
 14 53  1  0
 18 54  1  0
 20 55  1  0
 20 56  1  0
 22 57  1  0
 23 58  1  0
 26 59  1  0
 27 60  1  0
 28 61  1  0
 29 62  1  0
 35 63  1  0
 36 64  1  0
 37 65  1  0
M  END
$$$$
