@<TRIPOS>MOLECULE
*****
 65 69 0 0 0
SMALL
GASTEIGER

@<TRIPOS>ATOM
      1 C          -3.0070   -4.9517    1.1058 C.3     1  UNL1       -0.0653
      2 C          -2.4597   -4.4490   -0.1914 C.3     1  UNL1       -0.0556
      3 C          -2.5885   -2.9574   -0.3783 C.3     1  UNL1       -0.0478
      4 C          -1.8703   -2.1479    0.6442 C.3     1  UNL1       -0.0084
      5 C          -2.0721   -0.6885    0.3699 C.ar    1  UNL1        0.0677
      6 N          -2.9720    0.1010    1.0362 N.ar    1  UNL1       -0.1703
      7 N          -2.9441    1.3238    0.5887 N.ar    1  UNL1       -0.2250
      8 C          -3.7362    2.4252    1.0308 C.ar    1  UNL1        0.0692
      9 C          -3.4149    3.1042    2.1835 C.ar    1  UNL1       -0.0360
     10 C          -4.1633    4.1759    2.6344 C.ar    1  UNL1       -0.0597
     11 C          -5.2620    4.5909    1.9275 C.ar    1  UNL1       -0.0614
     12 C          -5.6070    3.9303    0.7698 C.ar    1  UNL1       -0.0568
     13 C          -4.8542    2.8653    0.3319 C.ar    1  UNL1       -0.0250
     14 C          -5.2225    2.1455   -0.9177 C.3     1  UNL1       -0.0377
     15 C          -2.0117    1.4018   -0.4067 C.ar    1  UNL1        0.1547
     16 C          -1.7096    2.6279   -1.1391 C.2     1  UNL1        0.3557
     17 O          -0.8384    2.6928   -2.0499 O.2     1  UNL1       -0.2434
     18 O          -2.4113    3.7908   -0.8244 O.3     1  UNL1       -0.4761
     19 C          -1.4667    0.1336   -0.5403 C.ar    1  UNL1        0.0123
     20 C          -0.4109   -0.2017   -1.5207 C.3     1  UNL1        0.0016
     21 C           0.9396   -0.3511   -0.8983 C.ar    1  UNL1       -0.0429
     22 C           1.3537    0.3200    0.2250 C.ar    1  UNL1       -0.0577
     23 C           2.6148    0.1921    0.7564 C.ar    1  UNL1       -0.0537
     24 C           3.5272   -0.6312    0.1683 C.ar    1  UNL1       -0.0172
     25 C           4.8612   -0.8791    0.6441 C.ar    1  UNL1       -0.0072
     26 C           5.0057   -1.7333    1.7618 C.ar    1  UNL1       -0.0534
     27 C           6.2329   -2.0636    2.2669 C.ar    1  UNL1       -0.0611
     28 C           7.3635   -1.5518    1.6726 C.ar    1  UNL1       -0.0611
     29 C           7.2486   -0.7223    0.5895 C.ar    1  UNL1       -0.0504
     30 C           5.9749   -0.3714    0.0558 C.ar    1  UNL1        0.0282
     31 C           5.9459    0.5482   -1.0412 C.ar    1  UNL1        0.1799
     32 N           7.0627    0.8805   -1.7690 N.ar    1  UNL1       -0.1084
     33 N           6.7023    1.7143   -2.7162 N.ar    1  UNL1       -0.0229
     34 N           5.4108    1.9542   -2.6584 N.ar    1  UNL1       -0.0464
     35 N           4.9735    1.2165   -1.6101 N.ar    1  UNL1       -0.2388
     36 C           3.1222   -1.3275   -0.9827 C.ar    1  UNL1       -0.0537
     37 C           1.8640   -1.1833   -1.4900 C.ar    1  UNL1       -0.0577
     38 H          -2.6034   -5.9713    1.3032 H       1  UNL1        0.0230
     39 H          -2.8172   -4.2613    1.9434 H       1  UNL1        0.0230
     40 H          -4.1222   -5.1190    1.0469 H       1  UNL1        0.0230
     41 H          -3.0870   -4.9057   -1.0126 H       1  UNL1        0.0263
     42 H          -1.4043   -4.7874   -0.3396 H       1  UNL1        0.0263
     43 H          -3.6981   -2.7393   -0.3116 H       1  UNL1        0.0269
     44 H          -2.3164   -2.7521   -1.4292 H       1  UNL1        0.0269
     45 H          -0.7845   -2.3787    0.5766 H       1  UNL1        0.0329
     46 H          -2.2667   -2.3541    1.6428 H       1  UNL1        0.0329
     47 H          -2.5434    2.7855    2.7542 H       1  UNL1        0.0639
     48 H          -3.8895    4.6897    3.5344 H       1  UNL1        0.0618
     49 H          -5.8594    5.4455    2.2793 H       1  UNL1        0.0618
     50 H          -6.4891    4.2890    0.2334 H       1  UNL1        0.0621
     51 H          -4.9190    2.7748   -1.7943 H       1  UNL1        0.0278
     52 H          -4.7175    1.1505   -0.9594 H       1  UNL1        0.0278
     53 H          -6.3036    1.9434   -0.9261 H       1  UNL1        0.0278
     54 H          -2.2245    4.6250   -1.3674 H       1  UNL1        0.2955
     55 H          -0.6974   -1.1591   -2.0364 H       1  UNL1        0.0363
     56 H          -0.3008    0.5222   -2.3459 H       1  UNL1        0.0363
     57 H           0.6297    0.9705    0.6931 H       1  UNL1        0.0621
     58 H           2.9156    0.7267    1.6422 H       1  UNL1        0.0624
     59 H           4.0883   -2.1240    2.2121 H       1  UNL1        0.0624
     60 H           6.3525   -2.7233    3.1307 H       1  UNL1        0.0618
     61 H           8.3690   -1.7966    2.0546 H       1  UNL1        0.0618
     62 H           8.1257   -0.3072    0.1043 H       1  UNL1        0.0625
     63 H           3.9702    1.2544   -1.3566 H       1  UNL1        0.1923
     64 H           3.8159   -1.9803   -1.4670 H       1  UNL1        0.0624
     65 H           1.5959   -1.7417   -2.3820 H       1  UNL1        0.0621
@<TRIPOS>BOND
     1     1     2    1
     2     2     3    1
     3     3     4    1
     4     4     5    1
     5     5     6   ar
     6     6     7   ar
     7     7     8    1
     8     8     9   ar
     9     9    10   ar
    10    10    11   ar
    11    11    12   ar
    12    12    13   ar
    13    13    14    1
    14     7    15   ar
    15    15    16    1
    16    16    17    2
    17    16    18    1
    18    15    19   ar
    19    19    20    1
    20    20    21    1
    21    21    22   ar
    22    22    23   ar
    23    23    24   ar
    24    24    25    1
    25    25    26   ar
    26    26    27   ar
    27    27    28   ar
    28    28    29   ar
    29    29    30   ar
    30    30    31    1
    31    31    32   ar
    32    32    33   ar
    33    33    34   ar
    34    34    35   ar
    35    24    36   ar
    36    36    37   ar
    37    19     5   ar
    38    37    21   ar
    39    13     8   ar
    40    30    25   ar
    41    35    31   ar
    42     1    38    1
    43     1    39    1
    44     1    40    1
    45     2    41    1
    46     2    42    1
    47     3    43    1
    48     3    44    1
    49     4    45    1
    50     4    46    1
    51     9    47    1
    52    10    48    1
    53    11    49    1
    54    12    50    1
    55    14    51    1
    56    14    52    1
    57    14    53    1
    58    18    54    1
    59    20    55    1
    60    20    56    1
    61    22    57    1
    62    23    58    1
    63    26    59    1
    64    27    60    1
    65    28    61    1
    66    29    62    1
    67    35    63    1
    68    36    64    1
    69    37    65    1
