@<TRIPOS>MOLECULE
*****
 74 79 0 0 0
SMALL
GASTEIGER

@<TRIPOS>ATOM
      1 C          -5.6038    2.9117    1.3939 C.3     1  UNL1        0.0032
      2 N          -6.7955    2.5475    0.6639 N.am    1  UNL1       -0.3024
      3 C          -8.0498    3.1617    1.0365 C.3     1  UNL1        0.0032
      4 C          -6.6845    1.6009   -0.3940 C.2     1  UNL1        0.2627
      5 O          -7.7210    1.2953   -1.0079 O.2     1  UNL1       -0.2684
      6 C          -5.3520    1.0517   -0.6854 C.ar    1  UNL1        0.1070
      7 C          -4.2426    1.8128   -1.0797 C.ar    1  UNL1       -0.0209
      8 C          -3.2129    0.9559   -1.2350 C.ar    1  UNL1        0.0378
      9 C          -1.8868    1.1781   -1.6056 C.ar    1  UNL1        0.0419
     10 N          -1.0963    0.0971   -1.6619 N.ar    1  UNL1       -0.2219
     11 C          -1.5165   -1.1472   -1.3846 C.ar    1  UNL1        0.2224
     12 N          -0.6573   -2.2666   -1.4338 N.pl3   1  UNL1       -0.2685
     13 C           0.6512   -2.1709   -0.8927 C.ar    1  UNL1        0.1250
     14 C           1.1352   -1.0611   -0.2388 C.ar    1  UNL1       -0.0208
     15 C           2.4376   -0.9964    0.2648 C.ar    1  UNL1       -0.0449
     16 C           3.2690   -2.0701    0.1067 C.ar    1  UNL1        0.0551
     17 C           4.6596   -2.0571    0.6069 C.2     1  UNL1        0.2481
     18 O           4.9679   -2.9678    1.4122 O.2     1  UNL1       -0.2699
     19 N           5.5746   -1.0587    0.1829 N.am    1  UNL1       -0.2957
     20 C           5.2327    0.0060   -0.7465 C.3     1  UNL1        0.0191
     21 C           5.5273    1.3681   -0.1452 C.3     1  UNL1       -0.0110
     22 C           5.9307    1.1202    1.3161 C.3     1  UNL1       -0.0304
     23 C           7.2490    0.3605    1.1018 C.3     1  UNL1        0.0268
     24 C           6.9342   -1.0718    0.6834 C.3     1  UNL1        0.0306
     25 N           7.8350    1.0290   -0.0131 N.3     1  UNL1       -0.2897
     26 C           9.1198    1.5304    0.2482 C.3     1  UNL1        0.0951
     27 C          10.1501    0.4225    0.4100 C.3     1  UNL1        0.4024
     28 F          10.1697   -0.2914   -0.7797 F       1  UNL1       -0.1693
     29 F          11.4031    0.9954    0.5399 F       1  UNL1       -0.1693
     30 F           9.8532   -0.4498    1.4152 F       1  UNL1       -0.1693
     31 C           6.8880    1.8725   -0.6535 C.3     1  UNL1        0.0038
     32 C           2.7736   -3.1806   -0.5497 C.ar    1  UNL1        0.0418
     33 N           1.5178   -3.2186   -1.0249 N.ar    1  UNL1       -0.2394
     34 N          -2.8078   -1.3266   -1.0294 N.ar    1  UNL1       -0.1962
     35 C          -3.6821   -0.2891   -0.9453 C.ar    1  UNL1        0.1466
     36 N          -5.0052   -0.2418   -0.6036 N.ar    1  UNL1       -0.3180
     37 C          -5.7848   -1.3891   -0.2413 C.3     1  UNL1        0.0366
     38 C          -6.6243   -1.2383    0.9817 C.3     1  UNL1       -0.0320
     39 C          -7.8480   -2.1075    0.7896 C.3     1  UNL1       -0.0511
     40 C          -7.9454   -2.3807   -0.6920 C.3     1  UNL1       -0.0511
     41 C          -6.6865   -1.8987   -1.3424 C.3     1  UNL1       -0.0320
     42 H          -5.0907    3.7752    0.9410 H       1  UNL1        0.0428
     43 H          -4.8485    2.0843    1.3966 H       1  UNL1        0.0428
     44 H          -5.7850    3.1359    2.4565 H       1  UNL1        0.0428
     45 H          -8.0203    4.2150    0.6342 H       1  UNL1        0.0428
     46 H          -8.0800    3.2824    2.1455 H       1  UNL1        0.0428
     47 H          -8.9184    2.6657    0.6068 H       1  UNL1        0.0428
     48 H          -4.2731    2.8980   -1.2154 H       1  UNL1        0.0647
     49 H          -1.5809    2.1785   -1.8203 H       1  UNL1        0.0838
     50 H          -0.9654   -3.1702   -1.8616 H       1  UNL1        0.1564
     51 H           0.5150   -0.1922   -0.0820 H       1  UNL1        0.0652
     52 H           2.7965   -0.1138    0.7767 H       1  UNL1        0.0627
     53 H           4.2084   -0.0709   -1.1475 H       1  UNL1        0.0468
     54 H           5.9284   -0.0795   -1.6408 H       1  UNL1        0.0468
     55 H           4.7475    2.1052   -0.2634 H       1  UNL1        0.0329
     56 H           6.1798    2.0701    1.8204 H       1  UNL1        0.0284
     57 H           5.1791    0.5081    1.8228 H       1  UNL1        0.0284
     58 H           7.8554    0.3983    2.0346 H       1  UNL1        0.0478
     59 H           7.0516   -1.7781    1.5155 H       1  UNL1        0.0480
     60 H           7.6479   -1.4227   -0.1208 H       1  UNL1        0.0480
     61 H           9.4859    2.1622   -0.5892 H       1  UNL1        0.0515
     62 H           9.1812    2.1242    1.2069 H       1  UNL1        0.0515
     63 H           6.9435    1.7955   -1.7531 H       1  UNL1        0.0430
     64 H           6.9693    2.9376   -0.3577 H       1  UNL1        0.0430
     65 H           3.4503   -4.0345   -0.6636 H       1  UNL1        0.0838
     66 H          -5.0854   -2.2525   -0.0138 H       1  UNL1        0.0528
     67 H          -6.8910   -0.1957    1.2440 H       1  UNL1        0.0285
     68 H          -6.1191   -1.6251    1.9186 H       1  UNL1        0.0285
     69 H          -8.7446   -1.5351    1.0860 H       1  UNL1        0.0266
     70 H          -7.8163   -3.0502    1.3469 H       1  UNL1        0.0266
     71 H          -8.7872   -1.8387   -1.1665 H       1  UNL1        0.0266
     72 H          -8.1463   -3.4677   -0.8624 H       1  UNL1        0.0266
     73 H          -6.2422   -2.7962   -1.8666 H       1  UNL1        0.0285
     74 H          -6.8214   -1.1507   -2.1300 H       1  UNL1        0.0285
@<TRIPOS>BOND
     1     1     2    1
     2     2     3    1
     3     2     4   am
     4     4     5    2
     5     4     6    1
     6     6     7   ar
     7     7     8   ar
     8     8     9   ar
     9     9    10   ar
    10    10    11   ar
    11    11    12    1
    12    12    13    1
    13    13    14   ar
    14    14    15   ar
    15    15    16   ar
    16    16    17    1
    17    17    18    2
    18    17    19   am
    19    19    20    1
    20    20    21    1
    21    21    22    1
    22    22    23    1
    23    23    24    1
    24    23    25    1
    25    25    26    1
    26    26    27    1
    27    27    28    1
    28    27    29    1
    29    27    30    1
    30    25    31    1
    31    16    32   ar
    32    32    33   ar
    33    11    34   ar
    34    34    35   ar
    35    35    36   ar
    36    36    37    1
    37    37    38    1
    38    38    39    1
    39    39    40    1
    40    40    41    1
    41    36     6   ar
    42    41    37    1
    43    35     8   ar
    44    33    13   ar
    45    24    19    1
    46    31    21    1
    47     1    42    1
    48     1    43    1
    49     1    44    1
    50     3    45    1
    51     3    46    1
    52     3    47    1
    53     7    48    1
    54     9    49    1
    55    12    50    1
    56    14    51    1
    57    15    52    1
    58    20    53    1
    59    20    54    1
    60    21    55    1
    61    22    56    1
    62    22    57    1
    63    23    58    1
    64    24    59    1
    65    24    60    1
    66    26    61    1
    67    26    62    1
    68    31    63    1
    69    31    64    1
    70    32    65    1
    71    37    66    1
    72    38    67    1
    73    38    68    1
    74    39    69    1
    75    39    70    1
    76    40    71    1
    77    40    72    1
    78    41    73    1
    79    41    74    1
