@<TRIPOS>MOLECULE
*****
 64 68 0 0 0
SMALL
GASTEIGER

@<TRIPOS>ATOM
      1 C           4.5942   -3.3065   -1.6536 C.3     1  UNL1       -0.0597
      2 C           3.9945   -1.9406   -1.3730 C.3     1  UNL1       -0.0119
      3 C           2.9360   -2.1147   -0.3136 C.3     1  UNL1        0.0264
      4 N           2.1029   -0.9557   -0.1583 N.3     1  UNL1       -0.1546
      5 C           0.9083   -1.0512   -0.9350 C.3     1  UNL1        0.0981
      6 C          -0.2140   -0.5021   -0.1103 C.2     1  UNL1        0.2291
      7 O          -0.0048   -0.0645    1.0508 O.2     1  UNL1       -0.2743
      8 N          -1.5451   -0.4535   -0.5999 N.am    1  UNL1       -0.3108
      9 C          -2.5666    0.0940    0.2669 C.3     1  UNL1        0.0289
     10 C          -3.1470    1.3000   -0.4493 C.3     1  UNL1       -0.0211
     11 C          -3.8057    0.8602   -1.7203 C.3     1  UNL1       -0.0456
     12 C          -4.9250   -0.1167   -1.3933 C.3     1  UNL1       -0.0395
     13 C          -4.3415   -1.3330   -0.7496 C.3     1  UNL1       -0.0456
     14 C          -3.6691   -0.9022    0.5385 C.3     1  UNL1       -0.0211
     15 C          -4.6984   -0.2401    1.4025 C.3     1  UNL1       -0.0345
     16 C          -5.2357    1.0029    0.7624 C.3     1  UNL1        0.0476
     17 C          -6.1808    1.6661    1.6936 C.2     1  UNL1        0.2167
     18 N          -7.3314    0.9566    2.1215 N.am    1  UNL1       -0.3289
     19 O          -6.0186    2.8276    2.1272 O.2     1  UNL1       -0.2754
     20 C          -5.9217    0.5986   -0.5256 C.3     1  UNL1       -0.0362
     21 C          -4.1452    1.9920    0.4278 C.3     1  UNL1       -0.0345
     22 S           2.9521    0.5082   -0.3632 S.O2    1  UNL1        0.1146
     23 O           2.7517    1.0470   -1.7723 O.2     1  UNL1       -0.1377
     24 O           2.5337    1.5704    0.6105 O.2     1  UNL1       -0.1377
     25 N           4.6336    0.1419   -0.2218 N.pl3   1  UNL1       -0.1901
     26 C           5.5342    0.8966    0.5479 C.ar    1  UNL1        0.0889
     27 C           5.7609    0.5945    1.8722 C.ar    1  UNL1        0.0664
     28 CL          4.8854   -0.7590    2.5479 Cl      1  UNL1       -0.0815
     29 C           6.6488    1.3289    2.6534 C.ar    1  UNL1       -0.0231
     30 C           7.3265    2.3918    2.0958 C.ar    1  UNL1        0.0439
     31 CL          8.4577    3.3463    3.0482 Cl      1  UNL1       -0.0834
     32 C           7.1068    2.7010    0.7749 C.ar    1  UNL1       -0.0231
     33 C           6.2141    1.9608   -0.0062 C.ar    1  UNL1        0.0664
     34 CL          5.9689    2.3909   -1.6758 Cl      1  UNL1       -0.0815
     35 C           5.0998   -1.0297   -0.9641 C.3     1  UNL1        0.0399
     36 H           3.8509   -4.1190   -1.5733 H       1  UNL1        0.0233
     37 H           5.3533   -3.4914   -0.8662 H       1  UNL1        0.0233
     38 H           5.1523   -3.3216   -2.6224 H       1  UNL1        0.0233
     39 H           3.4809   -1.6121   -2.3069 H       1  UNL1        0.0327
     40 H           2.2608   -2.9408   -0.6848 H       1  UNL1        0.0448
     41 H           3.3903   -2.4862    0.6032 H       1  UNL1        0.0448
     42 H           0.7051   -2.0628   -1.2981 H       1  UNL1        0.0540
     43 H           1.0125   -0.3619   -1.8126 H       1  UNL1        0.0540
     44 H          -1.7648   -0.7987   -1.5403 H       1  UNL1        0.1490
     45 H          -2.1607    0.4093    1.2340 H       1  UNL1        0.0504
     46 H          -2.2867    1.9685   -0.6829 H       1  UNL1        0.0319
     47 H          -3.1221    0.4198   -2.4505 H       1  UNL1        0.0271
     48 H          -4.2325    1.7763   -2.1997 H       1  UNL1        0.0271
     49 H          -5.4157   -0.4154   -2.3603 H       1  UNL1        0.0301
     50 H          -5.1413   -2.0395   -0.4778 H       1  UNL1        0.0271
     51 H          -3.6024   -1.7664   -1.4465 H       1  UNL1        0.0271
     52 H          -3.2781   -1.8079    1.0156 H       1  UNL1        0.0319
     53 H          -5.5588   -0.9559    1.4927 H       1  UNL1        0.0278
     54 H          -4.3493    0.0162    2.4126 H       1  UNL1        0.0278
     55 H          -8.2318    1.0425    1.5702 H       1  UNL1        0.1449
     56 H          -7.3050    0.3560    2.9644 H       1  UNL1        0.1449
     57 H          -6.7859   -0.0545   -0.3638 H       1  UNL1        0.0278
     58 H          -6.2698    1.4855   -1.0782 H       1  UNL1        0.0278
     59 H          -3.6864    2.3160    1.3755 H       1  UNL1        0.0278
     60 H          -4.5832    2.8281   -0.1373 H       1  UNL1        0.0278
     61 H           6.7980    1.0564    3.6940 H       1  UNL1        0.0647
     62 H           7.6317    3.5229    0.3464 H       1  UNL1        0.0647
     63 H           5.9340   -1.5383   -0.4519 H       1  UNL1        0.0486
     64 H           5.5453   -0.6072   -1.9122 H       1  UNL1        0.0486
@<TRIPOS>BOND
     1     1     2    1
     2     2     3    1
     3     3     4    1
     4     4     5    1
     5     5     6    1
     6     6     7    2
     7     6     8   am
     8     8     9    1
     9     9    10    1
    10    10    11    1
    11    11    12    1
    12    12    13    1
    13    13    14    1
    14    14    15    1
    15    15    16    1
    16    16    17    1
    17    17    18   am
    18    17    19    2
    19    16    20    1
    20    16    21    1
    21     4    22    1
    22    22    23    2
    23    22    24    2
    24    22    25    1
    25    25    26    1
    26    26    27   ar
    27    27    28    1
    28    27    29   ar
    29    29    30   ar
    30    30    31    1
    31    30    32   ar
    32    32    33   ar
    33    33    34    1
    34    25    35    1
    35    35     2    1
    36    14     9    1
    37    33    26   ar
    38    21    10    1
    39    20    12    1
    40     1    36    1
    41     1    37    1
    42     1    38    1
    43     2    39    1
    44     3    40    1
    45     3    41    1
    46     5    42    1
    47     5    43    1
    48     8    44    1
    49     9    45    1
    50    10    46    1
    51    11    47    1
    52    11    48    1
    53    12    49    1
    54    13    50    1
    55    13    51    1
    56    14    52    1
    57    15    53    1
    58    15    54    1
    59    18    55    1
    60    18    56    1
    61    20    57    1
    62    20    58    1
    63    21    59    1
    64    21    60    1
    65    29    61    1
    66    32    62    1
    67    35    63    1
    68    35    64    1
