
     RDKit          3D

 64 68  0  0  0  0  0  0  0  0999 V2000
    4.5942   -3.3065   -1.6536 C   0  0  0  0  0  0  0  0  0  0  0  0
    3.9945   -1.9406   -1.3730 C   0  0  0  0  0  0  0  0  0  0  0  0
    2.9360   -2.1147   -0.3136 C   0  0  0  0  0  0  0  0  0  0  0  0
    2.1029   -0.9557   -0.1583 N   0  0  0  0  0  0  0  0  0  0  0  0
    0.9083   -1.0512   -0.9350 C   0  0  0  0  0  0  0  0  0  0  0  0
   -0.2140   -0.5021   -0.1103 C   0  0  0  0  0  0  0  0  0  0  0  0
   -0.0048   -0.0645    1.0508 O   0  0  0  0  0  0  0  0  0  0  0  0
   -1.5451   -0.4535   -0.5999 N   0  0  0  0  0  0  0  0  0  0  0  0
   -2.5666    0.0940    0.2669 C   0  0  1  0  0  0  0  0  0  0  0  0
   -3.1470    1.3000   -0.4493 C   0  0  0  0  0  0  0  0  0  0  0  0
   -3.8057    0.8602   -1.7203 C   0  0  0  0  0  0  0  0  0  0  0  0
   -4.9250   -0.1167   -1.3933 C   0  0  0  0  0  0  0  0  0  0  0  0
   -4.3415   -1.3330   -0.7496 C   0  0  0  0  0  0  0  0  0  0  0  0
   -3.6691   -0.9022    0.5385 C   0  0  0  0  0  0  0  0  0  0  0  0
   -4.6984   -0.2401    1.4025 C   0  0  0  0  0  0  0  0  0  0  0  0
   -5.2357    1.0029    0.7624 C   0  0  2  0  0  0  0  0  0  0  0  0
   -6.1808    1.6661    1.6936 C   0  0  0  0  0  0  0  0  0  0  0  0
   -7.3314    0.9566    2.1215 N   0  0  0  0  0  0  0  0  0  0  0  0
   -6.0186    2.8276    2.1272 O   0  0  0  0  0  0  0  0  0  0  0  0
   -5.9217    0.5986   -0.5256 C   0  0  0  0  0  0  0  0  0  0  0  0
   -4.1452    1.9920    0.4278 C   0  0  0  0  0  0  0  0  0  0  0  0
    2.9521    0.5082   -0.3632 S   0  0  0  0  0  6  0  0  0  0  0  0
    2.7517    1.0470   -1.7723 O   0  0  0  0  0  0  0  0  0  0  0  0
    2.5337    1.5704    0.6105 O   0  0  0  0  0  0  0  0  0  0  0  0
    4.6336    0.1419   -0.2218 N   0  0  0  0  0  0  0  0  0  0  0  0
    5.5342    0.8966    0.5479 C   0  0  0  0  0  0  0  0  0  0  0  0
    5.7609    0.5945    1.8722 C   0  0  0  0  0  0  0  0  0  0  0  0
    4.8854   -0.7590    2.5479 Cl  0  0  0  0  0  0  0  0  0  0  0  0
    6.6488    1.3289    2.6534 C   0  0  0  0  0  0  0  0  0  0  0  0
    7.3265    2.3918    2.0958 C   0  0  0  0  0  0  0  0  0  0  0  0
    8.4577    3.3463    3.0482 Cl  0  0  0  0  0  0  0  0  0  0  0  0
    7.1068    2.7010    0.7749 C   0  0  0  0  0  0  0  0  0  0  0  0
    6.2141    1.9608   -0.0062 C   0  0  0  0  0  0  0  0  0  0  0  0
    5.9689    2.3909   -1.6758 Cl  0  0  0  0  0  0  0  0  0  0  0  0
    5.0998   -1.0297   -0.9641 C   0  0  0  0  0  0  0  0  0  0  0  0
    3.8509   -4.1190   -1.5733 H   0  0  0  0  0  0  0  0  0  0  0  0
    5.3533   -3.4914   -0.8662 H   0  0  0  0  0  0  0  0  0  0  0  0
    5.1523   -3.3216   -2.6224 H   0  0  0  0  0  0  0  0  0  0  0  0
    3.4809   -1.6121   -2.3069 H   0  0  0  0  0  0  0  0  0  0  0  0
    2.2608   -2.9408   -0.6848 H   0  0  0  0  0  0  0  0  0  0  0  0
    3.3903   -2.4862    0.6032 H   0  0  0  0  0  0  0  0  0  0  0  0
    0.7051   -2.0628   -1.2981 H   0  0  0  0  0  0  0  0  0  0  0  0
    1.0125   -0.3619   -1.8126 H   0  0  0  0  0  0  0  0  0  0  0  0
   -1.7648   -0.7987   -1.5403 H   0  0  0  0  0  0  0  0  0  0  0  0
   -2.1607    0.4093    1.2340 H   0  0  0  0  0  0  0  0  0  0  0  0
   -2.2867    1.9685   -0.6829 H   0  0  0  0  0  0  0  0  0  0  0  0
   -3.1221    0.4198   -2.4505 H   0  0  0  0  0  0  0  0  0  0  0  0
   -4.2325    1.7763   -2.1997 H   0  0  0  0  0  0  0  0  0  0  0  0
   -5.4157   -0.4154   -2.3603 H   0  0  0  0  0  0  0  0  0  0  0  0
   -5.1413   -2.0395   -0.4778 H   0  0  0  0  0  0  0  0  0  0  0  0
   -3.6024   -1.7664   -1.4465 H   0  0  0  0  0  0  0  0  0  0  0  0
   -3.2781   -1.8079    1.0156 H   0  0  0  0  0  0  0  0  0  0  0  0
   -5.5588   -0.9559    1.4927 H   0  0  0  0  0  0  0  0  0  0  0  0
   -4.3493    0.0162    2.4126 H   0  0  0  0  0  0  0  0  0  0  0  0
   -8.2318    1.0425    1.5702 H   0  0  0  0  0  0  0  0  0  0  0  0
   -7.3050    0.3560    2.9644 H   0  0  0  0  0  0  0  0  0  0  0  0
   -6.7859   -0.0545   -0.3638 H   0  0  0  0  0  0  0  0  0  0  0  0
   -6.2698    1.4855   -1.0782 H   0  0  0  0  0  0  0  0  0  0  0  0
   -3.6864    2.3160    1.3755 H   0  0  0  0  0  0  0  0  0  0  0  0
   -4.5832    2.8281   -0.1373 H   0  0  0  0  0  0  0  0  0  0  0  0
    6.7980    1.0564    3.6940 H   0  0  0  0  0  0  0  0  0  0  0  0
    7.6317    3.5229    0.3464 H   0  0  0  0  0  0  0  0  0  0  0  0
    5.9340   -1.5383   -0.4519 H   0  0  0  0  0  0  0  0  0  0  0  0
    5.5453   -0.6072   -1.9122 H   0  0  0  0  0  0  0  0  0  0  0  0
  1  2  1  0
  2  3  1  0
  3  4  1  0
  4  5  1  0
  5  6  1  0
  6  7  2  0
  6  8  1  0
  8  9  1  0
  9 10  1  0
 10 11  1  0
 11 12  1  0
 12 13  1  0
 13 14  1  0
 14 15  1  0
 15 16  1  0
 16 17  1  1
 17 18  1  0
 17 19  2  0
 16 20  1  0
 16 21  1  0
  4 22  1  0
 22 23  2  0
 22 24  2  0
 22 25  1  0
 25 26  1  0
 26 27  2  0
 27 28  1  0
 27 29  1  0
 29 30  2  0
 30 31  1  0
 30 32  1  0
 32 33  2  0
 33 34  1  0
 25 35  1  0
 35  2  1  0
 14  9  1  0
 33 26  1  0
 21 10  1  0
 20 12  1  0
  1 36  1  0
  1 37  1  0
  1 38  1  0
  2 39  1  0
  3 40  1  0
  3 41  1  0
  5 42  1  0
  5 43  1  0
  8 44  1  0
  9 45  1  1
 10 46  1  0
 11 47  1  0
 11 48  1  0
 12 49  1  0
 13 50  1  0
 13 51  1  0
 14 52  1  0
 15 53  1  0
 15 54  1  0
 18 55  1  0
 18 56  1  0
 20 57  1  0
 20 58  1  0
 21 59  1  0
 21 60  1  0
 29 61  1  0
 32 62  1  0
 35 63  1  0
 35 64  1  0
M  END
$$$$
