@<TRIPOS>MOLECULE
*****
 76 80 0 0 0
SMALL
GASTEIGER

@<TRIPOS>ATOM
      1 C          -9.4693   -0.9213    2.7632 C.3     1  UNL1       -0.0397
      2 C          -8.6025   -0.3532    1.6969 C.ar    1  UNL1       -0.0503
      3 C          -8.7663   -0.6767    0.3665 C.ar    1  UNL1       -0.0570
      4 C          -7.9567   -0.1442   -0.6143 C.ar    1  UNL1       -0.0351
      5 C          -6.9352    0.7456   -0.3094 C.ar    1  UNL1        0.1055
      6 S          -5.9340    1.4002   -1.5780 S.O2    1  UNL1        0.0616
      7 O          -6.7503    1.4965   -2.8195 O.2     1  UNL1       -0.1528
      8 O          -5.4144    2.7580   -1.2014 O.2     1  UNL1       -0.1528
      9 N          -4.5694    0.3993   -1.9190 N.3     1  UNL1       -0.1628
     10 C          -5.0685   -0.8766   -2.3655 C.3     1  UNL1        0.0369
     11 C          -3.9993   -1.9363   -2.5053 C.3     1  UNL1        0.0261
     12 N          -3.5430   -2.2194   -1.1389 N.am    1  UNL1       -0.3127
     13 C          -3.6523   -1.0934   -0.2417 C.2     1  UNL1        0.2324
     14 O          -3.7021   -1.2964    0.9788 O.2     1  UNL1       -0.2740
     15 C          -3.7057    0.2915   -0.7607 C.3     1  UNL1        0.1160
     16 C          -2.3622    0.8346   -1.1768 C.3     1  UNL1        0.0496
     17 C          -1.3662    0.7982   -0.0983 C.2     1  UNL1        0.2155
     18 O          -1.6848    0.3481    1.0255 O.2     1  UNL1       -0.2757
     19 N          -0.0591    1.2633   -0.3134 N.am    1  UNL1       -0.3084
     20 C           0.9555    1.2494    0.7118 C.3     1  UNL1        0.0486
     21 C           1.2931    2.6693    1.1071 C.3     1  UNL1       -0.0300
     22 C           2.2867    3.3294    0.2167 C.3     1  UNL1       -0.0471
     23 C           2.8875    2.4577   -0.8330 C.3     1  UNL1       -0.0273
     24 C           3.1153    1.0616   -0.3989 C.ar    1  UNL1       -0.0421
     25 C           4.2485    0.3486   -0.7352 C.ar    1  UNL1       -0.0538
     26 C           4.4374   -0.9501   -0.3178 C.ar    1  UNL1       -0.0331
     27 C           5.6490   -1.7378   -0.6608 C.3     1  UNL1        0.0240
     28 N           6.6269   -1.5634    0.3899 N.3     1  UNL1       -0.2982
     29 C           7.8233   -2.3181    0.1750 C.3     1  UNL1       -0.0008
     30 C           8.9305   -1.3965   -0.2539 C.3     1  UNL1       -0.0402
     31 C           9.3142   -0.5069    0.9035 C.3     1  UNL1       -0.0507
     32 C           8.0630    0.0141    1.5443 C.3     1  UNL1       -0.0402
     33 C           6.8815   -0.1689    0.5905 C.3     1  UNL1       -0.0008
     34 C           3.4667   -1.5773    0.4669 C.ar    1  UNL1       -0.0570
     35 C           2.3507   -0.8422    0.7848 C.ar    1  UNL1       -0.0562
     36 C           2.1430    0.4597    0.3765 C.ar    1  UNL1       -0.0240
     37 C          -6.7678    1.0721    1.0197 C.ar    1  UNL1       -0.0351
     38 C          -7.5881    0.5305    2.0001 C.ar    1  UNL1       -0.0570
     39 H          -9.8718   -1.8962    2.3834 H       1  UNL1        0.0278
     40 H         -10.3311   -0.2670    2.9999 H       1  UNL1        0.0278
     41 H          -8.8303   -1.1481    3.6274 H       1  UNL1        0.0278
     42 H          -9.5751   -1.3799    0.1326 H       1  UNL1        0.0621
     43 H          -8.1103   -0.4175   -1.6509 H       1  UNL1        0.0637
     44 H          -5.8438   -1.2928   -1.7029 H       1  UNL1        0.0459
     45 H          -5.5275   -0.7283   -3.3634 H       1  UNL1        0.0459
     46 H          -3.1245   -1.6222   -3.0736 H       1  UNL1        0.0475
     47 H          -4.5112   -2.8420   -2.8983 H       1  UNL1        0.0475
     48 H          -3.1846   -3.1364   -0.8655 H       1  UNL1        0.1488
     49 H          -4.1002    0.9406    0.0423 H       1  UNL1        0.0580
     50 H          -2.5400    1.9214   -1.4177 H       1  UNL1        0.0379
     51 H          -1.9776    0.3271   -2.0868 H       1  UNL1        0.0379
     52 H           0.1673    1.6314   -1.2654 H       1  UNL1        0.1493
     53 H           0.4839    0.7886    1.6272 H       1  UNL1        0.0548
     54 H           0.3301    3.2437    1.0787 H       1  UNL1        0.0286
     55 H           1.6211    2.6625    2.1704 H       1  UNL1        0.0286
     56 H           3.1057    3.7533    0.8375 H       1  UNL1        0.0269
     57 H           1.8404    4.2197   -0.3108 H       1  UNL1        0.0269
     58 H           2.3298    2.5243   -1.7923 H       1  UNL1        0.0313
     59 H           3.9112    2.8711   -1.0739 H       1  UNL1        0.0313
     60 H           4.9851    0.8508   -1.3464 H       1  UNL1        0.0623
     61 H           5.3580   -2.8067   -0.6755 H       1  UNL1        0.0476
     62 H           6.0614   -1.4254   -1.6533 H       1  UNL1        0.0476
     63 H           8.1028   -2.8140    1.1380 H       1  UNL1        0.0427
     64 H           7.6439   -3.1158   -0.5927 H       1  UNL1        0.0427
     65 H           8.5757   -0.7696   -1.1117 H       1  UNL1        0.0278
     66 H           9.8186   -2.0024   -0.5852 H       1  UNL1        0.0278
     67 H           9.9811    0.3363    0.5627 H       1  UNL1        0.0266
     68 H           9.8690   -1.1619    1.6357 H       1  UNL1        0.0266
     69 H           7.8100   -0.5754    2.4480 H       1  UNL1        0.0278
     70 H           8.1209    1.0826    1.7804 H       1  UNL1        0.0278
     71 H           7.0917    0.3777   -0.3609 H       1  UNL1        0.0427
     72 H           5.9953    0.2733    1.1011 H       1  UNL1        0.0427
     73 H           3.5943   -2.6107    0.8112 H       1  UNL1        0.0621
     74 H           1.5695   -1.3085    1.3996 H       1  UNL1        0.0621
     75 H          -5.9717    1.7707    1.2785 H       1  UNL1        0.0637
     76 H          -7.4427    0.7968    3.0312 H       1  UNL1        0.0621
@<TRIPOS>BOND
     1     1     2    1
     2     2     3   ar
     3     3     4   ar
     4     4     5   ar
     5     5     6    1
     6     6     7    2
     7     6     8    2
     8     6     9    1
     9     9    10    1
    10    10    11    1
    11    11    12    1
    12    12    13   am
    13    13    14    2
    14    13    15    1
    15    15    16    1
    16    16    17    1
    17    17    18    2
    18    17    19   am
    19    19    20    1
    20    20    21    1
    21    21    22    1
    22    22    23    1
    23    23    24    1
    24    24    25   ar
    25    25    26   ar
    26    26    27    1
    27    27    28    1
    28    28    29    1
    29    29    30    1
    30    30    31    1
    31    31    32    1
    32    32    33    1
    33    26    34   ar
    34    34    35   ar
    35    35    36   ar
    36     5    37   ar
    37    37    38   ar
    38    38     2   ar
    39    15     9    1
    40    36    20    1
    41    36    24   ar
    42    33    28    1
    43     1    39    1
    44     1    40    1
    45     1    41    1
    46     3    42    1
    47     4    43    1
    48    10    44    1
    49    10    45    1
    50    11    46    1
    51    11    47    1
    52    12    48    1
    53    15    49    1
    54    16    50    1
    55    16    51    1
    56    19    52    1
    57    20    53    1
    58    21    54    1
    59    21    55    1
    60    22    56    1
    61    22    57    1
    62    23    58    1
    63    23    59    1
    64    25    60    1
    65    27    61    1
    66    27    62    1
    67    29    63    1
    68    29    64    1
    69    30    65    1
    70    30    66    1
    71    31    67    1
    72    31    68    1
    73    32    69    1
    74    32    70    1
    75    33    71    1
    76    33    72    1
    77    34    73    1
    78    35    74    1
    79    37    75    1
    80    38    76    1
