
     RDKit          3D

 74 77  0  0  0  0  0  0  0  0999 V2000
   -3.8860    1.6749    3.7481 C   0  0  0  0  0  0  0  0  0  0  0  0
   -3.0128    0.7863    4.3062 O   0  0  0  0  0  0  0  0  0  0  0  0
   -1.7166    0.8222    3.8384 C   0  0  0  0  0  0  0  0  0  0  0  0
   -1.5283    0.5010    2.4163 C   0  0  0  0  0  0  0  0  0  0  0  0
   -0.2716    0.6258    2.3001 O   0  0  0  0  0  0  0  0  0  0  0  0
   -2.2136    0.1469    1.3053 O   0  0  0  0  0  0  0  0  0  0  0  0
   -1.6873   -0.1214    0.0182 C   0  0  2  0  0  0  0  0  0  0  0  0
   -0.7445   -1.2762    0.0660 C   0  0  0  0  0  0  0  0  0  0  0  0
   -0.0925   -1.6864   -1.2029 C   0  0  0  0  0  0  0  0  0  0  0  0
    0.7815   -2.8386   -1.0161 N   0  0  0  0  0  0  0  0  0  0  0  0
    1.3401   -3.2607   -2.2978 C   0  0  0  0  0  0  0  0  0  0  0  0
    1.8256   -2.6264   -0.0477 C   0  0  0  0  0  0  0  0  0  0  0  0
    2.8859   -1.6530   -0.4683 C   0  0  0  0  0  0  0  0  0  0  0  0
    3.8788   -1.5743    0.6980 C   0  0  0  0  0  0  0  0  0  0  0  0
    4.9957   -0.6532    0.3866 C   0  0  0  0  0  0  0  0  0  0  0  0
    5.3225    0.1047   -0.6761 N   0  0  0  0  0  0  0  0  0  0  0  0
    6.4856    0.7565   -0.3822 C   0  0  0  0  0  0  0  0  0  0  0  0
    7.1773    1.6325   -1.1834 C   0  0  0  0  0  0  0  0  0  0  0  0
    8.3374    2.1658   -0.6596 C   0  0  0  0  0  0  0  0  0  0  0  0
    8.7823    1.8301    0.6190 C   0  0  0  0  0  0  0  0  0  0  0  0
    8.0164    0.9376    1.3512 C   0  0  0  0  0  0  0  0  0  0  0  0
    6.8458    0.3663    0.8888 C   0  0  0  0  0  0  0  0  0  0  0  0
    5.9284   -0.4974    1.3539 N   0  0  0  0  0  0  0  0  0  0  0  0
   -1.0703    1.1715   -0.4373 C   0  0  0  0  0  0  0  0  0  0  0  0
   -2.1270    2.2424   -0.0814 C   0  0  0  0  0  0  0  0  0  0  0  0
   -3.1215    2.0832   -1.2078 C   0  0  0  0  0  0  0  0  0  0  0  0
   -3.3878    0.7529   -1.5592 C   0  0  0  0  0  0  0  0  0  0  0  0
   -4.2514    0.7311   -2.6334 C   0  0  0  0  0  0  0  0  0  0  0  0
   -4.7836    1.8217   -3.2734 C   0  0  0  0  0  0  0  0  0  0  0  0
   -4.4545    3.0842   -2.8403 C   0  0  0  0  0  0  0  0  0  0  0  0
   -4.9262    4.2104   -3.4018 F   0  0  0  0  0  0  0  0  0  0  0  0
   -3.5975    3.2379   -1.7757 C   0  0  0  0  0  0  0  0  0  0  0  0
   -2.8556   -0.4615   -0.8990 C   0  0  2  0  0  0  0  0  0  0  0  0
   -3.8557   -1.3381   -0.2344 C   0  0  0  0  0  0  0  0  0  0  0  0
   -5.0014   -1.7107   -1.1434 C   0  0  0  0  0  0  0  0  0  0  0  0
   -4.5029   -0.7876    1.0111 C   0  0  0  0  0  0  0  0  0  0  0  0
   -4.0625    1.6168    2.6831 H   0  0  0  0  0  0  0  0  0  0  0  0
   -4.8825    1.5463    4.2655 H   0  0  0  0  0  0  0  0  0  0  0  0
   -3.5745    2.7313    3.9567 H   0  0  0  0  0  0  0  0  0  0  0  0
   -1.1584    0.0732    4.4907 H   0  0  0  0  0  0  0  0  0  0  0  0
   -1.3345    1.8479    4.1037 H   0  0  0  0  0  0  0  0  0  0  0  0
    0.0041   -1.0697    0.8722 H   0  0  0  0  0  0  0  0  0  0  0  0
   -1.2806   -2.1951    0.4529 H   0  0  0  0  0  0  0  0  0  0  0  0
   -0.7192   -1.9128   -2.0532 H   0  0  0  0  0  0  0  0  0  0  0  0
    0.6116   -0.8598   -1.5305 H   0  0  0  0  0  0  0  0  0  0  0  0
    1.7883   -2.4405   -2.8642 H   0  0  0  0  0  0  0  0  0  0  0  0
    2.0339   -4.0842   -2.0653 H   0  0  0  0  0  0  0  0  0  0  0  0
    0.4902   -3.6915   -2.8733 H   0  0  0  0  0  0  0  0  0  0  0  0
    1.4940   -2.3812    0.9641 H   0  0  0  0  0  0  0  0  0  0  0  0
    2.3494   -3.6191    0.0413 H   0  0  0  0  0  0  0  0  0  0  0  0
    2.5264   -0.6255   -0.6491 H   0  0  0  0  0  0  0  0  0  0  0  0
    3.4548   -1.9680   -1.3623 H   0  0  0  0  0  0  0  0  0  0  0  0
    3.3618   -1.1671    1.6084 H   0  0  0  0  0  0  0  0  0  0  0  0
    4.2535   -2.5641    0.9778 H   0  0  0  0  0  0  0  0  0  0  0  0
    6.8703    1.9136   -2.1670 H   0  0  0  0  0  0  0  0  0  0  0  0
    8.9076    2.8643   -1.2721 H   0  0  0  0  0  0  0  0  0  0  0  0
    9.6905    2.2550    1.0142 H   0  0  0  0  0  0  0  0  0  0  0  0
    8.3649    0.6802    2.3413 H   0  0  0  0  0  0  0  0  0  0  0  0
    6.0643   -0.8858    2.3132 H   0  0  0  0  0  0  0  0  0  0  0  0
   -0.9259    1.2508   -1.5293 H   0  0  0  0  0  0  0  0  0  0  0  0
   -0.1608    1.4422    0.1318 H   0  0  0  0  0  0  0  0  0  0  0  0
   -2.6100    2.0575    0.8700 H   0  0  0  0  0  0  0  0  0  0  0  0
   -1.7055    3.2449   -0.0743 H   0  0  0  0  0  0  0  0  0  0  0  0
   -4.5817   -0.1786   -3.1031 H   0  0  0  0  0  0  0  0  0  0  0  0
   -5.4585    1.7962   -4.1106 H   0  0  0  0  0  0  0  0  0  0  0  0
   -3.2932    4.1927   -1.3800 H   0  0  0  0  0  0  0  0  0  0  0  0
   -2.4222   -1.0642   -1.7225 H   0  0  0  0  0  0  0  0  0  0  0  0
   -3.3187   -2.2640    0.0943 H   0  0  0  0  0  0  0  0  0  0  0  0
   -5.5762   -2.4946   -0.5260 H   0  0  0  0  0  0  0  0  0  0  0  0
   -5.7153   -0.8942   -1.2236 H   0  0  0  0  0  0  0  0  0  0  0  0
   -4.7041   -2.2266   -2.0697 H   0  0  0  0  0  0  0  0  0  0  0  0
   -4.0034   -1.0725    1.9551 H   0  0  0  0  0  0  0  0  0  0  0  0
   -4.7884    0.2665    0.9142 H   0  0  0  0  0  0  0  0  0  0  0  0
   -5.5046   -1.3203    1.1009 H   0  0  0  0  0  0  0  0  0  0  0  0
  1  2  1  0
  2  3  1  0
  3  4  1  0
  4  5  2  0
  4  6  1  0
  7  6  1  1
  7  8  1  0
  8  9  1  0
  9 10  1  0
 10 11  1  0
 10 12  1  0
 12 13  1  0
 13 14  1  0
 14 15  1  0
 15 16  2  0
 16 17  1  0
 17 18  2  0
 18 19  1  0
 19 20  2  0
 20 21  1  0
 21 22  2  0
 22 23  1  0
  7 24  1  0
 24 25  1  0
 25 26  1  0
 26 27  2  0
 27 28  1  0
 28 29  2  0
 29 30  1  0
 30 31  1  0
 30 32  2  0
 27 33  1  0
 33 34  1  0
 34 35  1  0
 34 36  1  0
 33  7  1  0
 23 15  1  0
 32 26  1  0
 22 17  1  0
  1 37  1  0
  1 38  1  0
  1 39  1  0
  3 40  1  0
  3 41  1  0
  8 42  1  0
  8 43  1  0
  9 44  1  0
  9 45  1  0
 11 46  1  0
 11 47  1  0
 11 48  1  0
 12 49  1  0
 12 50  1  0
 13 51  1  0
 13 52  1  0
 14 53  1  0
 14 54  1  0
 18 55  1  0
 19 56  1  0
 20 57  1  0
 21 58  1  0
 23 59  1  0
 24 60  1  0
 24 61  1  0
 25 62  1  0
 25 63  1  0
 28 64  1  0
 29 65  1  0
 32 66  1  0
 33 67  1  6
 34 68  1  0
 35 69  1  0
 35 70  1  0
 35 71  1  0
 36 72  1  0
 36 73  1  0
 36 74  1  0
M  END
$$$$
