@<TRIPOS>MOLECULE
*****
 48 51 0 0 0
SMALL
GASTEIGER

@<TRIPOS>ATOM
      1 C           7.6876   -1.1647   -0.7329 C.3     1  UNL1        0.0788
      2 O           6.7886   -1.5000    0.2848 O.3     1  UNL1       -0.4951
      3 C           5.4429   -1.1646    0.1943 C.ar    1  UNL1        0.1201
      4 C           4.5888   -1.5129    1.2264 C.ar    1  UNL1       -0.0196
      5 C           3.2629   -1.1904    1.1559 C.ar    1  UNL1       -0.0533
      6 C           2.7049   -0.5175    0.0850 C.ar    1  UNL1       -0.0242
      7 C           1.2951   -0.1617    0.0387 C.3     1  UNL1        0.0858
      8 N           0.4927   -1.2180   -0.5535 N.2     1  UNL1       -0.1808
      9 N          -0.7585   -1.0040   -0.7802 N.2     1  UNL1       -0.1323
     10 C          -1.3056    0.2903   -0.4307 C.ar    1  UNL1        0.1966
     11 N          -1.2280    1.3001   -1.3507 N.ar    1  UNL1       -0.2233
     12 C          -1.6988    2.5256   -1.0208 C.ar    1  UNL1        0.0916
     13 C          -1.6304    3.5704   -1.9332 C.ar    1  UNL1       -0.0342
     14 C          -2.0983    4.8281   -1.6237 C.ar    1  UNL1       -0.0596
     15 C          -2.6373    4.9980   -0.3658 C.ar    1  UNL1       -0.0596
     16 C          -2.7096    3.9674    0.5457 C.ar    1  UNL1       -0.0342
     17 C          -2.2360    2.6955    0.2328 C.ar    1  UNL1        0.0896
     18 N          -2.3147    1.6926    1.1476 N.ar    1  UNL1       -0.2460
     19 C          -1.8380    0.4508    0.8139 C.ar    1  UNL1        0.0920
     20 C          -1.9350   -0.6696    1.7850 C.3     1  UNL1        0.0185
     21 C          -3.0698   -1.5743    1.5480 C.ar    1  UNL1       -0.0415
     22 C          -3.0019   -2.7472    0.8541 C.ar    1  UNL1       -0.0582
     23 C          -4.1230   -3.5551    0.6585 C.ar    1  UNL1       -0.0615
     24 C          -5.3263   -3.1800    1.1670 C.ar    1  UNL1       -0.0617
     25 C          -5.4357   -1.9933    1.8796 C.ar    1  UNL1       -0.0615
     26 C          -4.3142   -1.2060    2.0628 C.ar    1  UNL1       -0.0582
     27 C           3.5428   -0.1646   -0.9509 C.ar    1  UNL1       -0.0533
     28 C           4.9012   -0.4933   -0.8818 C.ar    1  UNL1       -0.0196
     29 H           7.7027   -1.8759   -1.5842 H       1  UNL1        0.0660
     30 H           7.5572   -0.1023   -1.0940 H       1  UNL1        0.0660
     31 H           8.7322   -1.1950   -0.3011 H       1  UNL1        0.0660
     32 H           4.9850   -2.0412    2.0862 H       1  UNL1        0.0654
     33 H           2.5532   -1.4489    1.9532 H       1  UNL1        0.0622
     34 H           0.9271    0.1101    1.0587 H       1  UNL1        0.0576
     35 H           1.0922    0.7432   -0.6003 H       1  UNL1        0.0576
     36 H          -1.2044    3.4092   -2.9150 H       1  UNL1        0.0639
     37 H          -2.0527    5.6579   -2.3205 H       1  UNL1        0.0618
     38 H          -3.0245    5.9846   -0.0673 H       1  UNL1        0.0618
     39 H          -3.1297    4.0845    1.5373 H       1  UNL1        0.0639
     40 H          -0.9901   -1.2633    1.8105 H       1  UNL1        0.0378
     41 H          -2.0005   -0.2046    2.7948 H       1  UNL1        0.0378
     42 H          -2.0498   -3.0621    0.4540 H       1  UNL1        0.0620
     43 H          -3.9666   -4.4630    0.0939 H       1  UNL1        0.0618
     44 H          -6.1786   -3.8184    1.0036 H       1  UNL1        0.0618
     45 H          -6.3805   -1.6885    2.2854 H       1  UNL1        0.0618
     46 H          -4.4032   -0.2823    2.6200 H       1  UNL1        0.0620
     47 H           3.2271    0.3609   -1.8421 H       1  UNL1        0.0622
     48 H           5.5575   -0.2064   -1.7073 H       1  UNL1        0.0654
@<TRIPOS>BOND
     1     1     2    1
     2     2     3    1
     3     3     4   ar
     4     4     5   ar
     5     5     6   ar
     6     6     7    1
     7     7     8    1
     8     8     9    2
     9     9    10    1
    10    10    11   ar
    11    11    12   ar
    12    12    13   ar
    13    13    14   ar
    14    14    15   ar
    15    15    16   ar
    16    16    17   ar
    17    17    18   ar
    18    18    19   ar
    19    19    20    1
    20    20    21    1
    21    21    22   ar
    22    22    23   ar
    23    23    24   ar
    24    24    25   ar
    25    25    26   ar
    26     6    27   ar
    27    27    28   ar
    28    28     3   ar
    29    19    10   ar
    30    26    21   ar
    31    17    12   ar
    32     1    29    1
    33     1    30    1
    34     1    31    1
    35     4    32    1
    36     5    33    1
    37     7    34    1
    38     7    35    1
    39    13    36    1
    40    14    37    1
    41    15    38    1
    42    16    39    1
    43    20    40    1
    44    20    41    1
    45    22    42    1
    46    23    43    1
    47    24    44    1
    48    25    45    1
    49    26    46    1
    50    27    47    1
    51    28    48    1
