
     RDKit          3D

 40 42  0  0  0  0  0  0  0  0999 V2000
    3.3396    2.7343    2.2981 O   0  0  0  0  0  0  0  0  0  0  0  0
    4.4299    2.2074    1.9464 C   0  0  0  0  0  0  0  0  0  0  0  0
    5.6257    2.7856    2.3187 O   0  0  0  0  0  0  0  0  0  0  0  0
    4.4140    0.9985    1.1538 C   0  0  0  0  0  0  0  0  0  0  0  0
    5.6081    0.4251    0.7709 C   0  0  0  0  0  0  0  0  0  0  0  0
    5.5456   -0.7200    0.0204 C   0  0  0  0  0  0  0  0  0  0  0  0
    4.3721   -1.2593   -0.3266 N   0  0  0  0  0  0  0  0  0  0  0  0
    3.1839   -0.7302    0.0272 C   0  0  0  0  0  0  0  0  0  0  0  0
    1.9342   -1.3634   -0.3809 C   0  0  0  0  0  0  0  0  0  0  0  0
    0.6904   -0.8825   -0.0585 C   0  0  0  0  0  0  0  0  0  0  0  0
   -0.4610   -1.5086   -0.4624 C   0  0  0  0  0  0  0  0  0  0  0  0
   -1.7208   -0.9607   -0.0960 N   0  0  0  0  0  0  0  0  0  0  0  0
   -2.3782   -0.0122   -0.9209 C   0  0  0  0  0  0  0  0  0  0  0  0
   -1.7640    0.3024   -1.9915 O   0  0  0  0  0  0  0  0  0  0  0  0
   -3.6507    0.5809   -0.6119 C   0  0  0  0  0  0  0  0  0  0  0  0
   -4.3230    0.2503    0.5387 C   0  0  0  0  0  0  0  0  0  0  0  0
   -5.5571    0.8237    0.8414 C   0  0  0  0  0  0  0  0  0  0  0  0
   -6.0942    1.7280   -0.0307 C   0  0  0  0  0  0  0  0  0  0  0  0
   -7.3382    2.3327    0.2333 O   0  0  0  0  0  0  0  0  0  0  0  0
   -5.4269    2.0670   -1.1895 C   0  0  0  0  0  0  0  0  0  0  0  0
   -4.2140    1.4913   -1.4683 C   0  0  0  0  0  0  0  0  0  0  0  0
   -0.4342   -2.6720   -1.2254 C   0  0  0  0  0  0  0  0  0  0  0  0
    0.8071   -3.1720   -1.5603 C   0  0  0  0  0  0  0  0  0  0  0  0
    1.9579   -2.5342   -1.1487 C   0  0  0  0  0  0  0  0  0  0  0  0
    3.2026   -3.0432   -1.4896 O   0  0  0  0  0  0  0  0  0  0  0  0
    3.2120    0.4132    0.7768 C   0  0  0  0  0  0  0  0  0  0  0  0
    5.6535    3.7477    2.6259 H   0  0  0  0  0  0  0  0  0  0  0  0
    6.5573    0.8531    1.0461 H   0  0  0  0  0  0  0  0  0  0  0  0
    6.4981   -1.1735   -0.2824 H   0  0  0  0  0  0  0  0  0  0  0  0
    0.6061    0.0108    0.5278 H   0  0  0  0  0  0  0  0  0  0  0  0
   -2.1490   -1.2678    0.7849 H   0  0  0  0  0  0  0  0  0  0  0  0
   -3.9526   -0.4561    1.2671 H   0  0  0  0  0  0  0  0  0  0  0  0
   -6.0929    0.5714    1.7412 H   0  0  0  0  0  0  0  0  0  0  0  0
   -8.0729    1.8142    0.6948 H   0  0  0  0  0  0  0  0  0  0  0  0
   -5.8758    2.7918   -1.8709 H   0  0  0  0  0  0  0  0  0  0  0  0
   -3.7327    1.7985   -2.4000 H   0  0  0  0  0  0  0  0  0  0  0  0
   -1.3516   -3.1451   -1.5304 H   0  0  0  0  0  0  0  0  0  0  0  0
    0.8667   -4.0906   -2.1630 H   0  0  0  0  0  0  0  0  0  0  0  0
    3.7684   -2.6437   -2.2263 H   0  0  0  0  0  0  0  0  0  0  0  0
    2.3170    0.9072    1.1059 H   0  0  0  0  0  0  0  0  0  0  0  0
  1  2  2  0
  2  3  1  0
  2  4  1  0
  4  5  2  0
  5  6  1  0
  6  7  2  0
  7  8  1  0
  8  9  1  0
  9 10  2  0
 10 11  1  0
 11 12  1  0
 12 13  1  0
 13 14  2  0
 13 15  1  0
 15 16  2  0
 16 17  1  0
 17 18  2  0
 18 19  1  0
 18 20  1  0
 20 21  2  0
 11 22  2  0
 22 23  1  0
 23 24  2  0
 24 25  1  0
  8 26  2  0
 26  4  1  0
 24  9  1  0
 21 15  1  0
  3 27  1  0
  5 28  1  0
  6 29  1  0
 10 30  1  0
 12 31  1  0
 16 32  1  0
 17 33  1  0
 19 34  1  0
 20 35  1  0
 21 36  1  0
 22 37  1  0
 23 38  1  0
 25 39  1  0
 26 40  1  0
M  END
$$$$
