@<TRIPOS>MOLECULE
*****
 40 42 0 0 0
SMALL
GASTEIGER

@<TRIPOS>ATOM
      1 O           3.3396    2.7343    2.2981 O.2     1  UNL1       -0.2451
      2 C           4.4299    2.2074    1.9464 C.2     1  UNL1        0.3369
      3 O           5.6257    2.7856    2.3187 O.3     1  UNL1       -0.4771
      4 C           4.4140    0.9985    1.1538 C.ar    1  UNL1        0.0623
      5 C           5.6081    0.4251    0.7709 C.ar    1  UNL1       -0.0296
      6 C           5.5456   -0.7200    0.0204 C.ar    1  UNL1        0.0290
      7 N           4.3721   -1.2593   -0.3266 N.ar    1  UNL1       -0.2548
      8 C           3.1839   -0.7302    0.0272 C.ar    1  UNL1        0.0753
      9 C           1.9342   -1.3634   -0.3809 C.ar    1  UNL1        0.0435
     10 C           0.6904   -0.8825   -0.0585 C.ar    1  UNL1       -0.0278
     11 C          -0.4610   -1.5086   -0.4624 C.ar    1  UNL1        0.0345
     12 N          -1.7208   -0.9607   -0.0960 N.am    1  UNL1       -0.2815
     13 C          -2.3782   -0.0122   -0.9209 C.2     1  UNL1        0.2483
     14 O          -1.7640    0.3024   -1.9915 O.2     1  UNL1       -0.2699
     15 C          -3.6507    0.5809   -0.6119 C.ar    1  UNL1        0.0372
     16 C          -4.3230    0.2503    0.5387 C.ar    1  UNL1       -0.0462
     17 C          -5.5571    0.8237    0.8414 C.ar    1  UNL1       -0.0195
     18 C          -6.0942    1.7280   -0.0307 C.ar    1  UNL1        0.1169
     19 O          -7.3382    2.3327    0.2333 O.3     1  UNL1       -0.5068
     20 C          -5.4269    2.0670   -1.1895 C.ar    1  UNL1       -0.0195
     21 C          -4.2140    1.4913   -1.4683 C.ar    1  UNL1       -0.0462
     22 C          -0.4342   -2.6720   -1.2254 C.ar    1  UNL1       -0.0370
     23 C           0.8071   -3.1720   -1.5603 C.ar    1  UNL1       -0.0178
     24 C           1.9579   -2.5342   -1.1487 C.ar    1  UNL1        0.1261
     25 O           3.2026   -3.0432   -1.4896 O.3     1  UNL1       -0.5061
     26 C           3.2120    0.4132    0.7768 C.ar    1  UNL1       -0.0216
     27 H           5.6535    3.7477    2.6259 H       1  UNL1        0.2954
     28 H           6.5573    0.8531    1.0461 H       1  UNL1        0.0641
     29 H           6.4981   -1.1735   -0.2824 H       1  UNL1        0.0830
     30 H           0.6061    0.0108    0.5278 H       1  UNL1        0.0644
     31 H          -2.1490   -1.2678    0.7849 H       1  UNL1        0.1551
     32 H          -3.9526   -0.4561    1.2671 H       1  UNL1        0.0626
     33 H          -6.0929    0.5714    1.7412 H       1  UNL1        0.0654
     34 H          -8.0729    1.8142    0.6948 H       1  UNL1        0.2921
     35 H          -5.8758    2.7918   -1.8709 H       1  UNL1        0.0654
     36 H          -3.7327    1.7985   -2.4000 H       1  UNL1        0.0626
     37 H          -1.3516   -3.1451   -1.5304 H       1  UNL1        0.0637
     38 H           0.8667   -4.0906   -2.1630 H       1  UNL1        0.0655
     39 H           3.7684   -2.6437   -2.2263 H       1  UNL1        0.2922
     40 H           2.3170    0.9072    1.1059 H       1  UNL1        0.0647
@<TRIPOS>BOND
     1     1     2    2
     2     2     3    1
     3     2     4    1
     4     4     5   ar
     5     5     6   ar
     6     6     7   ar
     7     7     8   ar
     8     8     9    1
     9     9    10   ar
    10    10    11   ar
    11    11    12    1
    12    12    13   am
    13    13    14    2
    14    13    15    1
    15    15    16   ar
    16    16    17   ar
    17    17    18   ar
    18    18    19    1
    19    18    20   ar
    20    20    21   ar
    21    11    22   ar
    22    22    23   ar
    23    23    24   ar
    24    24    25    1
    25     8    26   ar
    26    26     4   ar
    27    24     9   ar
    28    21    15   ar
    29     3    27    1
    30     5    28    1
    31     6    29    1
    32    10    30    1
    33    12    31    1
    34    16    32    1
    35    17    33    1
    36    19    34    1
    37    20    35    1
    38    21    36    1
    39    22    37    1
    40    23    38    1
    41    25    39    1
    42    26    40    1
