@<TRIPOS>MOLECULE
*****
 43 46 0 0 0
SMALL
GASTEIGER

@<TRIPOS>ATOM
      1 C          -4.7181    1.1742   -2.0301 C.3     1  UNL1       -0.0380
      2 C          -4.9509    0.3057   -0.8393 C.ar    1  UNL1       -0.0291
      3 C          -6.0066   -0.5825   -0.8268 C.ar    1  UNL1       -0.0571
      4 C          -6.2663   -1.4108    0.2535 C.ar    1  UNL1       -0.0614
      5 C          -5.4535   -1.3629    1.3670 C.ar    1  UNL1       -0.0600
      6 C          -4.3994   -0.4719    1.3472 C.ar    1  UNL1       -0.0401
      7 C          -4.1373    0.3548    0.2735 C.ar    1  UNL1        0.0394
      8 N          -3.0335    1.2488    0.3214 N.am    1  UNL1       -0.2506
      9 C          -1.7488    0.8407   -0.1435 C.2     1  UNL1        0.4099
     10 O          -1.5359   -0.3090   -0.6095 O.2     1  UNL1       -0.2257
     11 O          -0.6537    1.6959   -0.1075 O.3     1  UNL1       -0.4113
     12 C           0.6082    1.3210   -0.5548 C.ar    1  UNL1        0.1337
     13 C           1.0192    1.5033   -1.8602 C.ar    1  UNL1       -0.0157
     14 C           2.2740    1.1283   -2.2966 C.ar    1  UNL1       -0.0161
     15 C           3.1793    0.5487   -1.4338 C.ar    1  UNL1        0.1280
     16 C           2.7867    0.3594   -0.1296 C.ar    1  UNL1        0.0098
     17 C           1.5192    0.7402    0.3037 C.ar    1  UNL1       -0.0118
     18 C           3.9308   -0.2732    0.5641 C.3     1  UNL1        0.0608
     19 C           4.0513    0.1993    1.9910 C.3     1  UNL1       -0.0496
     20 C           3.9013   -1.7788    0.4603 C.3     1  UNL1       -0.0141
     21 C           5.1595   -2.0634   -0.3498 C.3     1  UNL1        0.0527
     22 O           5.9783   -0.9493   -0.1049 O.3     1  UNL1       -0.3408
     23 C           5.1021    0.0958   -0.2839 C.3     1  UNL1        0.2113
     24 O           4.4982    0.0757   -1.5897 O.3     1  UNL1       -0.4624
     25 H          -4.1755    0.6300   -2.8373 H       1  UNL1        0.0278
     26 H          -4.2321    2.1275   -1.7607 H       1  UNL1        0.0278
     27 H          -5.7078    1.4379   -2.4636 H       1  UNL1        0.0278
     28 H          -6.6502   -0.6283   -1.6945 H       1  UNL1        0.0621
     29 H          -7.0969   -2.1093    0.2627 H       1  UNL1        0.0618
     30 H          -5.6466   -2.0128    2.2303 H       1  UNL1        0.0618
     31 H          -3.7754   -0.4629    2.2512 H       1  UNL1        0.0636
     32 H          -3.1004    2.2240    0.6885 H       1  UNL1        0.1582
     33 H           0.3056    1.9593   -2.5374 H       1  UNL1        0.0655
     34 H           2.5965    1.2729   -3.3269 H       1  UNL1        0.0655
     35 H           1.2006    0.5938    1.3353 H       1  UNL1        0.0658
     36 H           3.1308    0.7808    2.2338 H       1  UNL1        0.0240
     37 H           4.9705    0.7733    2.1825 H       1  UNL1        0.0240
     38 H           4.0372   -0.6809    2.6609 H       1  UNL1        0.0240
     39 H           3.8915   -2.2907    1.4231 H       1  UNL1        0.0298
     40 H           3.0417   -2.0684   -0.2057 H       1  UNL1        0.0298
     41 H           4.9384   -2.0222   -1.4526 H       1  UNL1        0.0561
     42 H           5.6440   -3.0027   -0.0610 H       1  UNL1        0.0561
     43 H           5.5239    1.0885   -0.0515 H       1  UNL1        0.1065
@<TRIPOS>BOND
     1     1     2    1
     2     2     3   ar
     3     3     4   ar
     4     4     5   ar
     5     5     6   ar
     6     6     7   ar
     7     7     8    1
     8     8     9   am
     9     9    10    2
    10     9    11    1
    11    11    12    1
    12    12    13   ar
    13    13    14   ar
    14    14    15   ar
    15    15    16   ar
    16    16    17   ar
    17    16    18    1
    18    18    19    1
    19    18    20    1
    20    20    21    1
    21    21    22    1
    22    22    23    1
    23    23    24    1
    24     7     2   ar
    25    17    12   ar
    26    23    18    1
    27    24    15    1
    28     1    25    1
    29     1    26    1
    30     1    27    1
    31     3    28    1
    32     4    29    1
    33     5    30    1
    34     6    31    1
    35     8    32    1
    36    13    33    1
    37    14    34    1
    38    17    35    1
    39    19    36    1
    40    19    37    1
    41    19    38    1
    42    20    39    1
    43    20    40    1
    44    21    41    1
    45    21    42    1
    46    23    43    1
