
     RDKit          3D

 43 46  0  0  0  0  0  0  0  0999 V2000
   -4.7181    1.1742   -2.0301 C   0  0  0  0  0  0  0  0  0  0  0  0
   -4.9509    0.3057   -0.8393 C   0  0  0  0  0  0  0  0  0  0  0  0
   -6.0066   -0.5825   -0.8268 C   0  0  0  0  0  0  0  0  0  0  0  0
   -6.2663   -1.4108    0.2535 C   0  0  0  0  0  0  0  0  0  0  0  0
   -5.4535   -1.3629    1.3670 C   0  0  0  0  0  0  0  0  0  0  0  0
   -4.3994   -0.4719    1.3472 C   0  0  0  0  0  0  0  0  0  0  0  0
   -4.1373    0.3548    0.2735 C   0  0  0  0  0  0  0  0  0  0  0  0
   -3.0335    1.2488    0.3214 N   0  0  0  0  0  0  0  0  0  0  0  0
   -1.7488    0.8407   -0.1435 C   0  0  0  0  0  0  0  0  0  0  0  0
   -1.5359   -0.3090   -0.6095 O   0  0  0  0  0  0  0  0  0  0  0  0
   -0.6537    1.6959   -0.1075 O   0  0  0  0  0  0  0  0  0  0  0  0
    0.6082    1.3210   -0.5548 C   0  0  0  0  0  0  0  0  0  0  0  0
    1.0192    1.5033   -1.8602 C   0  0  0  0  0  0  0  0  0  0  0  0
    2.2740    1.1283   -2.2966 C   0  0  0  0  0  0  0  0  0  0  0  0
    3.1793    0.5487   -1.4338 C   0  0  0  0  0  0  0  0  0  0  0  0
    2.7867    0.3594   -0.1296 C   0  0  0  0  0  0  0  0  0  0  0  0
    1.5192    0.7402    0.3037 C   0  0  0  0  0  0  0  0  0  0  0  0
    3.9308   -0.2732    0.5641 C   0  0  1  0  0  0  0  0  0  0  0  0
    4.0513    0.1993    1.9910 C   0  0  0  0  0  0  0  0  0  0  0  0
    3.9013   -1.7788    0.4603 C   0  0  0  0  0  0  0  0  0  0  0  0
    5.1595   -2.0634   -0.3498 C   0  0  0  0  0  0  0  0  0  0  0  0
    5.9783   -0.9493   -0.1049 O   0  0  0  0  0  0  0  0  0  0  0  0
    5.1021    0.0958   -0.2839 C   0  0  0  0  0  0  0  0  0  0  0  0
    4.4982    0.0757   -1.5897 O   0  0  0  0  0  0  0  0  0  0  0  0
   -4.1755    0.6300   -2.8373 H   0  0  0  0  0  0  0  0  0  0  0  0
   -4.2321    2.1275   -1.7607 H   0  0  0  0  0  0  0  0  0  0  0  0
   -5.7078    1.4379   -2.4636 H   0  0  0  0  0  0  0  0  0  0  0  0
   -6.6502   -0.6283   -1.6945 H   0  0  0  0  0  0  0  0  0  0  0  0
   -7.0969   -2.1093    0.2627 H   0  0  0  0  0  0  0  0  0  0  0  0
   -5.6466   -2.0128    2.2303 H   0  0  0  0  0  0  0  0  0  0  0  0
   -3.7754   -0.4629    2.2512 H   0  0  0  0  0  0  0  0  0  0  0  0
   -3.1004    2.2240    0.6885 H   0  0  0  0  0  0  0  0  0  0  0  0
    0.3056    1.9593   -2.5374 H   0  0  0  0  0  0  0  0  0  0  0  0
    2.5965    1.2729   -3.3269 H   0  0  0  0  0  0  0  0  0  0  0  0
    1.2006    0.5938    1.3353 H   0  0  0  0  0  0  0  0  0  0  0  0
    3.1308    0.7808    2.2338 H   0  0  0  0  0  0  0  0  0  0  0  0
    4.9705    0.7733    2.1825 H   0  0  0  0  0  0  0  0  0  0  0  0
    4.0372   -0.6809    2.6609 H   0  0  0  0  0  0  0  0  0  0  0  0
    3.8915   -2.2907    1.4231 H   0  0  0  0  0  0  0  0  0  0  0  0
    3.0417   -2.0684   -0.2057 H   0  0  0  0  0  0  0  0  0  0  0  0
    4.9384   -2.0222   -1.4526 H   0  0  0  0  0  0  0  0  0  0  0  0
    5.6440   -3.0027   -0.0610 H   0  0  0  0  0  0  0  0  0  0  0  0
    5.5239    1.0885   -0.0515 H   0  0  0  0  0  0  0  0  0  0  0  0
  1  2  1  0
  2  3  2  0
  3  4  1  0
  4  5  2  0
  5  6  1  0
  6  7  2  0
  7  8  1  0
  8  9  1  0
  9 10  2  0
  9 11  1  0
 11 12  1  0
 12 13  2  0
 13 14  1  0
 14 15  2  0
 15 16  1  0
 16 17  2  0
 16 18  1  0
 18 19  1  1
 18 20  1  0
 20 21  1  0
 21 22  1  0
 22 23  1  0
 23 24  1  0
  7  2  1  0
 17 12  1  0
 23 18  1  0
 24 15  1  0
  1 25  1  0
  1 26  1  0
  1 27  1  0
  3 28  1  0
  4 29  1  0
  5 30  1  0
  6 31  1  0
  8 32  1  0
 13 33  1  0
 14 34  1  0
 17 35  1  0
 19 36  1  0
 19 37  1  0
 19 38  1  0
 20 39  1  0
 20 40  1  0
 21 41  1  0
 21 42  1  0
 23 43  1  0
M  END
$$$$
