@<TRIPOS>MOLECULE
*****
 56 59 0 0 0
SMALL
GASTEIGER

@<TRIPOS>ATOM
      1 C           0.6498   -0.8272   -0.2403 C.3     1  UNL1       -0.0300
      2 C           1.5532   -2.0094   -0.1272 C.3     1  UNL1       -0.0461
      3 C           2.9085   -1.3818   -0.3831 C.3     1  UNL1       -0.0335
      4 C           3.5180   -1.8173   -1.6944 C.3     1  UNL1       -0.0617
      5 C           2.6890    0.1290   -0.3552 C.3     1  UNL1        0.0281
      6 C           3.8513    0.8592    0.1041 C.2     1  UNL1        0.1623
      7 O           4.9290    0.3721    0.4574 O.2     1  UNL1       -0.2946
      8 C           4.1989    2.2823    0.3159 C.3     1  UNL1        0.1025
      9 O           5.5081    2.4281    0.7771 O.3     1  UNL1       -0.3875
     10 C           1.4575    0.2158    0.5197 C.3     1  UNL1       -0.0167
     11 C           1.8541   -0.2436    1.9010 C.3     1  UNL1       -0.0586
     12 C           0.7815    1.5328    0.5045 C.3     1  UNL1       -0.0188
     13 C          -0.6942    1.3906    0.8903 C.3     1  UNL1        0.0761
     14 O          -0.8560    1.1853    2.2544 O.3     1  UNL1       -0.3900
     15 C          -1.3569    0.3867    0.0156 C.3     1  UNL1        0.0866
     16 CL         -0.9659    0.8063   -1.6709 Cl      1  UNL1       -0.1139
     17 C          -0.7269   -0.9958    0.2610 C.3     1  UNL1       -0.0121
     18 C          -1.4464   -1.9806   -0.6350 C.3     1  UNL1       -0.0130
     19 C          -2.9389   -1.9693   -0.3957 C.3     1  UNL1        0.1236
     20 F          -3.4754   -2.9652   -1.1956 F       1  UNL1       -0.2407
     21 C          -3.4852   -0.6305   -0.7421 C.2     1  UNL1       -0.0212
     22 C          -4.3959   -0.5379   -1.7000 C.2     1  UNL1       -0.0121
     23 C          -4.8459    0.8281   -1.9394 C.2     1  UNL1        0.1788
     24 O          -5.7014    1.0136   -2.8215 O.2     1  UNL1       -0.2879
     25 C          -4.2772    1.9157   -1.1383 C.2     1  UNL1       -0.0180
     26 C          -3.3696    1.6993   -0.2057 C.2     1  UNL1       -0.0687
     27 C          -2.8413    0.3542    0.1211 C.3     1  UNL1        0.0321
     28 C          -3.3178    0.0624    1.5425 C.3     1  UNL1       -0.0505
     29 H           0.6312   -0.5053   -1.3007 H       1  UNL1        0.0310
     30 H           1.3248   -2.6565   -1.0228 H       1  UNL1        0.0271
     31 H           1.4940   -2.5744    0.8051 H       1  UNL1        0.0271
     32 H           3.6248   -1.6944    0.4036 H       1  UNL1        0.0305
     33 H           4.2189   -2.6878   -1.5448 H       1  UNL1        0.0233
     34 H           2.7604   -2.1439   -2.4077 H       1  UNL1        0.0233
     35 H           4.1664   -0.9961   -2.0678 H       1  UNL1        0.0233
     36 H           2.3495    0.4048   -1.3822 H       1  UNL1        0.0386
     37 H           3.5419    2.8205    1.0176 H       1  UNL1        0.0636
     38 H           4.0724    2.8053   -0.6712 H       1  UNL1        0.0636
     39 H           5.6398    3.4033    0.8933 H       1  UNL1        0.2100
     40 H           1.7594    0.5936    2.6513 H       1  UNL1        0.0235
     41 H           2.9273   -0.5503    1.9621 H       1  UNL1        0.0235
     42 H           1.2662   -1.1184    2.2154 H       1  UNL1        0.0235
     43 H           0.8038    1.9515   -0.5043 H       1  UNL1        0.0296
     44 H           1.2483    2.2173    1.2457 H       1  UNL1        0.0296
     45 H          -1.1314    2.3893    0.6836 H       1  UNL1        0.0611
     46 H          -0.6331    0.3019    2.5820 H       1  UNL1        0.2099
     47 H          -0.7729   -1.2928    1.3187 H       1  UNL1        0.0323
     48 H          -1.2782   -1.6169   -1.6806 H       1  UNL1        0.0299
     49 H          -1.0481   -2.9941   -0.5329 H       1  UNL1        0.0299
     50 H          -3.1650   -2.2529    0.6504 H       1  UNL1        0.0699
     51 H          -4.7273   -1.4209   -2.2111 H       1  UNL1        0.0656
     52 H          -4.6933    2.8984   -1.4093 H       1  UNL1        0.0653
     53 H          -3.0915    2.6379    0.2614 H       1  UNL1        0.0582
     54 H          -3.3196    0.9840    2.1618 H       1  UNL1        0.0242
     55 H          -2.7870   -0.7779    2.0095 H       1  UNL1        0.0242
     56 H          -4.3859   -0.2281    1.4540 H       1  UNL1        0.0242
@<TRIPOS>BOND
     1     1     2    1
     2     2     3    1
     3     3     4    1
     4     3     5    1
     5     5     6    1
     6     6     7    2
     7     6     8    1
     8     8     9    1
     9     5    10    1
    10    10    11    1
    11    10    12    1
    12    12    13    1
    13    13    14    1
    14    13    15    1
    15    15    16    1
    16    15    17    1
    17    17    18    1
    18    18    19    1
    19    19    20    1
    20    19    21    1
    21    21    22    2
    22    22    23    1
    23    23    24    2
    24    23    25    1
    25    25    26    2
    26    26    27    1
    27    27    28    1
    28    10     1    1
    29    27    15    1
    30    17     1    1
    31    27    21    1
    32     1    29    1
    33     2    30    1
    34     2    31    1
    35     3    32    1
    36     4    33    1
    37     4    34    1
    38     4    35    1
    39     5    36    1
    40     8    37    1
    41     8    38    1
    42     9    39    1
    43    11    40    1
    44    11    41    1
    45    11    42    1
    46    12    43    1
    47    12    44    1
    48    13    45    1
    49    14    46    1
    50    17    47    1
    51    18    48    1
    52    18    49    1
    53    19    50    1
    54    22    51    1
    55    25    52    1
    56    26    53    1
    57    28    54    1
    58    28    55    1
    59    28    56    1
