
     RDKit          3D

 56 59  0  0  0  0  0  0  0  0999 V2000
    0.6498   -0.8272   -0.2403 C   0  0  2  0  0  0  0  0  0  0  0  0
    1.5532   -2.0094   -0.1272 C   0  0  0  0  0  0  0  0  0  0  0  0
    2.9085   -1.3818   -0.3831 C   0  0  1  0  0  0  0  0  0  0  0  0
    3.5180   -1.8173   -1.6944 C   0  0  0  0  0  0  0  0  0  0  0  0
    2.6890    0.1290   -0.3552 C   0  0  2  0  0  0  0  0  0  0  0  0
    3.8513    0.8592    0.1041 C   0  0  0  0  0  0  0  0  0  0  0  0
    4.9290    0.3721    0.4574 O   0  0  0  0  0  0  0  0  0  0  0  0
    4.1989    2.2823    0.3159 C   0  0  0  0  0  0  0  0  0  0  0  0
    5.5081    2.4281    0.7771 O   0  0  0  0  0  0  0  0  0  0  0  0
    1.4575    0.2158    0.5197 C   0  0  2  0  0  0  0  0  0  0  0  0
    1.8541   -0.2436    1.9010 C   0  0  0  0  0  0  0  0  0  0  0  0
    0.7815    1.5328    0.5045 C   0  0  0  0  0  0  0  0  0  0  0  0
   -0.6942    1.3906    0.8903 C   0  0  2  0  0  0  0  0  0  0  0  0
   -0.8560    1.1853    2.2544 O   0  0  0  0  0  0  0  0  0  0  0  0
   -1.3569    0.3867    0.0156 C   0  0  1  0  0  0  0  0  0  0  0  0
   -0.9659    0.8063   -1.6709 Cl  0  0  0  0  0  0  0  0  0  0  0  0
   -0.7269   -0.9958    0.2610 C   0  0  1  0  0  0  0  0  0  0  0  0
   -1.4464   -1.9806   -0.6350 C   0  0  0  0  0  0  0  0  0  0  0  0
   -2.9389   -1.9693   -0.3957 C   0  0  2  0  0  0  0  0  0  0  0  0
   -3.4754   -2.9652   -1.1956 F   0  0  0  0  0  0  0  0  0  0  0  0
   -3.4852   -0.6305   -0.7421 C   0  0  0  0  0  0  0  0  0  0  0  0
   -4.3959   -0.5379   -1.7000 C   0  0  0  0  0  0  0  0  0  0  0  0
   -4.8459    0.8281   -1.9394 C   0  0  0  0  0  0  0  0  0  0  0  0
   -5.7014    1.0136   -2.8215 O   0  0  0  0  0  0  0  0  0  0  0  0
   -4.2772    1.9157   -1.1383 C   0  0  0  0  0  0  0  0  0  0  0  0
   -3.3696    1.6993   -0.2057 C   0  0  0  0  0  0  0  0  0  0  0  0
   -2.8413    0.3542    0.1211 C   0  0  2  0  0  0  0  0  0  0  0  0
   -3.3178    0.0624    1.5425 C   0  0  0  0  0  0  0  0  0  0  0  0
    0.6312   -0.5053   -1.3007 H   0  0  0  0  0  0  0  0  0  0  0  0
    1.3248   -2.6565   -1.0228 H   0  0  0  0  0  0  0  0  0  0  0  0
    1.4940   -2.5744    0.8051 H   0  0  0  0  0  0  0  0  0  0  0  0
    3.6248   -1.6944    0.4036 H   0  0  0  0  0  0  0  0  0  0  0  0
    4.2189   -2.6878   -1.5448 H   0  0  0  0  0  0  0  0  0  0  0  0
    2.7604   -2.1439   -2.4077 H   0  0  0  0  0  0  0  0  0  0  0  0
    4.1664   -0.9961   -2.0678 H   0  0  0  0  0  0  0  0  0  0  0  0
    2.3495    0.4048   -1.3822 H   0  0  0  0  0  0  0  0  0  0  0  0
    3.5419    2.8205    1.0176 H   0  0  0  0  0  0  0  0  0  0  0  0
    4.0724    2.8053   -0.6712 H   0  0  0  0  0  0  0  0  0  0  0  0
    5.6398    3.4033    0.8933 H   0  0  0  0  0  0  0  0  0  0  0  0
    1.7594    0.5936    2.6513 H   0  0  0  0  0  0  0  0  0  0  0  0
    2.9273   -0.5503    1.9621 H   0  0  0  0  0  0  0  0  0  0  0  0
    1.2662   -1.1184    2.2154 H   0  0  0  0  0  0  0  0  0  0  0  0
    0.8038    1.9515   -0.5043 H   0  0  0  0  0  0  0  0  0  0  0  0
    1.2483    2.2173    1.2457 H   0  0  0  0  0  0  0  0  0  0  0  0
   -1.1314    2.3893    0.6836 H   0  0  0  0  0  0  0  0  0  0  0  0
   -0.6331    0.3019    2.5820 H   0  0  0  0  0  0  0  0  0  0  0  0
   -0.7729   -1.2928    1.3187 H   0  0  0  0  0  0  0  0  0  0  0  0
   -1.2782   -1.6169   -1.6806 H   0  0  0  0  0  0  0  0  0  0  0  0
   -1.0481   -2.9941   -0.5329 H   0  0  0  0  0  0  0  0  0  0  0  0
   -3.1650   -2.2529    0.6504 H   0  0  0  0  0  0  0  0  0  0  0  0
   -4.7273   -1.4209   -2.2111 H   0  0  0  0  0  0  0  0  0  0  0  0
   -4.6933    2.8984   -1.4093 H   0  0  0  0  0  0  0  0  0  0  0  0
   -3.0915    2.6379    0.2614 H   0  0  0  0  0  0  0  0  0  0  0  0
   -3.3196    0.9840    2.1618 H   0  0  0  0  0  0  0  0  0  0  0  0
   -2.7870   -0.7779    2.0095 H   0  0  0  0  0  0  0  0  0  0  0  0
   -4.3859   -0.2281    1.4540 H   0  0  0  0  0  0  0  0  0  0  0  0
  1  2  1  0
  2  3  1  0
  3  4  1  0
  3  5  1  0
  5  6  1  0
  6  7  2  0
  6  8  1  0
  8  9  1  0
  5 10  1  0
 10 11  1  1
 10 12  1  0
 12 13  1  0
 13 14  1  0
 13 15  1  0
 15 16  1  6
 15 17  1  0
 17 18  1  0
 18 19  1  0
 19 20  1  0
 19 21  1  0
 21 22  2  0
 22 23  1  0
 23 24  2  0
 23 25  1  0
 25 26  2  0
 26 27  1  0
 27 28  1  1
 10  1  1  0
 27 15  1  0
 17  1  1  0
 27 21  1  0
  1 29  1  6
  2 30  1  0
  2 31  1  0
  3 32  1  1
  4 33  1  0
  4 34  1  0
  4 35  1  0
  5 36  1  6
  8 37  1  0
  8 38  1  0
  9 39  1  0
 11 40  1  0
 11 41  1  0
 11 42  1  0
 12 43  1  0
 12 44  1  0
 13 45  1  6
 14 46  1  0
 17 47  1  1
 18 48  1  0
 18 49  1  0
 19 50  1  1
 22 51  1  0
 25 52  1  0
 26 53  1  0
 28 54  1  0
 28 55  1  0
 28 56  1  0
M  END
$$$$
