@<TRIPOS>MOLECULE
*****
 42 44 0 0 0
SMALL
GASTEIGER

@<TRIPOS>ATOM
      1 C          -3.8902    2.9962    0.3959 C.3     1  UNL1        0.0622
      2 O          -2.5081    2.9103    0.2570 O.3     1  UNL1       -0.2831
      3 N          -2.1356    1.6832   -0.2088 N.am    1  UNL1       -0.1946
      4 C          -0.7712    1.3507   -0.4342 C.2     1  UNL1        0.2408
      5 O           0.0751    2.2308   -0.1876 O.2     1  UNL1       -0.2734
      6 C          -0.4866   -0.0137   -0.9418 C.3     1  UNL1        0.0598
      7 C           0.9532   -0.3336   -1.1346 C.3     1  UNL1       -0.0018
      8 C           1.9108    0.7001   -0.6734 C.ar    1  UNL1       -0.0434
      9 C           2.5470    1.5903   -1.5164 C.ar    1  UNL1       -0.0569
     10 C           3.4479    2.5308   -1.0439 C.ar    1  UNL1       -0.0431
     11 C           3.7262    2.5897    0.3077 C.ar    1  UNL1        0.0410
     12 CL          4.8825    3.7978    0.9082 Cl      1  UNL1       -0.0835
     13 C           3.1117    1.7213    1.1659 C.ar    1  UNL1       -0.0431
     14 C           2.2195    0.7967    0.6623 C.ar    1  UNL1       -0.0569
     15 C           1.4117   -1.6467   -0.6039 C.3     1  UNL1       -0.0297
     16 C           0.3710   -2.5865   -0.1479 C.3     1  UNL1        0.0110
     17 C           0.0377   -2.3301    1.3029 C.3     1  UNL1       -0.0359
     18 C          -0.9542   -1.1896    1.2521 C.3     1  UNL1       -0.0352
     19 C          -1.2683   -1.0844   -0.1901 C.3     1  UNL1        0.0222
     20 N          -0.8883   -2.3501   -0.8127 N.3     1  UNL1       -0.2987
     21 C          -1.8510   -3.3827   -0.6181 C.3     1  UNL1       -0.0122
     22 H          -4.4178    2.3896   -0.3905 H       1  UNL1        0.0547
     23 H          -4.1677    2.5350    1.3755 H       1  UNL1        0.0547
     24 H          -4.2680    4.0183    0.3369 H       1  UNL1        0.0547
     25 H          -2.9048    1.0041   -0.3904 H       1  UNL1        0.1824
     26 H          -1.0299   -0.0253   -1.9515 H       1  UNL1        0.0416
     27 H           1.1059   -0.3752   -2.2649 H       1  UNL1        0.0357
     28 H           2.3344    1.5496   -2.5705 H       1  UNL1        0.0621
     29 H           3.9602    3.2393   -1.6791 H       1  UNL1        0.0632
     30 H           3.3564    1.7989    2.2190 H       1  UNL1        0.0632
     31 H           1.7772    0.1448    1.4065 H       1  UNL1        0.0621
     32 H           2.1278   -1.4969    0.2578 H       1  UNL1        0.0286
     33 H           2.0518   -2.1938   -1.3592 H       1  UNL1        0.0286
     34 H           0.7080   -3.6468   -0.2482 H       1  UNL1        0.0463
     35 H          -0.4135   -3.2239    1.7847 H       1  UNL1        0.0281
     36 H           0.9632   -2.0604    1.8483 H       1  UNL1        0.0281
     37 H          -1.8202   -1.4698    1.8870 H       1  UNL1        0.0281
     38 H          -0.5430   -0.2823    1.6944 H       1  UNL1        0.0281
     39 H          -2.3438   -0.9523   -0.3501 H       1  UNL1        0.0470
     40 H          -1.8475   -3.8455    0.3802 H       1  UNL1        0.0391
     41 H          -1.7070   -4.1331   -1.4413 H       1  UNL1        0.0391
     42 H          -2.8628   -2.9545   -0.7914 H       1  UNL1        0.0391
@<TRIPOS>BOND
     1     1     2    1
     2     2     3    1
     3     3     4   am
     4     4     5    2
     5     4     6    1
     6     6     7    1
     7     7     8    1
     8     8     9   ar
     9     9    10   ar
    10    10    11   ar
    11    11    12    1
    12    11    13   ar
    13    13    14   ar
    14     7    15    1
    15    15    16    1
    16    16    17    1
    17    17    18    1
    18    18    19    1
    19    19    20    1
    20    20    21    1
    21    19     6    1
    22    14     8   ar
    23    20    16    1
    24     1    22    1
    25     1    23    1
    26     1    24    1
    27     3    25    1
    28     6    26    1
    29     7    27    1
    30     9    28    1
    31    10    29    1
    32    13    30    1
    33    14    31    1
    34    15    32    1
    35    15    33    1
    36    16    34    1
    37    17    35    1
    38    17    36    1
    39    18    37    1
    40    18    38    1
    41    19    39    1
    42    21    40    1
    43    21    41    1
    44    21    42    1
