
     RDKit          3D

 42 44  0  0  0  0  0  0  0  0999 V2000
   -3.8902    2.9962    0.3959 C   0  0  0  0  0  0  0  0  0  0  0  0
   -2.5081    2.9103    0.2570 O   0  0  0  0  0  0  0  0  0  0  0  0
   -2.1356    1.6832   -0.2088 N   0  0  0  0  0  0  0  0  0  0  0  0
   -0.7712    1.3507   -0.4342 C   0  0  0  0  0  0  0  0  0  0  0  0
    0.0751    2.2308   -0.1876 O   0  0  0  0  0  0  0  0  0  0  0  0
   -0.4866   -0.0137   -0.9418 C   0  0  0  0  0  0  0  0  0  0  0  0
    0.9532   -0.3336   -1.1346 C   0  0  0  0  0  0  0  0  0  0  0  0
    1.9108    0.7001   -0.6734 C   0  0  0  0  0  0  0  0  0  0  0  0
    2.5470    1.5903   -1.5164 C   0  0  0  0  0  0  0  0  0  0  0  0
    3.4479    2.5308   -1.0439 C   0  0  0  0  0  0  0  0  0  0  0  0
    3.7262    2.5897    0.3077 C   0  0  0  0  0  0  0  0  0  0  0  0
    4.8825    3.7978    0.9082 Cl  0  0  0  0  0  0  0  0  0  0  0  0
    3.1117    1.7213    1.1659 C   0  0  0  0  0  0  0  0  0  0  0  0
    2.2195    0.7967    0.6623 C   0  0  0  0  0  0  0  0  0  0  0  0
    1.4117   -1.6467   -0.6039 C   0  0  0  0  0  0  0  0  0  0  0  0
    0.3710   -2.5865   -0.1479 C   0  0  0  0  0  0  0  0  0  0  0  0
    0.0377   -2.3301    1.3029 C   0  0  0  0  0  0  0  0  0  0  0  0
   -0.9542   -1.1896    1.2521 C   0  0  0  0  0  0  0  0  0  0  0  0
   -1.2683   -1.0844   -0.1901 C   0  0  0  0  0  0  0  0  0  0  0  0
   -0.8883   -2.3501   -0.8127 N   0  0  0  0  0  0  0  0  0  0  0  0
   -1.8510   -3.3827   -0.6181 C   0  0  0  0  0  0  0  0  0  0  0  0
   -4.4178    2.3896   -0.3905 H   0  0  0  0  0  0  0  0  0  0  0  0
   -4.1677    2.5350    1.3755 H   0  0  0  0  0  0  0  0  0  0  0  0
   -4.2680    4.0183    0.3369 H   0  0  0  0  0  0  0  0  0  0  0  0
   -2.9048    1.0041   -0.3904 H   0  0  0  0  0  0  0  0  0  0  0  0
   -1.0299   -0.0253   -1.9515 H   0  0  0  0  0  0  0  0  0  0  0  0
    1.1059   -0.3752   -2.2649 H   0  0  0  0  0  0  0  0  0  0  0  0
    2.3344    1.5496   -2.5705 H   0  0  0  0  0  0  0  0  0  0  0  0
    3.9602    3.2393   -1.6791 H   0  0  0  0  0  0  0  0  0  0  0  0
    3.3564    1.7989    2.2190 H   0  0  0  0  0  0  0  0  0  0  0  0
    1.7772    0.1448    1.4065 H   0  0  0  0  0  0  0  0  0  0  0  0
    2.1278   -1.4969    0.2578 H   0  0  0  0  0  0  0  0  0  0  0  0
    2.0518   -2.1938   -1.3592 H   0  0  0  0  0  0  0  0  0  0  0  0
    0.7080   -3.6468   -0.2482 H   0  0  0  0  0  0  0  0  0  0  0  0
   -0.4135   -3.2239    1.7847 H   0  0  0  0  0  0  0  0  0  0  0  0
    0.9632   -2.0604    1.8483 H   0  0  0  0  0  0  0  0  0  0  0  0
   -1.8202   -1.4698    1.8870 H   0  0  0  0  0  0  0  0  0  0  0  0
   -0.5430   -0.2823    1.6944 H   0  0  0  0  0  0  0  0  0  0  0  0
   -2.3438   -0.9523   -0.3501 H   0  0  0  0  0  0  0  0  0  0  0  0
   -1.8475   -3.8455    0.3802 H   0  0  0  0  0  0  0  0  0  0  0  0
   -1.7070   -4.1331   -1.4413 H   0  0  0  0  0  0  0  0  0  0  0  0
   -2.8628   -2.9545   -0.7914 H   0  0  0  0  0  0  0  0  0  0  0  0
  1  2  1  0
  2  3  1  0
  3  4  1  0
  4  5  2  0
  4  6  1  0
  6  7  1  0
  7  8  1  0
  8  9  2  0
  9 10  1  0
 10 11  2  0
 11 12  1  0
 11 13  1  0
 13 14  2  0
  7 15  1  0
 15 16  1  0
 16 17  1  0
 17 18  1  0
 18 19  1  0
 19 20  1  0
 20 21  1  0
 19  6  1  0
 14  8  1  0
 20 16  1  0
  1 22  1  0
  1 23  1  0
  1 24  1  0
  3 25  1  0
  6 26  1  0
  7 27  1  0
  9 28  1  0
 10 29  1  0
 13 30  1  0
 14 31  1  0
 15 32  1  0
 15 33  1  0
 16 34  1  0
 17 35  1  0
 17 36  1  0
 18 37  1  0
 18 38  1  0
 19 39  1  0
 21 40  1  0
 21 41  1  0
 21 42  1  0
M  END
$$$$
