
     RDKit          3D

 44 48  0  0  0  0  0  0  0  0999 V2000
    5.3298   -0.3384   -1.9721 N   0  0  0  0  0  0  0  0  0  0  0  0
    3.9953   -0.1407   -1.5029 C   0  0  0  0  0  0  0  0  0  0  0  0
    3.1554    0.4696   -2.1953 O   0  0  0  0  0  0  0  0  0  0  0  0
    3.5722   -0.6488   -0.1914 C   0  0  0  0  0  0  0  0  0  0  0  0
    4.4172   -1.3499    0.6751 C   0  0  0  0  0  0  0  0  0  0  0  0
    3.6807   -1.6366    1.7515 N   0  0  0  0  0  0  0  0  0  0  0  0
    2.4358   -1.1364    1.5624 C   0  0  0  0  0  0  0  0  0  0  0  0
    1.3356   -1.1790    2.3853 C   0  0  0  0  0  0  0  0  0  0  0  0
    0.1566   -0.5951    1.9815 C   0  0  0  0  0  0  0  0  0  0  0  0
    0.0411    0.0390    0.7632 C   0  0  0  0  0  0  0  0  0  0  0  0
   -1.1810    0.6659    0.2788 C   0  0  0  0  0  0  0  0  0  0  0  0
   -2.2943   -0.0051   -0.1552 C   0  0  0  0  0  0  0  0  0  0  0  0
   -2.5817   -1.4285   -0.2693 C   0  0  0  0  0  0  0  0  0  0  0  0
   -2.6775   -2.2010    0.8538 C   0  0  0  0  0  0  0  0  0  0  0  0
   -2.9502   -3.5646    0.7009 C   0  0  0  0  0  0  0  0  0  0  0  0
   -3.1243   -4.1492   -0.5283 C   0  0  0  0  0  0  0  0  0  0  0  0
   -3.3921   -5.4842   -0.6806 F   0  0  0  0  0  0  0  0  0  0  0  0
   -3.0298   -3.3738   -1.6726 C   0  0  0  0  0  0  0  0  0  0  0  0
   -2.7606   -2.0341   -1.5046 C   0  0  0  0  0  0  0  0  0  0  0  0
   -3.1928    0.9646   -0.5111 N   0  0  0  0  0  0  0  0  0  0  0  0
   -2.6716    2.1849   -0.3115 C   0  0  0  0  0  0  0  0  0  0  0  0
   -1.4353    1.9912    0.1740 N   0  0  0  0  0  0  0  0  0  0  0  0
   -0.4998    3.0188    0.5370 C   0  0  0  0  0  0  0  0  0  0  0  0
   -0.0703    3.9548   -0.5451 C   0  0  0  0  0  0  0  0  0  0  0  0
   -0.1440    5.0195    0.3776 O   0  0  0  0  0  0  0  0  0  0  0  0
   -1.1532    4.2987    1.0131 C   0  0  0  0  0  0  0  0  0  0  0  0
    1.1936    0.0505   -0.0302 C   0  0  0  0  0  0  0  0  0  0  0  0
    2.3517   -0.5203    0.3610 N   0  0  0  0  0  0  0  0  0  0  0  0
    5.6918    0.3097   -2.6975 H   0  0  0  0  0  0  0  0  0  0  0  0
    5.9057   -1.1139   -1.5866 H   0  0  0  0  0  0  0  0  0  0  0  0
    5.4660   -1.6048    0.4992 H   0  0  0  0  0  0  0  0  0  0  0  0
    1.4111   -1.6753    3.3469 H   0  0  0  0  0  0  0  0  0  0  0  0
   -0.7002   -0.6319    2.6514 H   0  0  0  0  0  0  0  0  0  0  0  0
   -2.5620   -1.8247    1.8596 H   0  0  0  0  0  0  0  0  0  0  0  0
   -3.0283   -4.1856    1.5885 H   0  0  0  0  0  0  0  0  0  0  0  0
   -3.1719   -3.8567   -2.6271 H   0  0  0  0  0  0  0  0  0  0  0  0
   -2.6840   -1.4130   -2.3806 H   0  0  0  0  0  0  0  0  0  0  0  0
   -3.1941    3.1276   -0.5190 H   0  0  0  0  0  0  0  0  0  0  0  0
    0.3441    2.6971    1.1754 H   0  0  0  0  0  0  0  0  0  0  0  0
   -0.8073    4.0099   -1.3711 H   0  0  0  0  0  0  0  0  0  0  0  0
    0.9697    3.8571   -0.8996 H   0  0  0  0  0  0  0  0  0  0  0  0
   -1.1826    4.4024    2.1088 H   0  0  0  0  0  0  0  0  0  0  0  0
   -2.1260    4.5023    0.5567 H   0  0  0  0  0  0  0  0  0  0  0  0
    1.1617    0.5279   -0.9884 H   0  0  0  0  0  0  0  0  0  0  0  0
  1  2  1  0
  2  3  2  0
  2  4  1  0
  4  5  2  0
  5  6  1  0
  6  7  2  0
  7  8  1  0
  8  9  2  0
  9 10  1  0
 10 11  1  0
 11 12  2  0
 12 13  1  0
 13 14  2  0
 14 15  1  0
 15 16  2  0
 16 17  1  0
 16 18  1  0
 18 19  2  0
 12 20  1  0
 20 21  2  0
 21 22  1  0
 22 23  1  0
 23 24  1  0
 24 25  1  0
 25 26  1  0
 10 27  2  0
 27 28  1  0
 28  4  1  0
 28  7  1  0
 22 11  1  0
 26 23  1  0
 19 13  1  0
  1 29  1  0
  1 30  1  0
  5 31  1  0
  8 32  1  0
  9 33  1  0
 14 34  1  0
 15 35  1  0
 18 36  1  0
 19 37  1  0
 21 38  1  0
 23 39  1  0
 24 40  1  0
 24 41  1  0
 26 42  1  0
 26 43  1  0
 27 44  1  0
M  END
$$$$
