@<TRIPOS>MOLECULE
*****
 44 48 0 0 0
SMALL
GASTEIGER

@<TRIPOS>ATOM
      1 N           5.3298   -0.3384   -1.9721 N.am    1  UNL1       -0.3241
      2 C           3.9953   -0.1407   -1.5029 C.2     1  UNL1        0.2599
      3 O           3.1554    0.4696   -2.1953 O.2     1  UNL1       -0.2687
      4 C           3.5722   -0.6488   -0.1914 C.ar    1  UNL1        0.1280
      5 C           4.4172   -1.3499    0.6751 C.ar    1  UNL1        0.0588
      6 N           3.6807   -1.6366    1.7515 N.ar    1  UNL1       -0.2353
      7 C           2.4358   -1.1364    1.5624 C.ar    1  UNL1        0.1381
      8 C           1.3356   -1.1790    2.3853 C.ar    1  UNL1       -0.0182
      9 C           0.1566   -0.5951    1.9815 C.ar    1  UNL1       -0.0477
     10 C           0.0411    0.0390    0.7632 C.ar    1  UNL1        0.0173
     11 C          -1.1810    0.6659    0.2788 C.ar    1  UNL1        0.0782
     12 C          -2.2943   -0.0051   -0.1552 C.ar    1  UNL1        0.0967
     13 C          -2.5817   -1.4285   -0.2693 C.ar    1  UNL1        0.0026
     14 C          -2.6775   -2.2010    0.8538 C.ar    1  UNL1       -0.0498
     15 C          -2.9502   -3.5646    0.7009 C.ar    1  UNL1       -0.0258
     16 C          -3.1243   -4.1492   -0.5283 C.ar    1  UNL1        0.1234
     17 F          -3.3921   -5.4842   -0.6806 F       1  UNL1       -0.2055
     18 C          -3.0298   -3.3738   -1.6726 C.ar    1  UNL1       -0.0258
     19 C          -2.7606   -2.0341   -1.5046 C.ar    1  UNL1       -0.0498
     20 N          -3.1928    0.9646   -0.5111 N.ar    1  UNL1       -0.2351
     21 C          -2.6716    2.1849   -0.3115 C.ar    1  UNL1        0.0975
     22 N          -1.4353    1.9912    0.1740 N.ar    1  UNL1       -0.3220
     23 C          -0.4998    3.0188    0.5370 C.3     1  UNL1        0.0825
     24 C          -0.0703    3.9548   -0.5451 C.3     1  UNL1        0.0707
     25 O          -0.1440    5.0195    0.3776 O.3     1  UNL1       -0.3755
     26 C          -1.1532    4.2987    1.0131 C.3     1  UNL1        0.0707
     27 C           1.1936    0.0505   -0.0302 C.ar    1  UNL1        0.0211
     28 N           2.3517   -0.5203    0.3610 N.ar    1  UNL1       -0.2949
     29 H           5.6918    0.3097   -2.6975 H       1  UNL1        0.1453
     30 H           5.9057   -1.1139   -1.5866 H       1  UNL1        0.1453
     31 H           5.4660   -1.6048    0.4992 H       1  UNL1        0.0853
     32 H           1.4111   -1.6753    3.3469 H       1  UNL1        0.0654
     33 H          -0.7002   -0.6319    2.6514 H       1  UNL1        0.0626
     34 H          -2.5620   -1.8247    1.8596 H       1  UNL1        0.0625
     35 H          -3.0283   -4.1856    1.5885 H       1  UNL1        0.0646
     36 H          -3.1719   -3.8567   -2.6271 H       1  UNL1        0.0646
     37 H          -2.6840   -1.4130   -2.3806 H       1  UNL1        0.0625
     38 H          -3.1941    3.1276   -0.5190 H       1  UNL1        0.1029
     39 H           0.3441    2.6971    1.1754 H       1  UNL1        0.0574
     40 H          -0.8073    4.0099   -1.3711 H       1  UNL1        0.0581
     41 H           0.9697    3.8571   -0.8996 H       1  UNL1        0.0581
     42 H          -1.1826    4.4024    2.1088 H       1  UNL1        0.0581
     43 H          -2.1260    4.5023    0.5567 H       1  UNL1        0.0581
     44 H           1.1617    0.5279   -0.9884 H       1  UNL1        0.0820
@<TRIPOS>BOND
     1     1     2   am
     2     2     3    2
     3     2     4    1
     4     4     5   ar
     5     5     6   ar
     6     6     7   ar
     7     7     8   ar
     8     8     9   ar
     9     9    10   ar
    10    10    11    1
    11    11    12   ar
    12    12    13    1
    13    13    14   ar
    14    14    15   ar
    15    15    16   ar
    16    16    17    1
    17    16    18   ar
    18    18    19   ar
    19    12    20   ar
    20    20    21   ar
    21    21    22   ar
    22    22    23    1
    23    23    24    1
    24    24    25    1
    25    25    26    1
    26    10    27   ar
    27    27    28   ar
    28    28     4   ar
    29    28     7   ar
    30    22    11   ar
    31    26    23    1
    32    19    13   ar
    33     1    29    1
    34     1    30    1
    35     5    31    1
    36     8    32    1
    37     9    33    1
    38    14    34    1
    39    15    35    1
    40    18    36    1
    41    19    37    1
    42    21    38    1
    43    23    39    1
    44    24    40    1
    45    24    41    1
    46    26    42    1
    47    26    43    1
    48    27    44    1
