
     RDKit          3D

 38 41  0  0  0  0  0  0  0  0999 V2000
    4.6129   -3.3669   -1.2191 F   0  0  0  0  0  0  0  0  0  0  0  0
    3.8661   -2.2737   -0.9384 C   0  0  0  0  0  0  0  0  0  0  0  0
    3.6031   -1.3418   -1.9200 C   0  0  0  0  0  0  0  0  0  0  0  0
    2.8442   -0.2217   -1.6539 C   0  0  0  0  0  0  0  0  0  0  0  0
    2.5827    0.7043   -2.6289 F   0  0  0  0  0  0  0  0  0  0  0  0
    2.3117    0.0217   -0.3954 C   0  0  0  0  0  0  0  0  0  0  0  0
    1.5108    1.1989   -0.1025 C   0  0  0  0  0  0  0  0  0  0  0  0
    1.9698    2.4727   -0.2126 N   0  0  0  0  0  0  0  0  0  0  0  0
    0.9917    3.3308    0.1284 C   0  0  0  0  0  0  0  0  0  0  0  0
   -0.1254    2.6207    0.4675 N   0  0  0  0  0  0  0  0  0  0  0  0
   -1.4006    3.1174    0.8923 C   0  0  0  0  0  0  0  0  0  0  0  0
   -2.3465    3.3594   -0.2633 C   0  0  0  0  0  0  0  0  0  0  0  0
   -3.5401    3.8364    0.2757 F   0  0  0  0  0  0  0  0  0  0  0  0
   -2.5604    2.2482   -1.0236 F   0  0  0  0  0  0  0  0  0  0  0  0
    0.2030    1.3148    0.3227 C   0  0  0  0  0  0  0  0  0  0  0  0
   -0.6475    0.1634    0.5614 C   0  0  0  0  0  0  0  0  0  0  0  0
   -1.1431   -0.1020    1.8193 C   0  0  0  0  0  0  0  0  0  0  0  0
   -1.9521   -1.2167    1.9830 C   0  0  0  0  0  0  0  0  0  0  0  0
   -2.2589   -2.0421    0.9293 C   0  0  0  0  0  0  0  0  0  0  0  0
   -3.0102   -3.1707    0.8229 N   0  0  0  0  0  0  0  0  0  0  0  0
   -3.0014   -3.6113   -0.4338 C   0  0  0  0  0  0  0  0  0  0  0  0
   -2.2149   -2.7290   -1.1516 C   0  0  0  0  0  0  0  0  0  0  0  0
   -1.7712   -1.7755   -0.2929 N   0  0  0  0  0  0  0  0  0  0  0  0
   -0.9941   -0.7049   -0.4511 C   0  0  0  0  0  0  0  0  0  0  0  0
    2.5902   -0.9311    0.5768 C   0  0  0  0  0  0  0  0  0  0  0  0
    3.3548   -2.0583    0.3061 C   0  0  0  0  0  0  0  0  0  0  0  0
    3.6630   -3.2212    1.5988 Cl  0  0  0  0  0  0  0  0  0  0  0  0
    4.0166   -1.5287   -2.9007 H   0  0  0  0  0  0  0  0  0  0  0  0
    1.0110    4.4129    0.1545 H   0  0  0  0  0  0  0  0  0  0  0  0
   -1.2142    4.1217    1.3611 H   0  0  0  0  0  0  0  0  0  0  0  0
   -1.8917    2.5167    1.6830 H   0  0  0  0  0  0  0  0  0  0  0  0
   -1.9829    4.1622   -0.9352 H   0  0  0  0  0  0  0  0  0  0  0  0
   -0.8874    0.5614    2.6335 H   0  0  0  0  0  0  0  0  0  0  0  0
   -2.3347   -1.4142    2.9748 H   0  0  0  0  0  0  0  0  0  0  0  0
   -3.4757   -4.4654   -0.8930 H   0  0  0  0  0  0  0  0  0  0  0  0
   -1.9645   -2.7381   -2.1848 H   0  0  0  0  0  0  0  0  0  0  0  0
   -0.6023   -0.4925   -1.4382 H   0  0  0  0  0  0  0  0  0  0  0  0
    2.1880   -0.7577    1.5476 H   0  0  0  0  0  0  0  0  0  0  0  0
  1  2  1  0
  2  3  2  0
  3  4  1  0
  4  5  1  0
  4  6  2  0
  6  7  1  0
  7  8  1  0
  8  9  2  0
  9 10  1  0
 10 11  1  0
 11 12  1  0
 12 13  1  0
 12 14  1  0
 10 15  1  0
 15 16  1  0
 16 17  1  0
 17 18  2  0
 18 19  1  0
 19 20  2  0
 20 21  1  0
 21 22  2  0
 22 23  1  0
 23 24  1  0
  6 25  1  0
 25 26  2  0
 26 27  1  0
 26  2  1  0
 15  7  2  0
 24 16  2  0
 23 19  1  0
  3 28  1  0
  9 29  1  0
 11 30  1  0
 11 31  1  0
 12 32  1  0
 17 33  1  0
 18 34  1  0
 21 35  1  0
 22 36  1  0
 24 37  1  0
 25 38  1  0
M  END
$$$$
