@<TRIPOS>MOLECULE
*****
 38 41 0 0 0
SMALL
GASTEIGER

@<TRIPOS>ATOM
      1 F           4.6129   -3.3669   -1.2191 F       1  UNL1       -0.2039
      2 C           3.8661   -2.2737   -0.9384 C.ar    1  UNL1        0.1444
      3 C           3.6031   -1.3418   -1.9200 C.ar    1  UNL1        0.0109
      4 C           2.8442   -0.2217   -1.6539 C.ar    1  UNL1        0.1354
      5 F           2.5827    0.7043   -2.6289 F       1  UNL1       -0.2047
      6 C           2.3117    0.0217   -0.3954 C.ar    1  UNL1        0.0392
      7 C           1.5108    1.1989   -0.1025 C.ar    1  UNL1        0.0995
      8 N           1.9698    2.4727   -0.2126 N.ar    1  UNL1       -0.2350
      9 C           0.9917    3.3308    0.1284 C.ar    1  UNL1        0.0972
     10 N          -0.1254    2.6207    0.4675 N.ar    1  UNL1       -0.3241
     11 C          -1.4006    3.1174    0.8923 C.3     1  UNL1        0.0852
     12 C          -2.3465    3.3594   -0.2633 C.3     1  UNL1        0.2569
     13 F          -3.5401    3.8364    0.2757 F       1  UNL1       -0.2073
     14 F          -2.5604    2.2482   -1.0236 F       1  UNL1       -0.2073
     15 C           0.2030    1.3148    0.3227 C.ar    1  UNL1        0.0781
     16 C          -0.6475    0.1634    0.5614 C.ar    1  UNL1        0.0172
     17 C          -1.1431   -0.1020    1.8193 C.ar    1  UNL1       -0.0477
     18 C          -1.9521   -1.2167    1.9830 C.ar    1  UNL1       -0.0182
     19 C          -2.2589   -2.0421    0.9293 C.ar    1  UNL1        0.1375
     20 N          -3.0102   -3.1707    0.8229 N.ar    1  UNL1       -0.2361
     21 C          -3.0014   -3.6113   -0.4338 C.ar    1  UNL1        0.0464
     22 C          -2.2149   -2.7290   -1.1516 C.ar    1  UNL1        0.0293
     23 N          -1.7712   -1.7755   -0.2929 N.ar    1  UNL1       -0.3060
     24 C          -0.9941   -0.7049   -0.4511 C.ar    1  UNL1        0.0204
     25 C           2.5902   -0.9311    0.5768 C.ar    1  UNL1       -0.0286
     26 C           3.3548   -2.0583    0.3061 C.ar    1  UNL1        0.0769
     27 CL          3.6630   -3.2212    1.5988 Cl      1  UNL1       -0.0806
     28 H           4.0166   -1.5287   -2.9007 H       1  UNL1        0.0676
     29 H           1.0110    4.4129    0.1545 H       1  UNL1        0.1029
     30 H          -1.2142    4.1217    1.3611 H       1  UNL1        0.0548
     31 H          -1.8917    2.5167    1.6830 H       1  UNL1        0.0548
     32 H          -1.9829    4.1622   -0.9352 H       1  UNL1        0.1037
     33 H          -0.8874    0.5614    2.6335 H       1  UNL1        0.0626
     34 H          -2.3347   -1.4142    2.9748 H       1  UNL1        0.0654
     35 H          -3.4757   -4.4654   -0.8930 H       1  UNL1        0.0845
     36 H          -1.9645   -2.7381   -2.1848 H       1  UNL1        0.0829
     37 H          -0.6023   -0.4925   -1.4382 H       1  UNL1        0.0820
     38 H           2.1880   -0.7577    1.5476 H       1  UNL1        0.0640
@<TRIPOS>BOND
     1     1     2    1
     2     2     3   ar
     3     3     4   ar
     4     4     5    1
     5     4     6   ar
     6     6     7    1
     7     7     8   ar
     8     8     9   ar
     9     9    10   ar
    10    10    11    1
    11    11    12    1
    12    12    13    1
    13    12    14    1
    14    10    15   ar
    15    15    16    1
    16    16    17   ar
    17    17    18   ar
    18    18    19   ar
    19    19    20   ar
    20    20    21   ar
    21    21    22   ar
    22    22    23   ar
    23    23    24   ar
    24     6    25   ar
    25    25    26   ar
    26    26    27    1
    27    26     2   ar
    28    15     7   ar
    29    24    16   ar
    30    23    19   ar
    31     3    28    1
    32     9    29    1
    33    11    30    1
    34    11    31    1
    35    12    32    1
    36    17    33    1
    37    18    34    1
    38    21    35    1
    39    22    36    1
    40    24    37    1
    41    25    38    1
