@<TRIPOS>MOLECULE
*****
 83 86 0 0 0
SMALL
GASTEIGER

@<TRIPOS>ATOM
      1 C         -10.4722   -0.4131   -0.4929 C.3     1  UNL1       -0.0523
      2 C          -9.1681    0.2912   -0.7910 C.3     1  UNL1       -0.0029
      3 N          -8.4166    0.4525    0.3953 N.3     1  UNL1       -0.2921
      4 C          -7.8797   -0.6764    0.9993 C.3     1  UNL1        0.0202
      5 C          -7.6149   -1.8662    0.0718 C.3     1  UNL1       -0.0467
      6 C          -8.9011   -1.2036    2.0150 C.3     1  UNL1       -0.0467
      7 C          -6.6118   -0.4683    1.7861 C.3     1  UNL1        0.0023
      8 C          -5.7336    0.6068    1.1947 C.3     1  UNL1        0.1036
      9 O          -5.2332    0.3065   -0.0481 O.3     1  UNL1       -0.4872
     10 C          -3.9403    0.1422   -0.4574 C.ar    1  UNL1        0.1390
     11 C          -3.6297   -0.1656   -1.7911 C.ar    1  UNL1       -0.0162
     12 C          -2.3165   -0.3272   -2.1807 C.ar    1  UNL1       -0.0277
     13 C          -1.2872   -0.1889   -1.2668 C.ar    1  UNL1        0.1259
     14 C           0.0809   -0.3779   -1.7544 C.2     1  UNL1        0.2666
     15 O           0.3149   -0.6589   -2.9771 O.2     1  UNL1       -0.2682
     16 N           1.2376   -0.2685   -0.9322 N.am    1  UNL1       -0.2802
     17 C           2.5493   -0.4586   -1.4352 C.ar    1  UNL1        0.0338
     18 C           3.2327    0.6321   -1.9261 C.ar    1  UNL1       -0.0387
     19 C           4.5068    0.5385   -2.4391 C.ar    1  UNL1       -0.0387
     20 C           5.1718   -0.6767   -2.4863 C.ar    1  UNL1        0.0349
     21 N           6.4742   -0.7944   -3.0138 N.am    1  UNL1       -0.2692
     22 C           7.5922   -0.6423   -2.1519 C.2     1  UNL1        0.3093
     23 O           7.3328   -0.4062   -0.9490 O.2     1  UNL1       -0.2521
     24 N           8.9220   -0.7505   -2.6208 N.am    1  UNL1       -0.2512
     25 C          10.0307   -0.5997   -1.7534 C.ar    1  UNL1        0.1691
     26 C          10.0842   -0.3414   -0.4111 C.ar    1  UNL1        0.0230
     27 C          11.4271   -0.2884   -0.0202 C.ar    1  UNL1        0.1445
     28 C          11.8373   -0.0259    1.3773 C.3     1  UNL1        0.0230
     29 C          11.9204   -1.4043    2.0457 C.3     1  UNL1       -0.0531
     30 C          10.7963    0.7714    2.1184 C.3     1  UNL1       -0.0531
     31 C          13.2054    0.6286    1.4074 C.3     1  UNL1       -0.0531
     32 O          12.1226   -0.5085   -1.0994 O.2     1  UNL1       -0.3573
     33 N          11.3512   -0.6935   -2.1232 N.ar    1  UNL1       -0.0627
     34 C           4.4876   -1.7910   -1.9902 C.ar    1  UNL1       -0.0387
     35 C           3.2120   -1.6609   -1.4835 C.ar    1  UNL1       -0.0387
     36 N          -1.5846    0.1010   -0.0137 N.ar    1  UNL1       -0.2467
     37 C          -2.8796    0.2658    0.3965 C.ar    1  UNL1        0.0701
     38 C          -6.5622    1.8709    1.2401 C.3     1  UNL1        0.0023
     39 C          -7.8379    1.7226    0.4956 C.3     1  UNL1        0.0202
     40 C          -8.8572    2.5940    1.2614 C.3     1  UNL1       -0.0467
     41 C          -7.6865    2.4342   -0.8497 C.3     1  UNL1       -0.0467
     42 H         -10.4316   -1.5001   -0.6597 H       1  UNL1        0.0242
     43 H         -11.2864   -0.0456   -1.1664 H       1  UNL1        0.0242
     44 H         -10.8520   -0.1879    0.5385 H       1  UNL1        0.0242
     45 H          -9.4628    1.2655   -1.2636 H       1  UNL1        0.0424
     46 H          -8.6503   -0.2538   -1.6157 H       1  UNL1        0.0424
     47 H          -6.7575   -2.4672    0.5014 H       1  UNL1        0.0247
     48 H          -8.4646   -2.5988    0.0910 H       1  UNL1        0.0247
     49 H          -7.2871   -1.5792   -0.9236 H       1  UNL1        0.0247
     50 H          -9.5664   -1.9427    1.5232 H       1  UNL1        0.0247
     51 H          -8.3486   -1.7644    2.7998 H       1  UNL1        0.0247
     52 H          -9.4375   -0.3410    2.4604 H       1  UNL1        0.0247
     53 H          -6.0402   -1.4062    1.8376 H       1  UNL1        0.0319
     54 H          -6.8553   -0.1666    2.8238 H       1  UNL1        0.0319
     55 H          -4.9132    0.7537    1.9205 H       1  UNL1        0.0734
     56 H          -4.4467   -0.2644   -2.4635 H       1  UNL1        0.0655
     57 H          -2.0586   -0.5677   -3.2191 H       1  UNL1        0.0641
     58 H           1.1085   -0.0415    0.0722 H       1  UNL1        0.1552
     59 H           2.7720    1.6282   -1.9239 H       1  UNL1        0.0637
     60 H           5.0032    1.4442   -2.8169 H       1  UNL1        0.0637
     61 H           6.6065   -0.9894   -4.0193 H       1  UNL1        0.1564
     62 H           9.0625   -0.9503   -3.6480 H       1  UNL1        0.1579
     63 H           9.2354   -0.2003    0.2441 H       1  UNL1        0.0688
     64 H          11.9862   -1.3132    3.1442 H       1  UNL1        0.0239
     65 H          12.7349   -2.0086    1.5968 H       1  UNL1        0.0239
     66 H          10.9624   -1.9296    1.8187 H       1  UNL1        0.0239
     67 H          10.1833    0.1513    2.8114 H       1  UNL1        0.0239
     68 H          11.2552    1.5762    2.7543 H       1  UNL1        0.0239
     69 H          10.0818    1.2739    1.4405 H       1  UNL1        0.0239
     70 H          13.1578    1.5796    0.8438 H       1  UNL1        0.0239
     71 H          13.5624    0.8063    2.4207 H       1  UNL1        0.0239
     72 H          13.8791   -0.0476    0.8227 H       1  UNL1        0.0239
     73 H           4.9849   -2.7674   -2.0131 H       1  UNL1        0.0637
     74 H           2.7073   -2.5415   -1.1056 H       1  UNL1        0.0637
     75 H          -3.0110    0.4981    1.4337 H       1  UNL1        0.0867
     76 H          -5.9572    2.6894    0.7993 H       1  UNL1        0.0319
     77 H          -6.6928    2.1330    2.3111 H       1  UNL1        0.0319
     78 H          -9.1969    2.0299    2.1521 H       1  UNL1        0.0247
     79 H          -8.3165    3.5388    1.5322 H       1  UNL1        0.0247
     80 H          -9.6564    2.8575    0.5570 H       1  UNL1        0.0247
     81 H          -8.5492    3.0779   -1.0876 H       1  UNL1        0.0247
     82 H          -6.7941    3.1250   -0.8160 H       1  UNL1        0.0247
     83 H          -7.5277    1.7454   -1.6787 H       1  UNL1        0.0247
@<TRIPOS>BOND
     1     1     2    1
     2     2     3    1
     3     3     4    1
     4     4     5    1
     5     4     6    1
     6     4     7    1
     7     7     8    1
     8     8     9    1
     9     9    10    1
    10    10    11   ar
    11    11    12   ar
    12    12    13   ar
    13    13    14    1
    14    14    15    2
    15    14    16   am
    16    16    17    1
    17    17    18   ar
    18    18    19   ar
    19    19    20   ar
    20    20    21    1
    21    21    22   am
    22    22    23    2
    23    22    24   am
    24    24    25    1
    25    25    26   ar
    26    26    27   ar
    27    27    28    1
    28    28    29    1
    29    28    30    1
    30    28    31    1
    31    27    32   ar
    32    32    33   ar
    33    20    34   ar
    34    34    35   ar
    35    13    36   ar
    36    36    37   ar
    37     8    38    1
    38    38    39    1
    39    39    40    1
    40    39    41    1
    41    39     3    1
    42    37    10   ar
    43    35    17   ar
    44    33    25   ar
    45     1    42    1
    46     1    43    1
    47     1    44    1
    48     2    45    1
    49     2    46    1
    50     5    47    1
    51     5    48    1
    52     5    49    1
    53     6    50    1
    54     6    51    1
    55     6    52    1
    56     7    53    1
    57     7    54    1
    58     8    55    1
    59    11    56    1
    60    12    57    1
    61    16    58    1
    62    18    59    1
    63    19    60    1
    64    21    61    1
    65    24    62    1
    66    26    63    1
    67    29    64    1
    68    29    65    1
    69    29    66    1
    70    30    67    1
    71    30    68    1
    72    30    69    1
    73    31    70    1
    74    31    71    1
    75    31    72    1
    76    34    73    1
    77    35    74    1
    78    37    75    1
    79    38    76    1
    80    38    77    1
    81    40    78    1
    82    40    79    1
    83    40    80    1
    84    41    81    1
    85    41    82    1
    86    41    83    1
