
     RDKit          3D

 83 86  0  0  0  0  0  0  0  0999 V2000
  -10.4722   -0.4131   -0.4929 C   0  0  0  0  0  0  0  0  0  0  0  0
   -9.1681    0.2912   -0.7910 C   0  0  0  0  0  0  0  0  0  0  0  0
   -8.4166    0.4525    0.3953 N   0  0  0  0  0  0  0  0  0  0  0  0
   -7.8797   -0.6764    0.9993 C   0  0  0  0  0  0  0  0  0  0  0  0
   -7.6149   -1.8662    0.0718 C   0  0  0  0  0  0  0  0  0  0  0  0
   -8.9011   -1.2036    2.0150 C   0  0  0  0  0  0  0  0  0  0  0  0
   -6.6118   -0.4683    1.7861 C   0  0  0  0  0  0  0  0  0  0  0  0
   -5.7336    0.6068    1.1947 C   0  0  0  0  0  0  0  0  0  0  0  0
   -5.2332    0.3065   -0.0481 O   0  0  0  0  0  0  0  0  0  0  0  0
   -3.9403    0.1422   -0.4574 C   0  0  0  0  0  0  0  0  0  0  0  0
   -3.6297   -0.1656   -1.7911 C   0  0  0  0  0  0  0  0  0  0  0  0
   -2.3165   -0.3272   -2.1807 C   0  0  0  0  0  0  0  0  0  0  0  0
   -1.2872   -0.1889   -1.2668 C   0  0  0  0  0  0  0  0  0  0  0  0
    0.0809   -0.3779   -1.7544 C   0  0  0  0  0  0  0  0  0  0  0  0
    0.3149   -0.6589   -2.9771 O   0  0  0  0  0  0  0  0  0  0  0  0
    1.2376   -0.2685   -0.9322 N   0  0  0  0  0  0  0  0  0  0  0  0
    2.5493   -0.4586   -1.4352 C   0  0  0  0  0  0  0  0  0  0  0  0
    3.2327    0.6321   -1.9261 C   0  0  0  0  0  0  0  0  0  0  0  0
    4.5068    0.5385   -2.4391 C   0  0  0  0  0  0  0  0  0  0  0  0
    5.1718   -0.6767   -2.4863 C   0  0  0  0  0  0  0  0  0  0  0  0
    6.4742   -0.7944   -3.0138 N   0  0  0  0  0  0  0  0  0  0  0  0
    7.5922   -0.6423   -2.1519 C   0  0  0  0  0  0  0  0  0  0  0  0
    7.3328   -0.4062   -0.9490 O   0  0  0  0  0  0  0  0  0  0  0  0
    8.9220   -0.7505   -2.6208 N   0  0  0  0  0  0  0  0  0  0  0  0
   10.0307   -0.5997   -1.7534 C   0  0  0  0  0  0  0  0  0  0  0  0
   10.0842   -0.3414   -0.4111 C   0  0  0  0  0  0  0  0  0  0  0  0
   11.4271   -0.2884   -0.0202 C   0  0  0  0  0  0  0  0  0  0  0  0
   11.8373   -0.0259    1.3773 C   0  0  0  0  0  0  0  0  0  0  0  0
   11.9204   -1.4043    2.0457 C   0  0  0  0  0  0  0  0  0  0  0  0
   10.7963    0.7714    2.1184 C   0  0  0  0  0  0  0  0  0  0  0  0
   13.2054    0.6286    1.4074 C   0  0  0  0  0  0  0  0  0  0  0  0
   12.1226   -0.5085   -1.0994 O   0  0  0  0  0  0  0  0  0  0  0  0
   11.3512   -0.6935   -2.1232 N   0  0  0  0  0  0  0  0  0  0  0  0
    4.4876   -1.7910   -1.9902 C   0  0  0  0  0  0  0  0  0  0  0  0
    3.2120   -1.6609   -1.4835 C   0  0  0  0  0  0  0  0  0  0  0  0
   -1.5846    0.1010   -0.0137 N   0  0  0  0  0  0  0  0  0  0  0  0
   -2.8796    0.2658    0.3965 C   0  0  0  0  0  0  0  0  0  0  0  0
   -6.5622    1.8709    1.2401 C   0  0  0  0  0  0  0  0  0  0  0  0
   -7.8379    1.7226    0.4956 C   0  0  0  0  0  0  0  0  0  0  0  0
   -8.8572    2.5940    1.2614 C   0  0  0  0  0  0  0  0  0  0  0  0
   -7.6865    2.4342   -0.8497 C   0  0  0  0  0  0  0  0  0  0  0  0
  -10.4316   -1.5001   -0.6597 H   0  0  0  0  0  0  0  0  0  0  0  0
  -11.2864   -0.0456   -1.1664 H   0  0  0  0  0  0  0  0  0  0  0  0
  -10.8520   -0.1879    0.5385 H   0  0  0  0  0  0  0  0  0  0  0  0
   -9.4628    1.2655   -1.2636 H   0  0  0  0  0  0  0  0  0  0  0  0
   -8.6503   -0.2538   -1.6157 H   0  0  0  0  0  0  0  0  0  0  0  0
   -6.7575   -2.4672    0.5014 H   0  0  0  0  0  0  0  0  0  0  0  0
   -8.4646   -2.5988    0.0910 H   0  0  0  0  0  0  0  0  0  0  0  0
   -7.2871   -1.5792   -0.9236 H   0  0  0  0  0  0  0  0  0  0  0  0
   -9.5664   -1.9427    1.5232 H   0  0  0  0  0  0  0  0  0  0  0  0
   -8.3486   -1.7644    2.7998 H   0  0  0  0  0  0  0  0  0  0  0  0
   -9.4375   -0.3410    2.4604 H   0  0  0  0  0  0  0  0  0  0  0  0
   -6.0402   -1.4062    1.8376 H   0  0  0  0  0  0  0  0  0  0  0  0
   -6.8553   -0.1666    2.8238 H   0  0  0  0  0  0  0  0  0  0  0  0
   -4.9132    0.7537    1.9205 H   0  0  0  0  0  0  0  0  0  0  0  0
   -4.4467   -0.2644   -2.4635 H   0  0  0  0  0  0  0  0  0  0  0  0
   -2.0586   -0.5677   -3.2191 H   0  0  0  0  0  0  0  0  0  0  0  0
    1.1085   -0.0415    0.0722 H   0  0  0  0  0  0  0  0  0  0  0  0
    2.7720    1.6282   -1.9239 H   0  0  0  0  0  0  0  0  0  0  0  0
    5.0032    1.4442   -2.8169 H   0  0  0  0  0  0  0  0  0  0  0  0
    6.6065   -0.9894   -4.0193 H   0  0  0  0  0  0  0  0  0  0  0  0
    9.0625   -0.9503   -3.6480 H   0  0  0  0  0  0  0  0  0  0  0  0
    9.2354   -0.2003    0.2441 H   0  0  0  0  0  0  0  0  0  0  0  0
   11.9862   -1.3132    3.1442 H   0  0  0  0  0  0  0  0  0  0  0  0
   12.7349   -2.0086    1.5968 H   0  0  0  0  0  0  0  0  0  0  0  0
   10.9624   -1.9296    1.8187 H   0  0  0  0  0  0  0  0  0  0  0  0
   10.1833    0.1513    2.8114 H   0  0  0  0  0  0  0  0  0  0  0  0
   11.2552    1.5762    2.7543 H   0  0  0  0  0  0  0  0  0  0  0  0
   10.0818    1.2739    1.4405 H   0  0  0  0  0  0  0  0  0  0  0  0
   13.1578    1.5796    0.8438 H   0  0  0  0  0  0  0  0  0  0  0  0
   13.5624    0.8063    2.4207 H   0  0  0  0  0  0  0  0  0  0  0  0
   13.8791   -0.0476    0.8227 H   0  0  0  0  0  0  0  0  0  0  0  0
    4.9849   -2.7674   -2.0131 H   0  0  0  0  0  0  0  0  0  0  0  0
    2.7073   -2.5415   -1.1056 H   0  0  0  0  0  0  0  0  0  0  0  0
   -3.0110    0.4981    1.4337 H   0  0  0  0  0  0  0  0  0  0  0  0
   -5.9572    2.6894    0.7993 H   0  0  0  0  0  0  0  0  0  0  0  0
   -6.6928    2.1330    2.3111 H   0  0  0  0  0  0  0  0  0  0  0  0
   -9.1969    2.0299    2.1521 H   0  0  0  0  0  0  0  0  0  0  0  0
   -8.3165    3.5388    1.5322 H   0  0  0  0  0  0  0  0  0  0  0  0
   -9.6564    2.8575    0.5570 H   0  0  0  0  0  0  0  0  0  0  0  0
   -8.5492    3.0779   -1.0876 H   0  0  0  0  0  0  0  0  0  0  0  0
   -6.7941    3.1250   -0.8160 H   0  0  0  0  0  0  0  0  0  0  0  0
   -7.5277    1.7454   -1.6787 H   0  0  0  0  0  0  0  0  0  0  0  0
  1  2  1  0
  2  3  1  0
  3  4  1  0
  4  5  1  0
  4  6  1  0
  4  7  1  0
  7  8  1  0
  8  9  1  0
  9 10  1  0
 10 11  2  0
 11 12  1  0
 12 13  2  0
 13 14  1  0
 14 15  2  0
 14 16  1  0
 16 17  1  0
 17 18  2  0
 18 19  1  0
 19 20  2  0
 20 21  1  0
 21 22  1  0
 22 23  2  0
 22 24  1  0
 24 25  1  0
 25 26  1  0
 26 27  2  0
 27 28  1  0
 28 29  1  0
 28 30  1  0
 28 31  1  0
 27 32  1  0
 32 33  1  0
 20 34  1  0
 34 35  2  0
 13 36  1  0
 36 37  2  0
  8 38  1  0
 38 39  1  0
 39 40  1  0
 39 41  1  0
 39  3  1  0
 37 10  1  0
 35 17  1  0
 33 25  2  0
  1 42  1  0
  1 43  1  0
  1 44  1  0
  2 45  1  0
  2 46  1  0
  5 47  1  0
  5 48  1  0
  5 49  1  0
  6 50  1  0
  6 51  1  0
  6 52  1  0
  7 53  1  0
  7 54  1  0
  8 55  1  0
 11 56  1  0
 12 57  1  0
 16 58  1  0
 18 59  1  0
 19 60  1  0
 21 61  1  0
 24 62  1  0
 26 63  1  0
 29 64  1  0
 29 65  1  0
 29 66  1  0
 30 67  1  0
 30 68  1  0
 30 69  1  0
 31 70  1  0
 31 71  1  0
 31 72  1  0
 34 73  1  0
 35 74  1  0
 37 75  1  0
 38 76  1  0
 38 77  1  0
 40 78  1  0
 40 79  1  0
 40 80  1  0
 41 81  1  0
 41 82  1  0
 41 83  1  0
M  END
$$$$
