
     RDKit          3D

 41 43  0  0  0  0  0  0  0  0999 V2000
   -3.9766    1.2546    0.5196 C   0  0  0  0  0  0  0  0  0  0  0  0
   -3.1834    1.4552   -0.7446 C   0  0  0  0  0  0  0  0  0  0  0  0
   -2.5432    0.2561   -1.3231 C   0  0  0  0  0  0  0  0  0  0  0  0
   -1.5931   -0.4631   -0.5964 N   0  0  0  0  0  0  0  0  0  0  0  0
   -1.9981   -1.1960    0.5490 C   0  0  0  0  0  0  0  0  0  0  0  0
   -1.0646   -2.3220    0.9058 C   0  0  0  0  0  0  0  0  0  0  0  0
    0.1687   -2.3756    0.0586 C   0  0  0  0  0  0  0  0  0  0  0  0
    0.6925   -1.1033   -0.4152 C   0  0  0  0  0  0  0  0  0  0  0  0
    1.8936   -0.5476    0.2506 C   0  0  0  0  0  0  0  0  0  0  0  0
    2.5126   -1.1187    1.3202 C   0  0  0  0  0  0  0  0  0  0  0  0
    3.6303   -0.5183    1.8878 C   0  0  0  0  0  0  0  0  0  0  0  0
    4.0797    0.6594    1.3332 C   0  0  0  0  0  0  0  0  0  0  0  0
    5.1964    1.2675    1.8941 O   0  0  0  0  0  0  0  0  0  0  0  0
    3.4426    1.2395    0.2388 C   0  0  0  0  0  0  0  0  0  0  0  0
    2.3426    0.6378   -0.3109 C   0  0  0  0  0  0  0  0  0  0  0  0
    1.6528    1.2505   -1.4794 C   0  0  0  0  0  0  0  0  0  0  0  0
    0.1670    0.9871   -1.5029 C   0  0  0  0  0  0  0  0  0  0  0  0
   -0.2971    0.0592   -0.4127 C   0  0  0  0  0  0  0  0  0  0  0  0
   -4.8255    2.0070    0.5784 H   0  0  0  0  0  0  0  0  0  0  0  0
   -4.4250    0.2511    0.5498 H   0  0  0  0  0  0  0  0  0  0  0  0
   -3.3604    1.4537    1.4416 H   0  0  0  0  0  0  0  0  0  0  0  0
   -2.5176    2.3437   -0.6560 H   0  0  0  0  0  0  0  0  0  0  0  0
   -3.9580    1.8087   -1.5014 H   0  0  0  0  0  0  0  0  0  0  0  0
   -2.0706    0.5276   -2.3181 H   0  0  0  0  0  0  0  0  0  0  0  0
   -3.3575   -0.4545   -1.6270 H   0  0  0  0  0  0  0  0  0  0  0  0
   -2.0925   -0.5274    1.4263 H   0  0  0  0  0  0  0  0  0  0  0  0
   -3.0198   -1.6095    0.3338 H   0  0  0  0  0  0  0  0  0  0  0  0
   -1.6329   -3.2732    0.7984 H   0  0  0  0  0  0  0  0  0  0  0  0
   -0.8109   -2.2509    1.9829 H   0  0  0  0  0  0  0  0  0  0  0  0
   -0.1004   -3.0290   -0.8341 H   0  0  0  0  0  0  0  0  0  0  0  0
    0.9377   -2.9754    0.5704 H   0  0  0  0  0  0  0  0  0  0  0  0
    1.0104   -1.2113   -1.5014 H   0  0  0  0  0  0  0  0  0  0  0  0
    2.1956   -2.0376    1.7902 H   0  0  0  0  0  0  0  0  0  0  0  0
    4.1275   -0.9578    2.7336 H   0  0  0  0  0  0  0  0  0  0  0  0
    5.6047    2.1229    1.5491 H   0  0  0  0  0  0  0  0  0  0  0  0
    3.8371    2.1785   -0.1688 H   0  0  0  0  0  0  0  0  0  0  0  0
    2.1368    0.9312   -2.4244 H   0  0  0  0  0  0  0  0  0  0  0  0
    1.7990    2.3470   -1.4017 H   0  0  0  0  0  0  0  0  0  0  0  0
   -0.4021    1.9228   -1.5947 H   0  0  0  0  0  0  0  0  0  0  0  0
   -0.0457    0.4367   -2.4690 H   0  0  0  0  0  0  0  0  0  0  0  0
   -0.1529    0.5734    0.5695 H   0  0  0  0  0  0  0  0  0  0  0  0
  1  2  1  0
  2  3  1  0
  3  4  1  0
  4  5  1  0
  5  6  1  0
  6  7  1  0
  7  8  1  0
  8  9  1  0
  9 10  2  0
 10 11  1  0
 11 12  2  0
 12 13  1  0
 12 14  1  0
 14 15  2  0
 15 16  1  0
 16 17  1  0
 17 18  1  0
 18  4  1  0
 18  8  1  0
 15  9  1  0
  1 19  1  0
  1 20  1  0
  1 21  1  0
  2 22  1  0
  2 23  1  0
  3 24  1  0
  3 25  1  0
  5 26  1  0
  5 27  1  0
  6 28  1  0
  6 29  1  0
  7 30  1  0
  7 31  1  0
  8 32  1  0
 10 33  1  0
 11 34  1  0
 13 35  1  0
 14 36  1  0
 16 37  1  0
 16 38  1  0
 17 39  1  0
 17 40  1  0
 18 41  1  0
M  END
$$$$
