@<TRIPOS>MOLECULE
*****
 41 43 0 0 0
SMALL
GASTEIGER

@<TRIPOS>ATOM
      1 C          -3.9766    1.2546    0.5196 C.3     1  UNL1       -0.0641
      2 C          -3.1834    1.4552   -0.7446 C.3     1  UNL1       -0.0430
      3 C          -2.5432    0.2561   -1.3231 C.3     1  UNL1       -0.0011
      4 N          -1.5931   -0.4631   -0.5964 N.3     1  UNL1       -0.2988
      5 C          -1.9981   -1.1960    0.5490 C.3     1  UNL1       -0.0008
      6 C          -1.0646   -2.3220    0.9058 C.3     1  UNL1       -0.0396
      7 C           0.1687   -2.3756    0.0586 C.3     1  UNL1       -0.0436
      8 C           0.6925   -1.1033   -0.4152 C.3     1  UNL1        0.0001
      9 C           1.8936   -0.5476    0.2506 C.ar    1  UNL1       -0.0394
     10 C           2.5126   -1.1187    1.3202 C.ar    1  UNL1       -0.0546
     11 C           3.6303   -0.5183    1.8878 C.ar    1  UNL1       -0.0199
     12 C           4.0797    0.6594    1.3332 C.ar    1  UNL1        0.1171
     13 O           5.1964    1.2675    1.8941 O.3     1  UNL1       -0.5068
     14 C           3.4426    1.2395    0.2388 C.ar    1  UNL1       -0.0167
     15 C           2.3426    0.6378   -0.3109 C.ar    1  UNL1       -0.0404
     16 C           1.6528    1.2505   -1.4794 C.3     1  UNL1       -0.0259
     17 C           0.1670    0.9871   -1.5029 C.3     1  UNL1       -0.0328
     18 C          -0.2971    0.0592   -0.4127 C.3     1  UNL1        0.0175
     19 H          -4.8255    2.0070    0.5784 H       1  UNL1        0.0230
     20 H          -4.4250    0.2511    0.5498 H       1  UNL1        0.0230
     21 H          -3.3604    1.4537    1.4416 H       1  UNL1        0.0230
     22 H          -2.5176    2.3437   -0.6560 H       1  UNL1        0.0275
     23 H          -3.9580    1.8087   -1.5014 H       1  UNL1        0.0275
     24 H          -2.0706    0.5276   -2.3181 H       1  UNL1        0.0426
     25 H          -3.3575   -0.4545   -1.6270 H       1  UNL1        0.0426
     26 H          -2.0925   -0.5274    1.4263 H       1  UNL1        0.0427
     27 H          -3.0198   -1.6095    0.3338 H       1  UNL1        0.0427
     28 H          -1.6329   -3.2732    0.7984 H       1  UNL1        0.0278
     29 H          -0.8109   -2.2509    1.9829 H       1  UNL1        0.0278
     30 H          -0.1004   -3.0290   -0.8341 H       1  UNL1        0.0272
     31 H           0.9377   -2.9754    0.5704 H       1  UNL1        0.0272
     32 H           1.0104   -1.2113   -1.5014 H       1  UNL1        0.0364
     33 H           2.1956   -2.0376    1.7902 H       1  UNL1        0.0622
     34 H           4.1275   -0.9578    2.7336 H       1  UNL1        0.0654
     35 H           5.6047    2.1229    1.5491 H       1  UNL1        0.2921
     36 H           3.8371    2.1785   -0.1688 H       1  UNL1        0.0657
     37 H           2.1368    0.9312   -2.4244 H       1  UNL1        0.0314
     38 H           1.7990    2.3470   -1.4017 H       1  UNL1        0.0314
     39 H          -0.4021    1.9228   -1.5947 H       1  UNL1        0.0284
     40 H          -0.0457    0.4367   -2.4690 H       1  UNL1        0.0284
     41 H          -0.1529    0.5734    0.5695 H       1  UNL1        0.0468
@<TRIPOS>BOND
     1     1     2    1
     2     2     3    1
     3     3     4    1
     4     4     5    1
     5     5     6    1
     6     6     7    1
     7     7     8    1
     8     8     9    1
     9     9    10   ar
    10    10    11   ar
    11    11    12   ar
    12    12    13    1
    13    12    14   ar
    14    14    15   ar
    15    15    16    1
    16    16    17    1
    17    17    18    1
    18    18     4    1
    19    18     8    1
    20    15     9   ar
    21     1    19    1
    22     1    20    1
    23     1    21    1
    24     2    22    1
    25     2    23    1
    26     3    24    1
    27     3    25    1
    28     5    26    1
    29     5    27    1
    30     6    28    1
    31     6    29    1
    32     7    30    1
    33     7    31    1
    34     8    32    1
    35    10    33    1
    36    11    34    1
    37    13    35    1
    38    14    36    1
    39    16    37    1
    40    16    38    1
    41    17    39    1
    42    17    40    1
    43    18    41    1
