@<TRIPOS>MOLECULE
*****
 48 52 0 0 0
SMALL
GASTEIGER

@<TRIPOS>ATOM
      1 C           2.9001    1.4719    0.6938 C.1     1  UNL1       -0.0813
      2 C           1.8307    0.9335    0.5668 C.1     1  UNL1       -0.0620
      3 C           0.5271    0.2899    0.4283 C.ar    1  UNL1        0.0612
      4 C          -0.5232    0.6518    1.2369 C.ar    1  UNL1        0.0468
      5 N          -1.7002    0.0374    1.0789 N.ar    1  UNL1       -0.2343
      6 C          -1.9323   -0.9228    0.1723 C.ar    1  UNL1        0.1632
      7 C          -3.0386   -1.6892   -0.1726 C.ar    1  UNL1        0.0467
      8 C          -4.3627   -1.6239    0.4390 C.ar    1  UNL1       -0.0022
      9 C          -4.7109   -2.4011    1.5267 C.ar    1  UNL1       -0.0351
     10 C          -5.9561   -2.3545    2.1195 C.ar    1  UNL1        0.0288
     11 N          -6.8551   -1.4942    1.5832 N.ar    1  UNL1       -0.2549
     12 C          -6.5693   -0.7139    0.5243 C.ar    1  UNL1        0.0715
     13 C          -7.5352    0.1379    0.0326 C.ar    1  UNL1       -0.0357
     14 C          -7.2454    0.9426   -1.0569 C.ar    1  UNL1       -0.0597
     15 C          -6.0052    0.9058   -1.6586 C.ar    1  UNL1       -0.0611
     16 C          -5.0353    0.0448   -1.1582 C.ar    1  UNL1       -0.0520
     17 C          -5.3180   -0.7590   -0.0734 C.ar    1  UNL1        0.0082
     18 C          -2.5995   -2.5034   -1.2019 C.ar    1  UNL1        0.0597
     19 N          -1.3199   -2.2265   -1.4386 N.ar    1  UNL1       -0.1727
     20 N          -0.8890   -1.2644   -0.6123 N.ar    1  UNL1       -0.2200
     21 C           0.3211   -0.6916   -0.5112 C.ar    1  UNL1        0.0483
     22 C           4.2086    2.1448    0.8274 C.3     1  UNL1        0.0613
     23 N           4.9342    1.9392   -0.4032 N.3     1  UNL1       -0.2891
     24 C           6.2270    2.5437   -0.4106 C.3     1  UNL1        0.0124
     25 C           7.2710    1.4822   -0.6614 C.3     1  UNL1        0.0088
     26 N           7.1241    0.4678    0.3668 N.3     1  UNL1       -0.3136
     27 C           5.9050   -0.2548    0.1027 C.3     1  UNL1        0.0088
     28 C           4.9207    0.5441   -0.7198 C.3     1  UNL1        0.0124
     29 H          -0.3779    1.4145    1.9731 H       1  UNL1        0.0843
     30 H          -3.9565   -3.0725    1.9177 H       1  UNL1        0.0639
     31 H          -6.1818   -2.9821    2.9693 H       1  UNL1        0.0830
     32 H          -8.4929    0.1573    0.5080 H       1  UNL1        0.0639
     33 H          -8.0150    1.6008   -1.4247 H       1  UNL1        0.0618
     34 H          -5.7454    1.5274   -2.5190 H       1  UNL1        0.0618
     35 H          -4.0465   -0.0312   -1.5835 H       1  UNL1        0.0624
     36 H          -3.2647   -3.2208   -1.6769 H       1  UNL1        0.0855
     37 H           1.1301   -0.9819   -1.1460 H       1  UNL1        0.0844
     38 H           4.7530    1.6244    1.6402 H       1  UNL1        0.0563
     39 H           4.0298    3.2141    1.0521 H       1  UNL1        0.0563
     40 H           6.3197    3.3183   -1.2141 H       1  UNL1        0.0439
     41 H           6.4006    3.0606    0.5729 H       1  UNL1        0.0439
     42 H           7.0790    1.0511   -1.6451 H       1  UNL1        0.0437
     43 H           8.2988    1.8989   -0.6671 H       1  UNL1        0.0437
     44 H           7.0329    0.9560    1.2797 H       1  UNL1        0.1220
     45 H           5.4173   -0.5464    1.0786 H       1  UNL1        0.0437
     46 H           6.0770   -1.2158   -0.4245 H       1  UNL1        0.0437
     47 H           5.0583    0.3539   -1.8222 H       1  UNL1        0.0439
     48 H           3.9108    0.1452   -0.4891 H       1  UNL1        0.0439
@<TRIPOS>BOND
     1     1     2    3
     2     2     3    1
     3     3     4   ar
     4     4     5   ar
     5     5     6   ar
     6     6     7   ar
     7     7     8    1
     8     8     9   ar
     9     9    10   ar
    10    10    11   ar
    11    11    12   ar
    12    12    13   ar
    13    13    14   ar
    14    14    15   ar
    15    15    16   ar
    16    16    17   ar
    17     7    18   ar
    18    18    19   ar
    19    19    20   ar
    20    20    21   ar
    21     1    22    1
    22    22    23    1
    23    23    24    1
    24    24    25    1
    25    25    26    1
    26    26    27    1
    27    27    28    1
    28    21     3   ar
    29    28    23    1
    30    20     6   ar
    31    17     8   ar
    32    17    12   ar
    33     4    29    1
    34     9    30    1
    35    10    31    1
    36    13    32    1
    37    14    33    1
    38    15    34    1
    39    16    35    1
    40    18    36    1
    41    21    37    1
    42    22    38    1
    43    22    39    1
    44    24    40    1
    45    24    41    1
    46    25    42    1
    47    25    43    1
    48    26    44    1
    49    27    45    1
    50    27    46    1
    51    28    47    1
    52    28    48    1
