
     RDKit          3D

 53 52  0  0  0  0  0  0  0  0999 V2000
    3.8426    2.3714   -1.0457 C   0  0  2  0  0  0  0  0  0  0  0  0
    4.1929    3.4639   -1.8025 O   0  0  0  0  0  0  0  0  0  0  0  0
    4.9940    1.3990   -1.0906 C   0  0  0  0  0  0  0  0  0  0  0  0
    5.2386    0.9983   -2.5112 C   0  0  0  0  0  0  0  0  0  0  0  0
    6.3825    0.0433   -2.6444 C   0  0  0  0  0  0  0  0  0  0  0  0
    6.2174   -1.2126   -1.9120 C   0  0  0  0  0  0  0  0  0  0  0  0
    7.1897   -2.1831   -1.8906 O   0  0  0  0  0  0  0  0  0  0  0  0
    5.2578   -1.6572   -1.2068 O   0  0  0  0  0  0  0  0  0  0  0  0
    2.6318    1.7042   -1.5583 C   0  0  0  0  0  0  0  0  0  0  0  0
    2.0105    0.7268   -0.9319 C   0  0  0  0  0  0  0  0  0  0  0  0
    0.8379    0.1834   -1.5692 C   0  0  0  0  0  0  0  0  0  0  0  0
    0.2790   -0.7905   -0.8764 C   0  0  0  0  0  0  0  0  0  0  0  0
    0.5648   -1.4524    0.3859 C   0  0  0  0  0  0  0  0  0  0  0  0
   -0.4017   -1.3796    1.4638 C   0  0  0  0  0  0  0  0  0  0  0  0
   -1.5280   -0.7755    1.5539 C   0  0  0  0  0  0  0  0  0  0  0  0
   -2.3047    0.0828    0.6369 C   0  0  0  0  0  0  0  0  0  0  0  0
   -2.4924    1.3697    1.3401 C   0  0  0  0  0  0  0  0  0  0  0  0
   -3.7392    1.6412    1.5208 C   0  0  0  0  0  0  0  0  0  0  0  0
   -4.9116    0.8990    1.1492 C   0  0  0  0  0  0  0  0  0  0  0  0
   -5.6649    0.5828    2.4277 C   0  0  0  0  0  0  0  0  0  0  0  0
   -5.8600   -0.6986    2.7144 C   0  0  0  0  0  0  0  0  0  0  0  0
   -5.5186   -1.9800    2.0829 C   0  0  0  0  0  0  0  0  0  0  0  0
   -6.7392   -2.8057    1.7402 C   0  0  0  0  0  0  0  0  0  0  0  0
    3.6763    2.7513   -0.0076 H   0  0  0  0  0  0  0  0  0  0  0  0
    3.9968    3.3774   -2.7524 H   0  0  0  0  0  0  0  0  0  0  0  0
    4.6714    0.4970   -0.5067 H   0  0  0  0  0  0  0  0  0  0  0  0
    5.9202    1.8392   -0.6645 H   0  0  0  0  0  0  0  0  0  0  0  0
    4.3211    0.6003   -2.9835 H   0  0  0  0  0  0  0  0  0  0  0  0
    5.5264    1.9121   -3.1058 H   0  0  0  0  0  0  0  0  0  0  0  0
    7.3260    0.5740   -2.3535 H   0  0  0  0  0  0  0  0  0  0  0  0
    6.4933   -0.1998   -3.7245 H   0  0  0  0  0  0  0  0  0  0  0  0
    7.0595   -3.1749   -1.9240 H   0  0  0  0  0  0  0  0  0  0  0  0
    2.2471    2.0648   -2.5203 H   0  0  0  0  0  0  0  0  0  0  0  0
    2.4983    0.4832   -0.0100 H   0  0  0  0  0  0  0  0  0  0  0  0
    0.4540    0.5287   -2.5046 H   0  0  0  0  0  0  0  0  0  0  0  0
   -0.5980   -1.3242   -1.2584 H   0  0  0  0  0  0  0  0  0  0  0  0
    1.5455   -1.0588    0.8009 H   0  0  0  0  0  0  0  0  0  0  0  0
    0.8524   -2.5482    0.1871 H   0  0  0  0  0  0  0  0  0  0  0  0
   -0.0485   -1.9683    2.3299 H   0  0  0  0  0  0  0  0  0  0  0  0
   -2.1013   -0.8741    2.4908 H   0  0  0  0  0  0  0  0  0  0  0  0
   -3.1437   -0.4776    0.3083 H   0  0  0  0  0  0  0  0  0  0  0  0
   -1.7172    0.3599   -0.2744 H   0  0  0  0  0  0  0  0  0  0  0  0
   -1.5924    1.9114    1.6089 H   0  0  0  0  0  0  0  0  0  0  0  0
   -3.9349    2.5996    2.0498 H   0  0  0  0  0  0  0  0  0  0  0  0
   -5.6206    1.6570    0.6644 H   0  0  0  0  0  0  0  0  0  0  0  0
   -4.9149    0.0874    0.4615 H   0  0  0  0  0  0  0  0  0  0  0  0
   -6.0407    1.3429    3.1002 H   0  0  0  0  0  0  0  0  0  0  0  0
   -6.4094   -0.9164    3.6480 H   0  0  0  0  0  0  0  0  0  0  0  0
   -4.9023   -2.5800    2.7957 H   0  0  0  0  0  0  0  0  0  0  0  0
   -4.8824   -1.8798    1.1765 H   0  0  0  0  0  0  0  0  0  0  0  0
   -7.4455   -2.2220    1.1002 H   0  0  0  0  0  0  0  0  0  0  0  0
   -6.4038   -3.7394    1.2479 H   0  0  0  0  0  0  0  0  0  0  0  0
   -7.3120   -3.0952    2.6443 H   0  0  0  0  0  0  0  0  0  0  0  0
  1  2  1  0
  1  3  1  0
  3  4  1  0
  4  5  1  0
  5  6  1  0
  6  7  1  0
  6  8  2  0
  1  9  1  0
  9 10  2  0
 10 11  1  0
 11 12  2  0
 12 13  1  0
 13 14  1  0
 14 15  2  0
 15 16  1  0
 16 17  1  0
 17 18  2  0
 18 19  1  0
 19 20  1  0
 20 21  2  0
 21 22  1  0
 22 23  1  0
  1 24  1  1
  2 25  1  0
  3 26  1  0
  3 27  1  0
  4 28  1  0
  4 29  1  0
  5 30  1  0
  5 31  1  0
  7 32  1  0
  9 33  1  0
 10 34  1  0
 11 35  1  0
 12 36  1  0
 13 37  1  0
 13 38  1  0
 14 39  1  0
 15 40  1  0
 16 41  1  0
 16 42  1  0
 17 43  1  0
 18 44  1  0
 19 45  1  0
 19 46  1  0
 20 47  1  0
 21 48  1  0
 22 49  1  0
 22 50  1  0
 23 51  1  0
 23 52  1  0
 23 53  1  0
M  END
$$$$
