@<TRIPOS>MOLECULE
*****
 53 52 0 0 0
SMALL
GASTEIGER

@<TRIPOS>ATOM
      1 C           3.8426    2.3714   -1.0457 C.3     1  UNL1        0.0737
      2 O           4.1929    3.4639   -1.8025 O.3     1  UNL1       -0.3878
      3 C           4.9940    1.3990   -1.0906 C.3     1  UNL1       -0.0227
      4 C           5.2386    0.9983   -2.5112 C.3     1  UNL1       -0.0404
      5 C           6.3825    0.0433   -2.6444 C.3     1  UNL1        0.0449
      6 C           6.2174   -1.2126   -1.9120 C.2     1  UNL1        0.3047
      7 O           7.1897   -2.1831   -1.8906 O.3     1  UNL1       -0.4806
      8 O           5.2578   -1.6572   -1.2068 O.2     1  UNL1       -0.2510
      9 C           2.6318    1.7042   -1.5583 C.2     1  UNL1       -0.0559
     10 C           2.0105    0.7268   -0.9319 C.2     1  UNL1       -0.0636
     11 C           0.8379    0.1834   -1.5692 C.2     1  UNL1       -0.0656
     12 C           0.2790   -0.7905   -0.8764 C.2     1  UNL1       -0.0803
     13 C           0.5648   -1.4524    0.3859 C.3     1  UNL1       -0.0162
     14 C          -0.4017   -1.3796    1.4638 C.2     1  UNL1       -0.0839
     15 C          -1.5280   -0.7755    1.5539 C.2     1  UNL1       -0.0839
     16 C          -2.3047    0.0828    0.6369 C.3     1  UNL1       -0.0165
     17 C          -2.4924    1.3697    1.3401 C.2     1  UNL1       -0.0839
     18 C          -3.7392    1.6412    1.5208 C.2     1  UNL1       -0.0839
     19 C          -4.9116    0.8990    1.1492 C.3     1  UNL1       -0.0165
     20 C          -5.6649    0.5828    2.4277 C.2     1  UNL1       -0.0842
     21 C          -5.8600   -0.6986    2.7144 C.2     1  UNL1       -0.0879
     22 C          -5.5186   -1.9800    2.0829 C.3     1  UNL1       -0.0376
     23 C          -6.7392   -2.8057    1.7402 C.3     1  UNL1       -0.0618
     24 H           3.6763    2.7513   -0.0076 H       1  UNL1        0.0638
     25 H           3.9968    3.3774   -2.7524 H       1  UNL1        0.2102
     26 H           4.6714    0.4970   -0.5067 H       1  UNL1        0.0293
     27 H           5.9202    1.8392   -0.6645 H       1  UNL1        0.0293
     28 H           4.3211    0.6003   -2.9835 H       1  UNL1        0.0271
     29 H           5.5264    1.9121   -3.1058 H       1  UNL1        0.0271
     30 H           7.3260    0.5740   -2.3535 H       1  UNL1        0.0377
     31 H           6.4933   -0.1998   -3.7245 H       1  UNL1        0.0377
     32 H           7.0595   -3.1749   -1.9240 H       1  UNL1        0.2951
     33 H           2.2471    2.0648   -2.5203 H       1  UNL1        0.0597
     34 H           2.4983    0.4832   -0.0100 H       1  UNL1        0.0615
     35 H           0.4540    0.5287   -2.5046 H       1  UNL1        0.0614
     36 H          -0.5980   -1.3242   -1.2584 H       1  UNL1        0.0575
     37 H           1.5455   -1.0588    0.8009 H       1  UNL1        0.0350
     38 H           0.8524   -2.5482    0.1871 H       1  UNL1        0.0350
     39 H          -0.0485   -1.9683    2.3299 H       1  UNL1        0.0572
     40 H          -2.1013   -0.8741    2.4908 H       1  UNL1        0.0572
     41 H          -3.1437   -0.4776    0.3083 H       1  UNL1        0.0350
     42 H          -1.7172    0.3599   -0.2744 H       1  UNL1        0.0350
     43 H          -1.5924    1.9114    1.6089 H       1  UNL1        0.0572
     44 H          -3.9349    2.5996    2.0498 H       1  UNL1        0.0572
     45 H          -5.6206    1.6570    0.6644 H       1  UNL1        0.0350
     46 H          -4.9149    0.0874    0.4615 H       1  UNL1        0.0350
     47 H          -6.0407    1.3429    3.1002 H       1  UNL1        0.0572
     48 H          -6.4094   -0.9164    3.6480 H       1  UNL1        0.0569
     49 H          -4.9023   -2.5800    2.7957 H       1  UNL1        0.0305
     50 H          -4.8824   -1.8798    1.1765 H       1  UNL1        0.0305
     51 H          -7.4455   -2.2220    1.1002 H       1  UNL1        0.0233
     52 H          -6.4038   -3.7394    1.2479 H       1  UNL1        0.0233
     53 H          -7.3120   -3.0952    2.6443 H       1  UNL1        0.0233
@<TRIPOS>BOND
     1     1     2    1
     2     1     3    1
     3     3     4    1
     4     4     5    1
     5     5     6    1
     6     6     7    1
     7     6     8    2
     8     1     9    1
     9     9    10    2
    10    10    11    1
    11    11    12    2
    12    12    13    1
    13    13    14    1
    14    14    15    2
    15    15    16    1
    16    16    17    1
    17    17    18    2
    18    18    19    1
    19    19    20    1
    20    20    21    2
    21    21    22    1
    22    22    23    1
    23     1    24    1
    24     2    25    1
    25     3    26    1
    26     3    27    1
    27     4    28    1
    28     4    29    1
    29     5    30    1
    30     5    31    1
    31     7    32    1
    32     9    33    1
    33    10    34    1
    34    11    35    1
    35    12    36    1
    36    13    37    1
    37    13    38    1
    38    14    39    1
    39    15    40    1
    40    16    41    1
    41    16    42    1
    42    17    43    1
    43    18    44    1
    44    19    45    1
    45    19    46    1
    46    20    47    1
    47    21    48    1
    48    22    49    1
    49    22    50    1
    50    23    51    1
    51    23    52    1
    52    23    53    1
