@<TRIPOS>MOLECULE
*****
 43 46 0 0 0
SMALL
GASTEIGER

@<TRIPOS>ATOM
      1 N           6.8870   -1.0423   -0.1357 N.pl3   1  UNL1       -0.2497
      2 C           6.3574    0.0035    0.6887 C.2     1  UNL1        0.2676
      3 N           7.3387    0.6809    1.1832 N.2     1  UNL1       -0.2884
      4 C           4.9183    0.1550    0.8488 C.ar    1  UNL1        0.0797
      5 C           4.0799   -0.2229   -0.1769 C.ar    1  UNL1       -0.0364
      6 C           2.7199   -0.0678    0.0028 C.ar    1  UNL1        0.0012
      7 C           2.1335    0.4337    1.1234 C.ar    1  UNL1        0.0483
      8 N           0.8097    0.4254    0.9162 N.ar    1  UNL1       -0.3540
      9 C           0.4771   -0.0583   -0.2920 C.ar    1  UNL1        0.0510
     10 C           1.6920   -0.3686   -0.8645 C.ar    1  UNL1       -0.0285
     11 C          -0.7975   -0.2562   -0.9473 C.ar    1  UNL1        0.0403
     12 C          -0.8895   -0.7833   -2.2255 C.ar    1  UNL1       -0.0491
     13 C          -2.0891   -0.9822   -2.8727 C.ar    1  UNL1       -0.0603
     14 C          -3.2790   -0.6556   -2.2575 C.ar    1  UNL1       -0.0505
     15 C          -3.2436   -0.1270   -0.9839 C.ar    1  UNL1        0.0242
     16 C          -2.0153    0.0516   -0.3812 C.ar    1  UNL1        0.1336
     17 O          -2.0669    0.5835    0.8880 O.3     1  UNL1       -0.5055
     18 C          -4.4995    0.2209   -0.3267 C.ar    1  UNL1       -0.0144
     19 C          -4.8924   -0.0450    0.9692 C.ar    1  UNL1       -0.0539
     20 C          -6.1359    0.3741    1.4029 C.ar    1  UNL1       -0.0612
     21 C          -7.0226    1.0569    0.5951 C.ar    1  UNL1       -0.0617
     22 C          -6.6512    1.3313   -0.6968 C.ar    1  UNL1       -0.0612
     23 C          -5.4091    0.9138   -1.1335 C.ar    1  UNL1       -0.0539
     24 C           2.9652    0.8141    2.1542 C.ar    1  UNL1       -0.0186
     25 C           4.3472    0.6666    1.9958 C.ar    1  UNL1        0.0576
     26 CL          5.3977    1.1554    3.3176 Cl      1  UNL1       -0.0826
     27 H           7.2763   -2.0060   -0.0804 H       1  UNL1        0.2883
     28 H           6.8320   -0.6210   -1.1097 H       1  UNL1        0.2883
     29 H           7.5591    1.5024    1.8118 H       1  UNL1        0.3009
     30 H           7.7136    1.4592    1.7738 H       1  UNL1        0.3009
     31 H           4.5038   -0.6288   -1.0910 H       1  UNL1        0.0633
     32 H           0.1256    0.7608    1.6243 H       1  UNL1        0.1659
     33 H           1.8204   -0.7956   -1.8713 H       1  UNL1        0.0645
     34 H          -0.0021   -1.0595   -2.7627 H       1  UNL1        0.0625
     35 H          -2.1074   -1.3972   -3.8712 H       1  UNL1        0.0618
     36 H          -4.2253   -0.8063   -2.7532 H       1  UNL1        0.0625
     37 H          -2.1014    1.5908    1.0762 H       1  UNL1        0.2922
     38 H          -4.1634   -0.5762    1.5458 H       1  UNL1        0.0624
     39 H          -6.3882    0.1363    2.4303 H       1  UNL1        0.0618
     40 H          -7.9938    1.3792    0.9483 H       1  UNL1        0.0618
     41 H          -7.3271    1.8658   -1.3535 H       1  UNL1        0.0618
     42 H          -5.1788    1.1637   -2.1668 H       1  UNL1        0.0624
     43 H           2.5247    1.2165    3.0576 H       1  UNL1        0.0653
@<TRIPOS>UNITY_ATOM_ATTR
3 1
charge 1
@<TRIPOS>BOND
     1     1     2    1
     2     2     3    2
     3     2     4    1
     4     4     5   ar
     5     5     6   ar
     6     6     7   ar
     7     7     8   ar
     8     8     9   ar
     9     9    10   ar
    10     9    11    1
    11    11    12   ar
    12    12    13   ar
    13    13    14   ar
    14    14    15   ar
    15    15    16   ar
    16    16    17    1
    17    15    18    1
    18    18    19   ar
    19    19    20   ar
    20    20    21   ar
    21    21    22   ar
    22    22    23   ar
    23     7    24   ar
    24    24    25   ar
    25    25    26    1
    26    25     4   ar
    27    10     6   ar
    28    16    11   ar
    29    23    18   ar
    30     1    27    1
    31     1    28    1
    32     3    29    1
    33     3    30    1
    34     5    31    1
    35     8    32    1
    36    10    33    1
    37    12    34    1
    38    13    35    1
    39    14    36    1
    40    17    37    1
    41    19    38    1
    42    20    39    1
    43    21    40    1
    44    22    41    1
    45    23    42    1
    46    24    43    1
