@<TRIPOS>MOLECULE
*****
 30 30 0 0 0
SMALL
GASTEIGER

@<TRIPOS>ATOM
      1 O          -2.3880   -2.8168    0.6718 O.3     1  UNL1       -0.4771
      2 C          -1.8366   -2.1844   -0.4516 C.2     1  UNL1        0.3384
      3 O          -2.2496   -2.6629   -1.5424 O.2     1  UNL1       -0.2451
      4 C          -0.8891   -1.0922   -0.2138 C.ar    1  UNL1        0.0883
      5 C          -1.3599    0.1999   -0.1060 C.ar    1  UNL1        0.0883
      6 C          -2.7709    0.4404   -0.2303 C.2     1  UNL1        0.3384
      7 O          -3.9264    0.5157    0.5341 O.3     1  UNL1       -0.4771
      8 O          -3.0906    0.6608   -1.4408 O.2     1  UNL1       -0.2451
      9 C          -0.5009    1.2564    0.1178 C.ar    1  UNL1        0.0883
     10 C          -0.9772    2.6307    0.2351 C.2     1  UNL1        0.3384
     11 O          -1.1608    3.6159   -0.7318 O.3     1  UNL1       -0.4771
     12 O          -1.2259    2.8186    1.4733 O.2     1  UNL1       -0.2451
     13 C           0.8430    0.9534    0.2271 C.ar    1  UNL1        0.0883
     14 C           1.7364    2.0826    0.4636 C.2     1  UNL1        0.3384
     15 O           2.4893    3.0219   -0.1944 O.3     1  UNL1       -0.4771
     16 O           1.7865    2.1637    1.7191 O.2     1  UNL1       -0.2451
     17 C           1.3111   -0.3409    0.1188 C.ar    1  UNL1        0.0883
     18 C           2.7476   -0.5957    0.2441 C.2     1  UNL1        0.3384
     19 O           3.4522   -0.5414   -0.9646 O.3     1  UNL1       -0.4771
     20 O           3.4778   -0.8587    1.2534 O.2     1  UNL1       -0.2451
     21 C           0.4519   -1.3962   -0.1049 C.ar    1  UNL1        0.0883
     22 C           0.9096   -2.7752   -0.2248 C.2     1  UNL1        0.3384
     23 O           2.2599   -3.0651   -0.1131 O.3     1  UNL1       -0.4771
     24 O           0.0584   -3.6661   -0.4273 O.2     1  UNL1       -0.2451
     25 H          -2.9353   -3.6755    0.6060 H       1  UNL1        0.2954
     26 H          -4.4697    1.3716    0.6087 H       1  UNL1        0.2954
     27 H          -1.0649    4.5827   -0.3990 H       1  UNL1        0.2954
     28 H           2.2639    4.0034   -0.0258 H       1  UNL1        0.2954
     29 H           4.4590   -0.6173   -1.0129 H       1  UNL1        0.2954
     30 H           2.5992   -4.0291   -0.0893 H       1  UNL1        0.2954
@<TRIPOS>BOND
     1     1     2    1
     2     2     3    2
     3     2     4    1
     4     4     5   ar
     5     5     6    1
     6     6     7    1
     7     6     8    2
     8     5     9   ar
     9     9    10    1
    10    10    11    1
    11    10    12    2
    12     9    13   ar
    13    13    14    1
    14    14    15    1
    15    14    16    2
    16    13    17   ar
    17    17    18    1
    18    18    19    1
    19    18    20    2
    20    17    21   ar
    21    21    22    1
    22    22    23    1
    23    22    24    2
    24    21     4   ar
    25     1    25    1
    26     7    26    1
    27    11    27    1
    28    15    28    1
    29    19    29    1
    30    23    30    1
