
     RDKit          3D

 30 30  0  0  0  0  0  0  0  0999 V2000
   -2.3880   -2.8168    0.6718 O   0  0  0  0  0  0  0  0  0  0  0  0
   -1.8366   -2.1844   -0.4516 C   0  0  0  0  0  0  0  0  0  0  0  0
   -2.2496   -2.6629   -1.5424 O   0  0  0  0  0  0  0  0  0  0  0  0
   -0.8891   -1.0922   -0.2138 C   0  0  0  0  0  0  0  0  0  0  0  0
   -1.3599    0.1999   -0.1060 C   0  0  0  0  0  0  0  0  0  0  0  0
   -2.7709    0.4404   -0.2303 C   0  0  0  0  0  0  0  0  0  0  0  0
   -3.9264    0.5157    0.5341 O   0  0  0  0  0  0  0  0  0  0  0  0
   -3.0906    0.6608   -1.4408 O   0  0  0  0  0  0  0  0  0  0  0  0
   -0.5009    1.2564    0.1178 C   0  0  0  0  0  0  0  0  0  0  0  0
   -0.9772    2.6307    0.2351 C   0  0  0  0  0  0  0  0  0  0  0  0
   -1.1608    3.6159   -0.7318 O   0  0  0  0  0  0  0  0  0  0  0  0
   -1.2259    2.8186    1.4733 O   0  0  0  0  0  0  0  0  0  0  0  0
    0.8430    0.9534    0.2271 C   0  0  0  0  0  0  0  0  0  0  0  0
    1.7364    2.0826    0.4636 C   0  0  0  0  0  0  0  0  0  0  0  0
    2.4893    3.0219   -0.1944 O   0  0  0  0  0  0  0  0  0  0  0  0
    1.7865    2.1637    1.7191 O   0  0  0  0  0  0  0  0  0  0  0  0
    1.3111   -0.3409    0.1188 C   0  0  0  0  0  0  0  0  0  0  0  0
    2.7476   -0.5957    0.2441 C   0  0  0  0  0  0  0  0  0  0  0  0
    3.4522   -0.5414   -0.9646 O   0  0  0  0  0  0  0  0  0  0  0  0
    3.4778   -0.8587    1.2534 O   0  0  0  0  0  0  0  0  0  0  0  0
    0.4519   -1.3962   -0.1049 C   0  0  0  0  0  0  0  0  0  0  0  0
    0.9096   -2.7752   -0.2248 C   0  0  0  0  0  0  0  0  0  0  0  0
    2.2599   -3.0651   -0.1131 O   0  0  0  0  0  0  0  0  0  0  0  0
    0.0584   -3.6661   -0.4273 O   0  0  0  0  0  0  0  0  0  0  0  0
   -2.9353   -3.6755    0.6060 H   0  0  0  0  0  0  0  0  0  0  0  0
   -4.4697    1.3716    0.6087 H   0  0  0  0  0  0  0  0  0  0  0  0
   -1.0649    4.5827   -0.3990 H   0  0  0  0  0  0  0  0  0  0  0  0
    2.2639    4.0034   -0.0258 H   0  0  0  0  0  0  0  0  0  0  0  0
    4.4590   -0.6173   -1.0129 H   0  0  0  0  0  0  0  0  0  0  0  0
    2.5992   -4.0291   -0.0893 H   0  0  0  0  0  0  0  0  0  0  0  0
  1  2  1  0
  2  3  2  0
  2  4  1  0
  4  5  2  0
  5  6  1  0
  6  7  1  0
  6  8  2  0
  5  9  1  0
  9 10  1  0
 10 11  1  0
 10 12  2  0
  9 13  2  0
 13 14  1  0
 14 15  1  0
 14 16  2  0
 13 17  1  0
 17 18  1  0
 18 19  1  0
 18 20  2  0
 17 21  2  0
 21 22  1  0
 22 23  1  0
 22 24  2  0
 21  4  1  0
  1 25  1  0
  7 26  1  0
 11 27  1  0
 15 28  1  0
 19 29  1  0
 23 30  1  0
M  END
$$$$
