@<TRIPOS>MOLECULE
*****
 39 42 0 0 0
SMALL
GASTEIGER

@<TRIPOS>ATOM
      1 O          -5.5855    2.8717    0.0899 O.3     1  UNL1       -0.5067
      2 C          -5.0871    1.5712   -0.0079 C.ar    1  UNL1        0.1174
      3 C          -5.9023    0.4832   -0.1596 C.ar    1  UNL1       -0.0201
      4 C          -5.3807   -0.7893   -0.2533 C.ar    1  UNL1       -0.0577
      5 C          -4.0088   -0.9493   -0.1910 C.ar    1  UNL1       -0.0538
      6 C          -3.1452    0.1116   -0.0392 C.ar    1  UNL1       -0.0144
      7 C          -1.7079   -0.1135    0.0202 C.ar    1  UNL1       -0.0172
      8 C          -0.8332    0.8402   -0.4569 C.ar    1  UNL1       -0.0534
      9 C           0.5329    0.6201   -0.3977 C.ar    1  UNL1       -0.0528
     10 C           1.0453   -0.5507    0.1365 C.ar    1  UNL1       -0.0066
     11 C           2.4058   -0.8039    0.2112 C.ar    1  UNL1        0.0327
     12 C           3.3023    0.1986   -0.2907 C.ar    1  UNL1        0.0043
     13 C           3.7812    1.1966    0.5249 C.ar    1  UNL1       -0.0510
     14 C           4.6418    2.1589    0.0424 C.ar    1  UNL1       -0.0430
     15 C           5.0166    2.0964   -1.2968 C.ar    1  UNL1        0.0276
     16 N           4.5460    1.1217   -2.0841 N.ar    1  UNL1       -0.2627
     17 C           3.7084    0.1889   -1.6059 C.ar    1  UNL1        0.0354
     18 C           2.8984   -1.9850    0.7509 C.ar    1  UNL1        0.1252
     19 O           4.2447   -2.2256    0.8203 O.3     1  UNL1       -0.5061
     20 C           1.9930   -2.9146    1.2178 C.ar    1  UNL1       -0.0190
     21 C           0.6268   -2.6990    1.1608 C.ar    1  UNL1       -0.0505
     22 C           0.1735   -1.5140    0.6181 C.ar    1  UNL1       -0.0165
     23 C          -1.1922   -1.2948    0.5593 C.ar    1  UNL1       -0.0463
     24 C          -3.7087    1.3675    0.0505 C.ar    1  UNL1       -0.0125
     25 H          -5.6309    3.2774    1.0023 H       1  UNL1        0.2921
     26 H          -6.9904    0.6098   -0.2091 H       1  UNL1        0.0654
     27 H          -6.0737   -1.6143   -0.3726 H       1  UNL1        0.0619
     28 H          -3.6140   -1.9544   -0.2661 H       1  UNL1        0.0624
     29 H          -1.1652    1.7677   -0.8825 H       1  UNL1        0.0624
     30 H           1.2532    1.3424   -0.7608 H       1  UNL1        0.0624
     31 H           3.5142    1.2856    1.5833 H       1  UNL1        0.0625
     32 H           5.0363    2.9588    0.6623 H       1  UNL1        0.0633
     33 H           5.6950    2.8692   -1.6437 H       1  UNL1        0.0829
     34 H           3.3865   -0.5553   -2.3258 H       1  UNL1        0.0836
     35 H           4.8734   -1.8657    1.5257 H       1  UNL1        0.2922
     36 H           2.3658   -3.8504    1.6459 H       1  UNL1        0.0654
     37 H          -0.0502   -3.4533    1.5375 H       1  UNL1        0.0625
     38 H          -1.9257   -2.0108    0.9201 H       1  UNL1        0.0630
     39 H          -3.0392    2.2061    0.1698 H       1  UNL1        0.0660
@<TRIPOS>BOND
     1     1     2    1
     2     2     3   ar
     3     3     4   ar
     4     4     5   ar
     5     5     6   ar
     6     6     7    1
     7     7     8   ar
     8     8     9   ar
     9     9    10   ar
    10    10    11   ar
    11    11    12    1
    12    12    13   ar
    13    13    14   ar
    14    14    15   ar
    15    15    16   ar
    16    16    17   ar
    17    11    18   ar
    18    18    19    1
    19    18    20   ar
    20    20    21   ar
    21    21    22   ar
    22    22    23   ar
    23     6    24   ar
    24    24     2   ar
    25    23     7   ar
    26    22    10   ar
    27    17    12   ar
    28     1    25    1
    29     3    26    1
    30     4    27    1
    31     5    28    1
    32     8    29    1
    33     9    30    1
    34    13    31    1
    35    14    32    1
    36    15    33    1
    37    17    34    1
    38    19    35    1
    39    20    36    1
    40    21    37    1
    41    23    38    1
    42    24    39    1
