
     RDKit          3D

 39 42  0  0  0  0  0  0  0  0999 V2000
   -5.5855    2.8717    0.0899 O   0  0  0  0  0  0  0  0  0  0  0  0
   -5.0871    1.5712   -0.0079 C   0  0  0  0  0  0  0  0  0  0  0  0
   -5.9023    0.4832   -0.1596 C   0  0  0  0  0  0  0  0  0  0  0  0
   -5.3807   -0.7893   -0.2533 C   0  0  0  0  0  0  0  0  0  0  0  0
   -4.0088   -0.9493   -0.1910 C   0  0  0  0  0  0  0  0  0  0  0  0
   -3.1452    0.1116   -0.0392 C   0  0  0  0  0  0  0  0  0  0  0  0
   -1.7079   -0.1135    0.0202 C   0  0  0  0  0  0  0  0  0  0  0  0
   -0.8332    0.8402   -0.4569 C   0  0  0  0  0  0  0  0  0  0  0  0
    0.5329    0.6201   -0.3977 C   0  0  0  0  0  0  0  0  0  0  0  0
    1.0453   -0.5507    0.1365 C   0  0  0  0  0  0  0  0  0  0  0  0
    2.4058   -0.8039    0.2112 C   0  0  0  0  0  0  0  0  0  0  0  0
    3.3023    0.1986   -0.2907 C   0  0  0  0  0  0  0  0  0  0  0  0
    3.7812    1.1966    0.5249 C   0  0  0  0  0  0  0  0  0  0  0  0
    4.6418    2.1589    0.0424 C   0  0  0  0  0  0  0  0  0  0  0  0
    5.0166    2.0964   -1.2968 C   0  0  0  0  0  0  0  0  0  0  0  0
    4.5460    1.1217   -2.0841 N   0  0  0  0  0  0  0  0  0  0  0  0
    3.7084    0.1889   -1.6059 C   0  0  0  0  0  0  0  0  0  0  0  0
    2.8984   -1.9850    0.7509 C   0  0  0  0  0  0  0  0  0  0  0  0
    4.2447   -2.2256    0.8203 O   0  0  0  0  0  0  0  0  0  0  0  0
    1.9930   -2.9146    1.2178 C   0  0  0  0  0  0  0  0  0  0  0  0
    0.6268   -2.6990    1.1608 C   0  0  0  0  0  0  0  0  0  0  0  0
    0.1735   -1.5140    0.6181 C   0  0  0  0  0  0  0  0  0  0  0  0
   -1.1922   -1.2948    0.5593 C   0  0  0  0  0  0  0  0  0  0  0  0
   -3.7087    1.3675    0.0505 C   0  0  0  0  0  0  0  0  0  0  0  0
   -5.6309    3.2774    1.0023 H   0  0  0  0  0  0  0  0  0  0  0  0
   -6.9904    0.6098   -0.2091 H   0  0  0  0  0  0  0  0  0  0  0  0
   -6.0737   -1.6143   -0.3726 H   0  0  0  0  0  0  0  0  0  0  0  0
   -3.6140   -1.9544   -0.2661 H   0  0  0  0  0  0  0  0  0  0  0  0
   -1.1652    1.7677   -0.8825 H   0  0  0  0  0  0  0  0  0  0  0  0
    1.2532    1.3424   -0.7608 H   0  0  0  0  0  0  0  0  0  0  0  0
    3.5142    1.2856    1.5833 H   0  0  0  0  0  0  0  0  0  0  0  0
    5.0363    2.9588    0.6623 H   0  0  0  0  0  0  0  0  0  0  0  0
    5.6950    2.8692   -1.6437 H   0  0  0  0  0  0  0  0  0  0  0  0
    3.3865   -0.5553   -2.3258 H   0  0  0  0  0  0  0  0  0  0  0  0
    4.8734   -1.8657    1.5257 H   0  0  0  0  0  0  0  0  0  0  0  0
    2.3658   -3.8504    1.6459 H   0  0  0  0  0  0  0  0  0  0  0  0
   -0.0502   -3.4533    1.5375 H   0  0  0  0  0  0  0  0  0  0  0  0
   -1.9257   -2.0108    0.9201 H   0  0  0  0  0  0  0  0  0  0  0  0
   -3.0392    2.2061    0.1698 H   0  0  0  0  0  0  0  0  0  0  0  0
  1  2  1  0
  2  3  2  0
  3  4  1  0
  4  5  2  0
  5  6  1  0
  6  7  1  0
  7  8  2  0
  8  9  1  0
  9 10  2  0
 10 11  1  0
 11 12  1  0
 12 13  2  0
 13 14  1  0
 14 15  2  0
 15 16  1  0
 16 17  2  0
 11 18  2  0
 18 19  1  0
 18 20  1  0
 20 21  2  0
 21 22  1  0
 22 23  2  0
  6 24  2  0
 24  2  1  0
 23  7  1  0
 22 10  1  0
 17 12  1  0
  1 25  1  0
  3 26  1  0
  4 27  1  0
  5 28  1  0
  8 29  1  0
  9 30  1  0
 13 31  1  0
 14 32  1  0
 15 33  1  0
 17 34  1  0
 19 35  1  0
 20 36  1  0
 21 37  1  0
 23 38  1  0
 24 39  1  0
M  END
$$$$
