@<TRIPOS>MOLECULE
*****
 58 61 0 0 0
SMALL
GASTEIGER

@<TRIPOS>ATOM
      1 C          -4.9945   -3.0090    0.5584 C.3     1  UNL1       -0.0313
      2 C          -3.8321   -2.2989   -0.0349 C.ar    1  UNL1        0.0199
      3 S          -3.3699   -0.6073    0.2552 S.2     1  UNL1       -0.0571
      4 C          -1.8728   -0.7291   -0.8958 C.ar    1  UNL1        0.1598
      5 N          -1.0456    0.4794   -1.0616 N.pl3   1  UNL1       -0.3083
      6 C           0.0581    0.7266   -0.1957 C.3     1  UNL1        0.1053
      7 C           0.8347    1.9130   -0.7035 C.3     1  UNL1        0.0035
      8 C           0.1018    3.1697   -0.7759 C.ar    1  UNL1       -0.0446
      9 C           0.0676    3.9792    0.3652 C.ar    1  UNL1       -0.0585
     10 C          -0.6010    5.1856    0.3479 C.ar    1  UNL1       -0.0615
     11 C          -1.2495    5.6284   -0.7812 C.ar    1  UNL1       -0.0617
     12 C          -1.2239    4.8425   -1.9129 C.ar    1  UNL1       -0.0615
     13 C          -0.5466    3.6174   -1.9004 C.ar    1  UNL1       -0.0585
     14 C           0.9649   -0.4257   -0.0409 C.ar    1  UNL1       -0.0118
     15 C           0.5474   -1.5460    0.6416 C.ar    1  UNL1       -0.0206
     16 C           1.3614   -2.6528    0.8079 C.ar    1  UNL1        0.1272
     17 F           0.9417   -3.7559    1.4833 F       1  UNL1       -0.2054
     18 C           2.6337   -2.6593    0.2841 C.ar    1  UNL1        0.0155
     19 C           3.0747   -1.5643   -0.3964 C.ar    1  UNL1        0.1304
     20 O           4.3677   -1.5193   -0.9518 O.3     1  UNL1       -0.4279
     21 C           5.2426   -2.6125   -0.8117 C.3     1  UNL1        0.4625
     22 F           5.4753   -2.8498    0.5299 F       1  UNL1       -0.1583
     23 F           4.7249   -3.7530   -1.4318 F       1  UNL1       -0.1583
     24 C           6.5376   -2.3007   -1.5132 C.3     1  UNL1        0.3402
     25 F           7.0890   -1.1797   -0.9406 F       1  UNL1       -0.1984
     26 F           6.2428   -2.0399   -2.8347 F       1  UNL1       -0.1984
     27 C           2.2410   -0.4679   -0.5498 C.ar    1  UNL1       -0.0139
     28 C          -0.4527    1.1681    1.1629 C.ar    1  UNL1        0.0694
     29 C          -1.6341    1.8471    1.3171 C.ar    1  UNL1       -0.0365
     30 C          -2.0824    2.2269    2.5762 C.ar    1  UNL1       -0.0401
     31 C          -1.3306    1.9167    3.6713 C.ar    1  UNL1        0.0590
     32 CL         -1.8088    2.3513    5.3038 Cl      1  UNL1       -0.0820
     33 C          -0.1476    1.2353    3.4974 C.ar    1  UNL1        0.0463
     34 N           0.2630    0.8786    2.2599 N.ar    1  UNL1       -0.2559
     35 N          -1.9677   -1.8172   -1.2319 N.ar    1  UNL1       -0.2207
     36 C          -2.8477   -2.7395   -0.9263 C.ar    1  UNL1        0.1556
     37 C          -2.8501   -4.1675   -1.4582 C.3     1  UNL1        0.4350
     38 F          -4.0203   -4.4213   -2.1441 F       1  UNL1       -0.1644
     39 F          -2.8103   -5.0266   -0.3865 F       1  UNL1       -0.1644
     40 F          -1.7827   -4.4212   -2.2542 F       1  UNL1       -0.1644
     41 H          -5.9339   -2.8100    0.0031 H       1  UNL1        0.0283
     42 H          -4.7250   -4.0830    0.5860 H       1  UNL1        0.0283
     43 H          -5.0565   -2.6785    1.6184 H       1  UNL1        0.0283
     44 H          -1.3091    1.1319   -1.8335 H       1  UNL1        0.1492
     45 H           1.1654    1.6141   -1.7471 H       1  UNL1        0.0341
     46 H           1.7871    1.9875   -0.1276 H       1  UNL1        0.0341
     47 H           0.5876    3.6396    1.2645 H       1  UNL1        0.0620
     48 H          -0.6358    5.8217    1.2235 H       1  UNL1        0.0618
     49 H          -1.7846    6.5900   -0.8003 H       1  UNL1        0.0618
     50 H          -1.7221    5.1682   -2.8030 H       1  UNL1        0.0618
     51 H          -0.5625    3.0712   -2.8320 H       1  UNL1        0.0620
     52 H          -0.4393   -1.5788    1.0709 H       1  UNL1        0.0650
     53 H           3.2974   -3.5272    0.4025 H       1  UNL1        0.0683
     54 H           7.2052   -3.1896   -1.3987 H       1  UNL1        0.1124
     55 H           2.6314    0.3780   -1.0950 H       1  UNL1        0.0658
     56 H          -2.2222    2.1015    0.4624 H       1  UNL1        0.0637
     57 H          -3.0158    2.7634    2.7025 H       1  UNL1        0.0633
     58 H           0.4337    0.9988    4.3757 H       1  UNL1        0.0844
@<TRIPOS>BOND
     1     1     2    1
     2     2     3   ar
     3     3     4   ar
     4     4     5    1
     5     6     5    1
     6     6     7    1
     7     7     8    1
     8     8     9   ar
     9     9    10   ar
    10    10    11   ar
    11    11    12   ar
    12    12    13   ar
    13     6    14    1
    14    14    15   ar
    15    15    16   ar
    16    16    17    1
    17    16    18   ar
    18    18    19   ar
    19    19    20    1
    20    20    21    1
    21    21    22    1
    22    21    23    1
    23    21    24    1
    24    24    25    1
    25    24    26    1
    26    19    27   ar
    27     6    28    1
    28    28    29   ar
    29    29    30   ar
    30    30    31   ar
    31    31    32    1
    32    31    33   ar
    33    33    34   ar
    34     4    35   ar
    35    35    36   ar
    36    36    37    1
    37    37    38    1
    38    37    39    1
    39    37    40    1
    40    36     2   ar
    41    13     8   ar
    42    27    14   ar
    43    34    28   ar
    44     1    41    1
    45     1    42    1
    46     1    43    1
    47     5    44    1
    48     7    45    1
    49     7    46    1
    50     9    47    1
    51    10    48    1
    52    11    49    1
    53    12    50    1
    54    13    51    1
    55    15    52    1
    56    18    53    1
    57    24    54    1
    58    27    55    1
    59    29    56    1
    60    30    57    1
    61    33    58    1
