@<TRIPOS>MOLECULE
*****
 55 58 0 0 0
SMALL
GASTEIGER

@<TRIPOS>ATOM
      1 O          -8.1288    2.1816   -0.5070 O.2     1  UNL1       -0.2507
      2 C          -8.8990    1.5526    0.2595 C.2     1  UNL1        0.3091
      3 O         -10.1281    2.1318    0.5446 O.3     1  UNL1       -0.4804
      4 C          -8.4899    0.2462    0.8246 C.3     1  UNL1        0.0699
      5 C          -7.1299   -0.0779    0.3205 C.ar    1  UNL1       -0.0352
      6 C          -5.9899    0.2977    0.9861 C.ar    1  UNL1       -0.0545
      7 C          -4.7045    0.0148    0.5495 C.ar    1  UNL1       -0.0182
      8 C          -4.5311   -0.6849   -0.6216 C.ar    1  UNL1        0.1391
      9 O          -3.2846   -0.9945   -1.1042 O.3     1  UNL1       -0.4873
     10 C          -2.0399   -0.7145   -0.5952 C.3     1  UNL1        0.1031
     11 C          -1.2532   -1.9955   -0.2914 C.3     1  UNL1        0.0002
     12 C          -0.1134   -1.5520    0.5975 C.3     1  UNL1        0.0195
     13 N           0.7444   -0.6570   -0.1282 N.am    1  UNL1       -0.2854
     14 C           2.1488   -0.7884    0.0101 C.2     1  UNL1        0.3024
     15 O           2.6490   -1.6976    0.7639 O.2     1  UNL1       -0.2526
     16 N           3.0913    0.0421   -0.6470 N.am    1  UNL1       -0.2958
     17 C           4.5075   -0.1687   -0.4445 C.3     1  UNL1        0.0320
     18 C           5.3088   -0.0222   -1.7395 C.3     1  UNL1       -0.0254
     19 C           5.4622    0.9615   -0.6378 C.3     1  UNL1        0.0043
     20 C           6.7279    0.8512    0.1254 C.ar    1  UNL1       -0.0425
     21 C           7.3323    1.9977    0.5764 C.ar    1  UNL1       -0.0582
     22 C           8.5191    1.8911    1.2924 C.ar    1  UNL1       -0.0615
     23 C           9.0658    0.6460    1.5363 C.ar    1  UNL1       -0.0617
     24 C           8.4457   -0.4902    1.0763 C.ar    1  UNL1       -0.0615
     25 C           7.2743   -0.3790    0.3701 C.ar    1  UNL1       -0.0582
     26 C           0.2075    0.3559   -0.9783 C.3     1  UNL1        0.0195
     27 C          -1.1564    0.0708   -1.5430 C.3     1  UNL1        0.0002
     28 C          -5.6832   -1.0797   -1.3199 C.ar    1  UNL1        0.0828
     29 CL         -5.4542   -1.9709   -2.8112 Cl      1  UNL1       -0.0797
     30 C          -6.9413   -0.7820   -0.8572 C.ar    1  UNL1       -0.0361
     31 H         -10.6535    2.6630   -0.1567 H       1  UNL1        0.2951
     32 H          -8.4224    0.3257    1.9300 H       1  UNL1        0.0426
     33 H          -9.1714   -0.5688    0.5107 H       1  UNL1        0.0426
     34 H          -6.0833    0.8498    1.9116 H       1  UNL1        0.0622
     35 H          -3.8357    0.3294    1.1044 H       1  UNL1        0.0655
     36 H          -2.0757   -0.1558    0.3513 H       1  UNL1        0.0734
     37 H          -1.8966   -2.7178    0.2752 H       1  UNL1        0.0316
     38 H          -0.9036   -2.4891   -1.1999 H       1  UNL1        0.0316
     39 H           0.4057   -2.4777    0.9235 H       1  UNL1        0.0466
     40 H          -0.5500   -1.0787    1.5018 H       1  UNL1        0.0466
     41 H           2.8061    0.8107   -1.2770 H       1  UNL1        0.1505
     42 H           4.7851   -0.9861    0.2303 H       1  UNL1        0.0505
     43 H           6.0545   -0.8252   -1.9022 H       1  UNL1        0.0290
     44 H           4.8118    0.3276   -2.6485 H       1  UNL1        0.0290
     45 H           5.0572    1.9938   -0.8099 H       1  UNL1        0.0367
     46 H           6.9127    2.9924    0.3919 H       1  UNL1        0.0620
     47 H           9.0062    2.7786    1.6533 H       1  UNL1        0.0618
     48 H           9.9799    0.5202    2.0847 H       1  UNL1        0.0618
     49 H           8.8379   -1.4881    1.2433 H       1  UNL1        0.0618
     50 H           6.7941   -1.2996    0.0109 H       1  UNL1        0.0620
     51 H           0.9041    0.6192   -1.8254 H       1  UNL1        0.0466
     52 H           0.1296    1.2852   -0.3357 H       1  UNL1        0.0466
     53 H          -1.0068   -0.5640   -2.4582 H       1  UNL1        0.0316
     54 H          -1.6116    1.0531   -1.8208 H       1  UNL1        0.0316
     55 H          -7.8315   -1.0837   -1.3908 H       1  UNL1        0.0636
@<TRIPOS>BOND
     1     1     2    2
     2     2     3    1
     3     2     4    1
     4     4     5    1
     5     5     6   ar
     6     6     7   ar
     7     7     8   ar
     8     8     9    1
     9     9    10    1
    10    10    11    1
    11    11    12    1
    12    12    13    1
    13    13    14   am
    14    14    15    2
    15    14    16   am
    16    16    17    1
    17    17    18    1
    18    18    19    1
    19    19    20    1
    20    20    21   ar
    21    21    22   ar
    22    22    23   ar
    23    23    24   ar
    24    24    25   ar
    25    13    26    1
    26    26    27    1
    27     8    28   ar
    28    28    29    1
    29    28    30   ar
    30    30     5   ar
    31    27    10    1
    32    19    17    1
    33    25    20   ar
    34     3    31    1
    35     4    32    1
    36     4    33    1
    37     6    34    1
    38     7    35    1
    39    10    36    1
    40    11    37    1
    41    11    38    1
    42    12    39    1
    43    12    40    1
    44    16    41    1
    45    17    42    1
    46    18    43    1
    47    18    44    1
    48    19    45    1
    49    21    46    1
    50    22    47    1
    51    23    48    1
    52    24    49    1
    53    25    50    1
    54    26    51    1
    55    26    52    1
    56    27    53    1
    57    27    54    1
    58    30    55    1
