@<TRIPOS>MOLECULE
*****
 36 37 0 0 0
SMALL
GASTEIGER

@<TRIPOS>ATOM
      1 O           5.3532   -1.7315   -0.4539 O.2     1  UNL1       -0.2687
      2 C           5.2709   -0.5525   -0.8576 C.2     1  UNL1        0.2593
      3 C           4.0641    0.2109   -0.6115 C.2     1  UNL1        0.0027
      4 C           3.0756   -0.3352    0.0272 C.2     1  UNL1       -0.0496
      5 C           1.7983    0.3160    0.3462 C.ar    1  UNL1       -0.0230
      6 C           1.5110    1.6149   -0.0120 C.ar    1  UNL1       -0.0545
      7 C           0.2724    2.1655    0.3275 C.ar    1  UNL1       -0.0593
      8 C          -0.6792    1.4440    1.0153 C.ar    1  UNL1       -0.0350
      9 C          -0.4025    0.1425    1.3791 C.ar    1  UNL1        0.1091
     10 S          -1.5768   -0.8270    2.2574 S.O2    1  UNL1        0.0724
     11 O          -2.3470    0.0964    3.1620 O.2     1  UNL1       -0.1500
     12 O          -0.8639   -1.8061    3.1447 O.2     1  UNL1       -0.1500
     13 N          -2.6045   -1.6890    1.2043 N.pl3   1  UNL1       -0.2163
     14 C          -3.4345   -0.9703    0.3075 C.ar    1  UNL1        0.0480
     15 C          -4.1676    0.1330    0.6924 C.ar    1  UNL1       -0.0393
     16 C          -4.9732    0.8221   -0.1990 C.ar    1  UNL1       -0.0600
     17 C          -5.0546    0.4060   -1.5092 C.ar    1  UNL1       -0.0616
     18 C          -4.3272   -0.6907   -1.8961 C.ar    1  UNL1       -0.0600
     19 C          -3.5231   -1.3772   -1.0031 C.ar    1  UNL1       -0.0393
     20 C           0.8221   -0.3795    1.0351 C.ar    1  UNL1       -0.0279
     21 N           6.3425    0.0549   -1.5557 N.am    1  UNL1       -0.1940
     22 O           7.5041   -0.5806   -1.8297 O.3     1  UNL1       -0.2949
     23 H           3.9572    1.2353   -0.9466 H       1  UNL1        0.0670
     24 H           3.2019   -1.3743    0.3593 H       1  UNL1        0.0625
     25 H           2.2470    2.2106   -0.5580 H       1  UNL1        0.0623
     26 H           0.1190    3.1907    0.0125 H       1  UNL1        0.0618
     27 H          -1.6243    1.8968    1.2621 H       1  UNL1        0.0637
     28 H          -2.6376   -2.7291    1.2034 H       1  UNL1        0.1737
     29 H          -4.1318    0.4899    1.7054 H       1  UNL1        0.0636
     30 H          -5.5453    1.6818    0.0980 H       1  UNL1        0.0618
     31 H          -5.6849    0.9334   -2.2363 H       1  UNL1        0.0618
     32 H          -4.3780   -1.0302   -2.9143 H       1  UNL1        0.0618
     33 H          -2.9660   -2.2388   -1.3538 H       1  UNL1        0.0636
     34 H           1.0422   -1.4137    1.3241 H       1  UNL1        0.0643
     35 H           6.2151    1.0402   -1.8672 H       1  UNL1        0.1825
     36 H           8.1252   -0.5826   -1.0591 H       1  UNL1        0.2414
@<TRIPOS>BOND
     1     1     2    2
     2     2     3    1
     3     3     4    2
     4     4     5    1
     5     5     6   ar
     6     6     7   ar
     7     7     8   ar
     8     8     9   ar
     9     9    10    1
    10    10    11    2
    11    10    12    2
    12    10    13    1
    13    13    14    1
    14    14    15   ar
    15    15    16   ar
    16    16    17   ar
    17    17    18   ar
    18    18    19   ar
    19     9    20   ar
    20     2    21   am
    21    21    22    1
    22    20     5   ar
    23    19    14   ar
    24     3    23    1
    25     4    24    1
    26     6    25    1
    27     7    26    1
    28     8    27    1
    29    13    28    1
    30    15    29    1
    31    16    30    1
    32    17    31    1
    33    18    32    1
    34    19    33    1
    35    20    34    1
    36    21    35    1
    37    22    36    1
