@<TRIPOS>MOLECULE
*****
 56 55 0 0 0
SMALL
GASTEIGER

@<TRIPOS>ATOM
      1 C           6.8025   -1.1545    1.0028 C.3     1  UNL1       -0.0418
      2 N           5.6501   -0.2362    0.9060 N.4     1  UNL1        0.2369
      3 C           6.2481    1.0390    0.5436 C.3     1  UNL1       -0.0418
      4 C           5.0443   -0.0872    2.1825 C.3     1  UNL1       -0.0418
      5 C           4.8132   -0.6645   -0.1519 C.3     1  UNL1       -0.0309
      6 C           3.3476   -0.5021   -0.0130 C.3     1  UNL1       -0.0125
      7 C           2.8752    0.9207    0.1676 C.3     1  UNL1       -0.0483
      8 C           1.3806    0.9635    0.3032 C.3     1  UNL1       -0.0529
      9 C           0.7022    0.4010   -0.9173 C.3     1  UNL1       -0.0531
     10 C          -0.7987    0.5040   -0.6677 C.3     1  UNL1       -0.0531
     11 C          -1.5734   -0.0353   -1.8360 C.3     1  UNL1       -0.0529
     12 C          -3.0689    0.0366   -1.6846 C.3     1  UNL1       -0.0483
     13 C          -3.4963   -0.7541   -0.4985 C.3     1  UNL1       -0.0125
     14 C          -4.9885   -0.7619   -0.2514 C.3     1  UNL1       -0.0309
     15 N          -5.5534    0.5474   -0.0198 N.4     1  UNL1        0.2369
     16 C          -6.8419    0.3047    0.6559 C.3     1  UNL1       -0.0418
     17 C          -4.7850    1.3404    0.8918 C.3     1  UNL1       -0.0418
     18 C          -5.8737    1.2501   -1.2476 C.3     1  UNL1       -0.0418
     19 H           7.2851   -1.2362    0.0053 H       1  UNL1        0.0778
     20 H           7.5362   -0.6532    1.6685 H       1  UNL1        0.0778
     21 H           6.5255   -2.1334    1.4182 H       1  UNL1        0.0778
     22 H           7.3311    1.1002    0.8019 H       1  UNL1        0.0778
     23 H           5.7242    1.8423    1.0989 H       1  UNL1        0.0778
     24 H           6.1103    1.2155   -0.5536 H       1  UNL1        0.0778
     25 H           4.0086   -0.4504    2.2839 H       1  UNL1        0.0778
     26 H           5.1021    0.9733    2.5690 H       1  UNL1        0.0778
     27 H           5.6271   -0.6636    2.9313 H       1  UNL1        0.0778
     28 H           5.0107   -1.7363   -0.3630 H       1  UNL1        0.0815
     29 H           5.0936   -0.1521   -1.1200 H       1  UNL1        0.0815
     30 H           2.9231   -0.7950   -1.0224 H       1  UNL1        0.0317
     31 H           2.8481   -1.2055    0.6834 H       1  UNL1        0.0317
     32 H           3.1405    1.4694   -0.7848 H       1  UNL1        0.0267
     33 H           3.3648    1.4629    0.9939 H       1  UNL1        0.0267
     34 H           1.1342    0.3922    1.2208 H       1  UNL1        0.0265
     35 H           1.0512    2.0313    0.4560 H       1  UNL1        0.0265
     36 H           0.9081   -0.6804   -1.0135 H       1  UNL1        0.0265
     37 H           0.9851    0.9378   -1.8412 H       1  UNL1        0.0265
     38 H          -0.9925   -0.1538    0.2277 H       1  UNL1        0.0265
     39 H          -1.1332    1.5082   -0.3993 H       1  UNL1        0.0265
     40 H          -1.2667    0.5755   -2.7298 H       1  UNL1        0.0265
     41 H          -1.2477   -1.0785   -2.1011 H       1  UNL1        0.0265
     42 H          -3.3374    1.1126   -1.6643 H       1  UNL1        0.0267
     43 H          -3.5436   -0.3923   -2.5909 H       1  UNL1        0.0267
     44 H          -2.9451   -0.5072    0.4412 H       1  UNL1        0.0317
     45 H          -3.2298   -1.8123   -0.7035 H       1  UNL1        0.0317
     46 H          -5.1592   -1.4187    0.6265 H       1  UNL1        0.0815
     47 H          -5.4379   -1.2629   -1.1265 H       1  UNL1        0.0815
     48 H          -6.7150   -0.5089    1.3917 H       1  UNL1        0.0778
     49 H          -7.1007    1.2769    1.1250 H       1  UNL1        0.0778
     50 H          -7.5672    0.0922   -0.1399 H       1  UNL1        0.0778
     51 H          -4.0250    1.9870    0.4521 H       1  UNL1        0.0778
     52 H          -4.3806    0.6831    1.6887 H       1  UNL1        0.0778
     53 H          -5.5054    2.0448    1.4035 H       1  UNL1        0.0778
     54 H          -5.6429    0.6825   -2.1621 H       1  UNL1        0.0778
     55 H          -5.3896    2.2585   -1.2018 H       1  UNL1        0.0778
     56 H          -6.9741    1.4847   -1.3354 H       1  UNL1        0.0778
@<TRIPOS>UNITY_ATOM_ATTR
2 1
charge 1
15 1
charge 1
@<TRIPOS>BOND
     1     1     2    1
     2     2     3    1
     3     2     4    1
     4     2     5    1
     5     5     6    1
     6     6     7    1
     7     7     8    1
     8     8     9    1
     9     9    10    1
    10    10    11    1
    11    11    12    1
    12    12    13    1
    13    13    14    1
    14    14    15    1
    15    15    16    1
    16    15    17    1
    17    15    18    1
    18     1    19    1
    19     1    20    1
    20     1    21    1
    21     3    22    1
    22     3    23    1
    23     3    24    1
    24     4    25    1
    25     4    26    1
    26     4    27    1
    27     5    28    1
    28     5    29    1
    29     6    30    1
    30     6    31    1
    31     7    32    1
    32     7    33    1
    33     8    34    1
    34     8    35    1
    35     9    36    1
    36     9    37    1
    37    10    38    1
    38    10    39    1
    39    11    40    1
    40    11    41    1
    41    12    42    1
    42    12    43    1
    43    13    44    1
    44    13    45    1
    45    14    46    1
    46    14    47    1
    47    16    48    1
    48    16    49    1
    49    16    50    1
    50    17    51    1
    51    17    52    1
    52    17    53    1
    53    18    54    1
    54    18    55    1
    55    18    56    1
