@<TRIPOS>MOLECULE
*****
 58 62 0 0 0
SMALL
GASTEIGER

@<TRIPOS>ATOM
      1 C           4.1138   -3.0471   -0.0048 C.3     1  UNL1       -0.0209
      2 C           4.1212   -1.5564   -0.0334 C.ar    1  UNL1        0.0569
      3 C           5.3470   -0.9152   -0.1188 C.ar    1  UNL1        0.0329
      4 N           5.3750    0.4360   -0.1491 N.ar    1  UNL1       -0.2948
      5 C           6.4162    1.2683   -0.2192 C.ar    1  UNL1        0.0762
      6 C           7.8664    1.0419   -0.2730 C.ar    1  UNL1        0.0375
      7 C           8.6243   -0.0875   -0.3017 C.ar    1  UNL1        0.0583
      8 N           9.9422    0.2475   -0.3393 N.ar    1  UNL1       -0.1817
      9 N          10.0049    1.5504   -0.3327 N.ar    1  UNL1       -0.2841
     10 C           8.7916    2.1002   -0.2927 C.ar    1  UNL1        0.0315
     11 C           5.8366    2.5549   -0.2073 C.ar    1  UNL1        0.0545
     12 N           4.5140    2.4099   -0.1333 N.ar    1  UNL1       -0.2323
     13 C           4.1966    1.1091   -0.0942 C.ar    1  UNL1        0.1788
     14 C           2.9567    0.4821   -0.0066 C.ar    1  UNL1        0.1666
     15 N           1.7662    1.2479    0.0179 N.pl3   1  UNL1       -0.2943
     16 C           0.5008    0.7724    0.3879 C.ar    1  UNL1        0.0682
     17 C           0.2271   -0.4904    0.8634 C.ar    1  UNL1       -0.0370
     18 C          -1.0778   -0.8766    1.2124 C.ar    1  UNL1       -0.0477
     19 C          -2.1456   -0.0207    1.1003 C.ar    1  UNL1        0.0397
     20 C          -3.5002   -0.4139    1.4844 C.2     1  UNL1        0.2468
     21 O          -3.7017   -0.4578    2.7382 O.2     1  UNL1       -0.2700
     22 N          -4.5287   -0.7255    0.5897 N.am    1  UNL1       -0.2946
     23 C          -4.4257   -0.7240   -0.8452 C.3     1  UNL1        0.0276
     24 C          -5.6412   -1.4129   -1.4280 C.3     1  UNL1        0.0123
     25 N          -6.8913   -0.8313   -1.0081 N.3     1  UNL1       -0.3081
     26 C          -6.8419   -0.2852    0.3206 C.3     1  UNL1        0.0293
     27 C          -6.4893    1.1784    0.3249 C.3     1  UNL1       -0.0456
     28 C          -8.1955   -0.4649    1.0111 C.3     1  UNL1       -0.0456
     29 C          -5.8433   -1.0901    1.1343 C.3     1  UNL1        0.0328
     30 C          -1.8724    1.2427    0.6236 C.ar    1  UNL1       -0.0125
     31 C          -0.6043    1.6387    0.2767 C.ar    1  UNL1        0.1452
     32 F          -0.3856    2.9077   -0.1987 F       1  UNL1       -0.2035
     33 N           2.9839   -0.8498    0.0196 N.ar    1  UNL1       -0.2320
     34 H           4.6987   -3.4685    0.8205 H       1  UNL1        0.0293
     35 H           3.0414   -3.3543    0.1122 H       1  UNL1        0.0293
     36 H           4.4397   -3.4334   -0.9993 H       1  UNL1        0.0293
     37 H           6.2305   -1.5193   -0.1518 H       1  UNL1        0.0831
     38 H           8.2708   -1.1056   -0.3021 H       1  UNL1        0.0854
     39 H          10.9235    2.0636   -0.3540 H       1  UNL1        0.1882
     40 H           8.5653    3.1783   -0.2815 H       1  UNL1        0.0830
     41 H           6.3693    3.4876   -0.2463 H       1  UNL1        0.0852
     42 H           1.8391    2.2739   -0.2749 H       1  UNL1        0.1537
     43 H           1.0363   -1.1971    0.9777 H       1  UNL1        0.0637
     44 H          -1.2412   -1.8634    1.5833 H       1  UNL1        0.0626
     45 H          -4.1973    0.2507   -1.2930 H       1  UNL1        0.0477
     46 H          -3.5524   -1.4037   -1.1094 H       1  UNL1        0.0477
     47 H          -5.5824   -1.3136   -2.5325 H       1  UNL1        0.0440
     48 H          -5.5591   -2.4825   -1.1810 H       1  UNL1        0.0440
     49 H          -7.2942   -0.1848   -1.7177 H       1  UNL1        0.1225
     50 H          -7.3227    1.8186    0.6672 H       1  UNL1        0.0248
     51 H          -6.3310    1.4873   -0.7573 H       1  UNL1        0.0248
     52 H          -5.5535    1.3681    0.9194 H       1  UNL1        0.0248
     53 H          -8.1784   -1.2465    1.7861 H       1  UNL1        0.0248
     54 H          -8.9241   -0.6305    0.2131 H       1  UNL1        0.0248
     55 H          -8.5147    0.4682    1.5415 H       1  UNL1        0.0248
     56 H          -5.9882   -2.1681    0.9654 H       1  UNL1        0.0483
     57 H          -5.9203   -0.9006    2.2056 H       1  UNL1        0.0483
     58 H          -2.6951    1.9371    0.5157 H       1  UNL1        0.0654
@<TRIPOS>BOND
     1     1     2    1
     2     2     3   ar
     3     3     4   ar
     4     4     5   ar
     5     5     6    1
     6     6     7   ar
     7     7     8   ar
     8     8     9   ar
     9     9    10   ar
    10     5    11   ar
    11    11    12   ar
    12    12    13   ar
    13    13    14   ar
    14    14    15    1
    15    15    16    1
    16    16    17   ar
    17    17    18   ar
    18    18    19   ar
    19    19    20    1
    20    20    21    2
    21    20    22   am
    22    22    23    1
    23    23    24    1
    24    24    25    1
    25    25    26    1
    26    26    27    1
    27    26    28    1
    28    26    29    1
    29    19    30   ar
    30    30    31   ar
    31    31    32    1
    32    14    33   ar
    33    33     2   ar
    34    13     4   ar
    35    31    16   ar
    36    10     6   ar
    37    29    22    1
    38     1    34    1
    39     1    35    1
    40     1    36    1
    41     3    37    1
    42     7    38    1
    43     9    39    1
    44    10    40    1
    45    11    41    1
    46    15    42    1
    47    17    43    1
    48    18    44    1
    49    23    45    1
    50    23    46    1
    51    24    47    1
    52    24    48    1
    53    25    49    1
    54    27    50    1
    55    27    51    1
    56    27    52    1
    57    28    53    1
    58    28    54    1
    59    28    55    1
    60    29    56    1
    61    29    57    1
    62    30    58    1
