
     RDKit          3D

 68 72  0  0  0  0  0  0  0  0999 V2000
   10.6957    0.1300    1.0938 C   0  0  0  0  0  0  0  0  0  0  0  0
    9.8511   -0.8223    0.4881 O   0  0  0  0  0  0  0  0  0  0  0  0
    8.4726   -0.6462    0.3899 C   0  0  0  0  0  0  0  0  0  0  0  0
    7.7098   -1.6216   -0.2167 C   0  0  0  0  0  0  0  0  0  0  0  0
    6.3261   -1.4792   -0.3329 C   0  0  0  0  0  0  0  0  0  0  0  0
    5.6978   -0.3576    0.1584 C   0  0  0  0  0  0  0  0  0  0  0  0
    4.2262   -0.2190    0.0266 C   0  0  1  0  0  0  0  0  0  0  0  0
    3.7669   -0.2368   -1.3922 C   0  0  0  0  0  0  0  0  0  0  0  0
    2.2601   -0.2478   -1.4307 C   0  0  0  0  0  0  0  0  0  0  0  0
    1.6166   -0.0608   -0.0766 C   0  0  1  0  0  0  0  0  0  0  0  0
    0.1839   -0.0333   -0.3117 N   0  0  0  0  0  0  0  0  0  0  0  0
   -0.6545    0.1202    0.8283 C   0  0  0  0  0  0  0  0  0  0  0  0
   -0.8741    1.5689    0.4635 C   0  0  0  0  0  0  0  0  0  0  0  0
   -2.2705    1.9198    0.2243 N   0  0  0  0  0  0  0  0  0  0  0  0
   -2.7849    3.0756    0.8170 C   0  0  0  0  0  0  0  0  0  0  0  0
   -2.0428    3.8004    1.5435 O   0  0  0  0  0  0  0  0  0  0  0  0
   -4.1780    3.4980    0.6295 C   0  0  0  0  0  0  0  0  0  0  0  0
   -4.8848    2.5504   -0.1897 N   0  0  0  0  0  0  0  0  0  0  0  0
   -5.1485    1.2462    0.2915 C   0  0  0  0  0  0  0  0  0  0  0  0
   -4.8293    0.7031    1.4853 N   0  0  0  0  0  0  0  0  0  0  0  0
   -5.2463   -0.5472    1.5796 N   0  0  0  0  0  0  0  0  0  0  0  0
   -5.0432   -1.3796    2.7510 C   0  0  0  0  0  0  0  0  0  0  0  0
   -5.8592   -0.8447    0.4184 C   0  0  0  0  0  0  0  0  0  0  0  0
   -6.4580   -2.0165    0.0269 C   0  0  0  0  0  0  0  0  0  0  0  0
   -7.0338   -2.0966   -1.2328 C   0  0  0  0  0  0  0  0  0  0  0  0
   -7.0103   -1.0140   -2.0924 C   0  0  0  0  0  0  0  0  0  0  0  0
   -7.6337   -1.1111   -3.4484 C   0  0  0  0  0  0  0  0  0  0  0  0
   -6.6856   -1.2391   -4.4363 F   0  0  0  0  0  0  0  0  0  0  0  0
   -8.3052    0.0774   -3.6673 F   0  0  0  0  0  0  0  0  0  0  0  0
   -8.5220   -2.1577   -3.4361 F   0  0  0  0  0  0  0  0  0  0  0  0
   -6.3963    0.1361   -1.6475 C   0  0  0  0  0  0  0  0  0  0  0  0
   -5.8137    0.2647   -0.4128 C   0  0  0  0  0  0  0  0  0  0  0  0
   -0.2003    1.2620   -0.8300 C   0  0  0  0  0  0  0  0  0  0  0  0
    2.0351   -1.1560    0.8399 C   0  0  0  0  0  0  0  0  0  0  0  0
    3.5351   -1.3142    0.7848 C   0  0  0  0  0  0  0  0  0  0  0  0
    6.4855    0.5989    0.7588 C   0  0  0  0  0  0  0  0  0  0  0  0
    7.8372    0.4402    0.8622 N   0  0  0  0  0  0  0  0  0  0  0  0
   10.4657    1.1645    0.7559 H   0  0  0  0  0  0  0  0  0  0  0  0
   11.7451   -0.1072    0.8189 H   0  0  0  0  0  0  0  0  0  0  0  0
   10.6264    0.0986    2.1997 H   0  0  0  0  0  0  0  0  0  0  0  0
    8.2170   -2.5017   -0.6002 H   0  0  0  0  0  0  0  0  0  0  0  0
    5.7629   -2.2582   -0.8110 H   0  0  0  0  0  0  0  0  0  0  0  0
    3.9496    0.7548    0.5248 H   0  0  0  0  0  0  0  0  0  0  0  0
    4.1763   -1.1572   -1.8615 H   0  0  0  0  0  0  0  0  0  0  0  0
    4.1082    0.6428   -1.9776 H   0  0  0  0  0  0  0  0  0  0  0  0
    1.9320   -1.2226   -1.8650 H   0  0  0  0  0  0  0  0  0  0  0  0
    1.8634    0.6040   -2.0599 H   0  0  0  0  0  0  0  0  0  0  0  0
    1.9404    0.9145    0.3555 H   0  0  0  0  0  0  0  0  0  0  0  0
   -1.6352   -0.4195    0.7902 H   0  0  0  0  0  0  0  0  0  0  0  0
   -0.1767   -0.0199    1.8192 H   0  0  0  0  0  0  0  0  0  0  0  0
   -0.3370    2.2766    1.1127 H   0  0  0  0  0  0  0  0  0  0  0  0
   -2.8526    1.3225   -0.3792 H   0  0  0  0  0  0  0  0  0  0  0  0
   -4.1421    4.5082    0.1337 H   0  0  0  0  0  0  0  0  0  0  0  0
   -4.7088    3.6422    1.6065 H   0  0  0  0  0  0  0  0  0  0  0  0
   -5.2001    2.8250   -1.1325 H   0  0  0  0  0  0  0  0  0  0  0  0
   -5.6965   -2.2702    2.6517 H   0  0  0  0  0  0  0  0  0  0  0  0
   -5.3357   -0.8251    3.6730 H   0  0  0  0  0  0  0  0  0  0  0  0
   -3.9695   -1.6426    2.8395 H   0  0  0  0  0  0  0  0  0  0  0  0
   -6.4894   -2.8766    0.6797 H   0  0  0  0  0  0  0  0  0  0  0  0
   -7.5121   -3.0101   -1.5644 H   0  0  0  0  0  0  0  0  0  0  0  0
   -6.3718    0.9854   -2.3071 H   0  0  0  0  0  0  0  0  0  0  0  0
   -0.8833    1.1211   -1.7037 H   0  0  0  0  0  0  0  0  0  0  0  0
    0.6568    1.9261   -1.0849 H   0  0  0  0  0  0  0  0  0  0  0  0
    1.7653   -0.9074    1.9066 H   0  0  0  0  0  0  0  0  0  0  0  0
    1.5260   -2.1219    0.6423 H   0  0  0  0  0  0  0  0  0  0  0  0
    3.9557   -1.4280    1.8242 H   0  0  0  0  0  0  0  0  0  0  0  0
    3.8084   -2.2833    0.2774 H   0  0  0  0  0  0  0  0  0  0  0  0
    5.9869    1.4741    1.1410 H   0  0  0  0  0  0  0  0  0  0  0  0
  1  2  1  0
  2  3  1  0
  3  4  2  0
  4  5  1  0
  5  6  2  0
  6  7  1  0
  7  8  1  0
  8  9  1  0
  9 10  1  0
 10 11  1  0
 11 12  1  0
 12 13  1  0
 13 14  1  0
 14 15  1  0
 15 16  2  0
 15 17  1  0
 17 18  1  0
 18 19  1  0
 19 20  2  0
 20 21  1  0
 21 22  1  0
 21 23  1  0
 23 24  2  0
 24 25  1  0
 25 26  2  0
 26 27  1  0
 27 28  1  0
 27 29  1  0
 27 30  1  0
 26 31  1  0
 31 32  2  0
 13 33  1  0
 10 34  1  0
 34 35  1  0
  6 36  1  0
 36 37  2  0
 37  3  1  0
 35  7  1  0
 33 11  1  0
 32 19  1  0
 32 23  1  0
  1 38  1  0
  1 39  1  0
  1 40  1  0
  4 41  1  0
  5 42  1  0
  7 43  1  1
  8 44  1  0
  8 45  1  0
  9 46  1  0
  9 47  1  0
 10 48  1  1
 12 49  1  0
 12 50  1  0
 13 51  1  0
 14 52  1  0
 17 53  1  0
 17 54  1  0
 18 55  1  0
 22 56  1  0
 22 57  1  0
 22 58  1  0
 24 59  1  0
 25 60  1  0
 31 61  1  0
 33 62  1  0
 33 63  1  0
 34 64  1  0
 34 65  1  0
 35 66  1  0
 35 67  1  0
 36 68  1  0
M  END
$$$$
