@<TRIPOS>MOLECULE
*****
 68 72 0 0 0
SMALL
GASTEIGER

@<TRIPOS>ATOM
      1 C          10.6957    0.1300    1.0938 C.3     1  UNL1        0.0804
      2 O           9.8511   -0.8223    0.4881 O.3     1  UNL1       -0.4796
      3 C           8.4726   -0.6462    0.3899 C.ar    1  UNL1        0.2144
      4 C           7.7098   -1.6216   -0.2167 C.ar    1  UNL1        0.0002
      5 C           6.3261   -1.4792   -0.3329 C.ar    1  UNL1       -0.0518
      6 C           5.6978   -0.3576    0.1584 C.ar    1  UNL1       -0.0259
      7 C           4.2262   -0.2190    0.0266 C.3     1  UNL1       -0.0143
      8 C           3.7669   -0.2368   -1.3922 C.3     1  UNL1       -0.0447
      9 C           2.2601   -0.2478   -1.4307 C.3     1  UNL1       -0.0368
     10 C           1.6166   -0.0608   -0.0766 C.3     1  UNL1        0.0106
     11 N           0.1839   -0.0333   -0.3117 N.3     1  UNL1       -0.2958
     12 C          -0.6545    0.1202    0.8283 C.3     1  UNL1        0.0189
     13 C          -0.8741    1.5689    0.4635 C.3     1  UNL1        0.0486
     14 N          -2.2705    1.9198    0.2243 N.am    1  UNL1       -0.3087
     15 C          -2.7849    3.0756    0.8170 C.2     1  UNL1        0.2305
     16 O          -2.0428    3.8004    1.5435 O.2     1  UNL1       -0.2741
     17 C          -4.1780    3.4980    0.6295 C.3     1  UNL1        0.0870
     18 N          -4.8848    2.5504   -0.1897 N.pl3   1  UNL1       -0.3186
     19 C          -5.1485    1.2462    0.2915 C.ar    1  UNL1        0.1488
     20 N          -4.8293    0.7031    1.4853 N.ar    1  UNL1       -0.1554
     21 N          -5.2463   -0.5472    1.5796 N.ar    1  UNL1       -0.2650
     22 C          -5.0432   -1.3796    2.7510 C.3     1  UNL1        0.0309
     23 C          -5.8592   -0.8447    0.4184 C.ar    1  UNL1        0.0705
     24 C          -6.4580   -2.0165    0.0269 C.ar    1  UNL1       -0.0355
     25 C          -7.0338   -2.0966   -1.2328 C.ar    1  UNL1       -0.0481
     26 C          -7.0103   -1.0140   -2.0924 C.ar    1  UNL1        0.0556
     27 C          -7.6337   -1.1111   -3.4484 C.3     1  UNL1        0.4174
     28 F          -6.6856   -1.2391   -4.4363 F       1  UNL1       -0.1659
     29 F          -8.3052    0.0774   -3.6673 F       1  UNL1       -0.1659
     30 F          -8.5220   -2.1577   -3.4361 F       1  UNL1       -0.1659
     31 C          -6.3963    0.1361   -1.6475 C.ar    1  UNL1       -0.0376
     32 C          -5.8137    0.2647   -0.4128 C.ar    1  UNL1        0.0419
     33 C          -0.2003    1.2620   -0.8300 C.3     1  UNL1        0.0189
     34 C           2.0351   -1.1560    0.8399 C.3     1  UNL1       -0.0368
     35 C           3.5351   -1.3142    0.7848 C.3     1  UNL1       -0.0447
     36 C           6.4855    0.5989    0.7588 C.ar    1  UNL1        0.0348
     37 N           7.8372    0.4402    0.8622 N.ar    1  UNL1       -0.2211
     38 H          10.4657    1.1645    0.7559 H       1  UNL1        0.0660
     39 H          11.7451   -0.1072    0.8189 H       1  UNL1        0.0660
     40 H          10.6264    0.0986    2.1997 H       1  UNL1        0.0660
     41 H           8.2170   -2.5017   -0.6002 H       1  UNL1        0.0671
     42 H           5.7629   -2.2582   -0.8110 H       1  UNL1        0.0622
     43 H           3.9496    0.7548    0.5248 H       1  UNL1        0.0349
     44 H           4.1763   -1.1572   -1.8615 H       1  UNL1        0.0272
     45 H           4.1082    0.6428   -1.9776 H       1  UNL1        0.0272
     46 H           1.9320   -1.2226   -1.8650 H       1  UNL1        0.0280
     47 H           1.8634    0.6040   -2.0599 H       1  UNL1        0.0280
     48 H           1.9404    0.9145    0.3555 H       1  UNL1        0.0462
     49 H          -1.6352   -0.4195    0.7902 H       1  UNL1        0.0445
     50 H          -0.1767   -0.0199    1.8192 H       1  UNL1        0.0445
     51 H          -0.3370    2.2766    1.1127 H       1  UNL1        0.0523
     52 H          -2.8526    1.3225   -0.3792 H       1  UNL1        0.1491
     53 H          -4.1421    4.5082    0.1337 H       1  UNL1        0.0557
     54 H          -4.7088    3.6422    1.6065 H       1  UNL1        0.0557
     55 H          -5.2001    2.8250   -1.1325 H       1  UNL1        0.1480
     56 H          -5.6965   -2.2702    2.6517 H       1  UNL1        0.0473
     57 H          -5.3357   -0.8251    3.6730 H       1  UNL1        0.0473
     58 H          -3.9695   -1.6426    2.8395 H       1  UNL1        0.0473
     59 H          -6.4894   -2.8766    0.6797 H       1  UNL1        0.0639
     60 H          -7.5121   -3.0101   -1.5644 H       1  UNL1        0.0624
     61 H          -6.3718    0.9854   -2.3071 H       1  UNL1        0.0631
     62 H          -0.8833    1.1211   -1.7037 H       1  UNL1        0.0445
     63 H           0.6568    1.9261   -1.0849 H       1  UNL1        0.0445
     64 H           1.7653   -0.9074    1.9066 H       1  UNL1        0.0280
     65 H           1.5260   -2.1219    0.6423 H       1  UNL1        0.0280
     66 H           3.9557   -1.4280    1.8242 H       1  UNL1        0.0272
     67 H           3.8084   -2.2833    0.2774 H       1  UNL1        0.0272
     68 H           5.9869    1.4741    1.1410 H       1  UNL1        0.0833
@<TRIPOS>BOND
     1     1     2    1
     2     2     3    1
     3     3     4   ar
     4     4     5   ar
     5     5     6   ar
     6     6     7    1
     7     7     8    1
     8     8     9    1
     9     9    10    1
    10    10    11    1
    11    11    12    1
    12    12    13    1
    13    13    14    1
    14    14    15   am
    15    15    16    2
    16    15    17    1
    17    17    18    1
    18    18    19    1
    19    19    20   ar
    20    20    21   ar
    21    21    22    1
    22    21    23   ar
    23    23    24   ar
    24    24    25   ar
    25    25    26   ar
    26    26    27    1
    27    27    28    1
    28    27    29    1
    29    27    30    1
    30    26    31   ar
    31    31    32   ar
    32    13    33    1
    33    10    34    1
    34    34    35    1
    35     6    36   ar
    36    36    37   ar
    37    37     3   ar
    38    35     7    1
    39    33    11    1
    40    32    19   ar
    41    32    23   ar
    42     1    38    1
    43     1    39    1
    44     1    40    1
    45     4    41    1
    46     5    42    1
    47     7    43    1
    48     8    44    1
    49     8    45    1
    50     9    46    1
    51     9    47    1
    52    10    48    1
    53    12    49    1
    54    12    50    1
    55    13    51    1
    56    14    52    1
    57    17    53    1
    58    17    54    1
    59    18    55    1
    60    22    56    1
    61    22    57    1
    62    22    58    1
    63    24    59    1
    64    25    60    1
    65    31    61    1
    66    33    62    1
    67    33    63    1
    68    34    64    1
    69    34    65    1
    70    35    66    1
    71    35    67    1
    72    36    68    1
