@<TRIPOS>MOLECULE
*****
 33 34 0 0 0
SMALL
GASTEIGER

@<TRIPOS>ATOM
      1 C          -5.1941    0.4816    1.1496 C.3     1  UNL1       -0.0397
      2 C          -3.8596   -0.0032    0.7024 C.ar    1  UNL1       -0.0503
      3 C          -3.6043   -0.3241   -0.6172 C.ar    1  UNL1       -0.0570
      4 C          -2.3737   -0.7747   -1.0493 C.ar    1  UNL1       -0.0348
      5 C          -1.3642   -0.9063   -0.1160 C.ar    1  UNL1        0.1087
      6 S           0.2086   -1.4784   -0.6476 S.O2    1  UNL1        0.0745
      7 O           0.7700   -2.3478    0.4130 O.2     1  UNL1       -0.1498
      8 O          -0.0157   -2.3434   -1.8691 O.2     1  UNL1       -0.1498
      9 N           1.2209   -0.1896   -1.1138 N.pl3   1  UNL1       -0.2061
     10 C           0.7775    0.6336   -2.2269 C.3     1  UNL1        0.0235
     11 C           2.4573    0.1334   -0.4954 C.ar    1  UNL1        0.0509
     12 C           2.5371    1.0057    0.5666 C.ar    1  UNL1       -0.0391
     13 C           3.7213    1.3414    1.1905 C.ar    1  UNL1       -0.0600
     14 C           4.8707    0.7614    0.7087 C.ar    1  UNL1       -0.0616
     15 C           4.8164   -0.1088   -0.3461 C.ar    1  UNL1       -0.0600
     16 C           3.6253   -0.4306   -0.9546 C.ar    1  UNL1       -0.0391
     17 C          -1.5683   -0.5963    1.2276 C.ar    1  UNL1       -0.0348
     18 C          -2.8168   -0.1517    1.5979 C.ar    1  UNL1       -0.0570
     19 H          -5.2715    1.5436    0.8462 H       1  UNL1        0.0278
     20 H          -5.9944   -0.0845    0.6438 H       1  UNL1        0.0278
     21 H          -5.2662    0.3353    2.2380 H       1  UNL1        0.0278
     22 H          -4.3982   -0.2222   -1.3600 H       1  UNL1        0.0621
     23 H          -2.1873   -1.0261   -2.1054 H       1  UNL1        0.0637
     24 H           1.6583    1.0679   -2.7756 H       1  UNL1        0.0446
     25 H           0.2344    0.0251   -2.9944 H       1  UNL1        0.0446
     26 H           0.1771    1.4961   -1.8980 H       1  UNL1        0.0446
     27 H           1.6322    1.4820    0.9695 H       1  UNL1        0.0636
     28 H           3.7737    2.0319    2.0292 H       1  UNL1        0.0618
     29 H           5.8347    0.9847    1.1566 H       1  UNL1        0.0618
     30 H           5.7217   -0.5849   -0.7488 H       1  UNL1        0.0618
     31 H           3.6356   -1.1369   -1.8005 H       1  UNL1        0.0636
     32 H          -0.7516   -0.7119    1.9330 H       1  UNL1        0.0637
     33 H          -3.0071    0.0978    2.6369 H       1  UNL1        0.0621
@<TRIPOS>BOND
     1     1     2    1
     2     2     3   ar
     3     3     4   ar
     4     4     5   ar
     5     5     6    1
     6     6     7    2
     7     6     8    2
     8     6     9    1
     9     9    10    1
    10     9    11    1
    11    11    12   ar
    12    12    13   ar
    13    13    14   ar
    14    14    15   ar
    15    15    16   ar
    16     5    17   ar
    17    17    18   ar
    18    18     2   ar
    19    16    11   ar
    20     1    19    1
    21     1    20    1
    22     1    21    1
    23     3    22    1
    24     4    23    1
    25    10    24    1
    26    10    25    1
    27    10    26    1
    28    12    27    1
    29    13    28    1
    30    14    29    1
    31    15    30    1
    32    16    31    1
    33    17    32    1
    34    18    33    1
