
     RDKit          3D

 35 38  0  0  0  0  0  0  0  0999 V2000
    4.2296   -1.0843    1.8496 C   0  0  0  0  0  0  0  0  0  0  0  0
    3.3101   -0.8871    0.6991 C   0  0  0  0  0  0  0  0  0  0  0  0
    3.0755   -1.9820   -0.1064 C   0  0  0  0  0  0  0  0  0  0  0  0
    2.2228   -1.8204   -1.1853 C   0  0  0  0  0  0  0  0  0  0  0  0
    1.6529   -0.5778   -1.4002 C   0  0  0  0  0  0  0  0  0  0  0  0
    1.8990    0.5057   -0.5842 C   0  0  0  0  0  0  0  0  0  0  0  0
    1.3175    1.8274   -0.7797 C   0  0  0  0  0  0  0  0  0  0  0  0
    1.9604    2.9865   -1.0112 N   0  0  0  0  0  0  0  0  0  0  0  0
    1.1457    3.9986   -1.1382 N   0  0  0  0  0  0  0  0  0  0  0  0
   -0.1042    3.4992   -0.9852 C   0  0  0  0  0  0  0  0  0  0  0  0
   -0.0125    2.1534   -0.7622 C   0  0  0  0  0  0  0  0  0  0  0  0
   -1.1162    1.2245   -0.5478 C   0  0  0  0  0  0  0  0  0  0  0  0
   -2.0468    1.0564   -1.5511 C   0  0  0  0  0  0  0  0  0  0  0  0
   -3.1042    0.1911   -1.3999 C   0  0  0  0  0  0  0  0  0  0  0  0
   -3.2117   -0.5071   -0.2159 C   0  0  0  0  0  0  0  0  0  0  0  0
   -4.2602   -1.3605   -0.0769 N   0  0  0  0  0  0  0  0  0  0  0  0
   -4.4113   -2.0627    1.0508 C   0  0  0  0  0  0  0  0  0  0  0  0
   -3.4808   -1.8923    2.0507 C   0  0  0  0  0  0  0  0  0  0  0  0
   -2.4100   -1.0370    1.9400 C   0  0  0  0  0  0  0  0  0  0  0  0
   -2.2600   -0.3129    0.7686 C   0  0  0  0  0  0  0  0  0  0  0  0
   -1.2255    0.5443    0.5999 N   0  0  0  0  0  0  0  0  0  0  0  0
    2.7332    0.3027    0.4513 N   0  0  0  0  0  0  0  0  0  0  0  0
    5.2659   -0.7306    1.5701 H   0  0  0  0  0  0  0  0  0  0  0  0
    4.2889   -2.1554    2.1362 H   0  0  0  0  0  0  0  0  0  0  0  0
    3.8782   -0.5498    2.7607 H   0  0  0  0  0  0  0  0  0  0  0  0
    3.5214   -2.9526    0.0622 H   0  0  0  0  0  0  0  0  0  0  0  0
    2.0166   -2.6710   -1.8422 H   0  0  0  0  0  0  0  0  0  0  0  0
    0.9831   -0.4108   -2.2300 H   0  0  0  0  0  0  0  0  0  0  0  0
    1.3927    5.0109   -1.3236 H   0  0  0  0  0  0  0  0  0  0  0  0
   -0.9946    4.1136   -1.0404 H   0  0  0  0  0  0  0  0  0  0  0  0
   -1.9189    1.6388   -2.4849 H   0  0  0  0  0  0  0  0  0  0  0  0
   -3.8283    0.0620   -2.1840 H   0  0  0  0  0  0  0  0  0  0  0  0
   -5.2291   -2.7646    1.2276 H   0  0  0  0  0  0  0  0  0  0  0  0
   -3.6019   -2.4605    2.9669 H   0  0  0  0  0  0  0  0  0  0  0  0
   -1.6772   -0.8955    2.7153 H   0  0  0  0  0  0  0  0  0  0  0  0
  1  2  1  0
  2  3  2  0
  3  4  1  0
  4  5  2  0
  5  6  1  0
  6  7  1  0
  7  8  2  0
  8  9  1  0
  9 10  1  0
 10 11  2  0
 11 12  1  0
 12 13  2  0
 13 14  1  0
 14 15  2  0
 15 16  1  0
 16 17  2  0
 17 18  1  0
 18 19  2  0
 19 20  1  0
 20 21  2  0
  6 22  2  0
 22  2  1  0
 11  7  1  0
 21 12  1  0
 20 15  1  0
  1 23  1  0
  1 24  1  0
  1 25  1  0
  3 26  1  0
  4 27  1  0
  5 28  1  0
  9 29  1  0
 10 30  1  0
 13 31  1  0
 14 32  1  0
 17 33  1  0
 18 34  1  0
 19 35  1  0
M  END
$$$$
