@<TRIPOS>MOLECULE
*****
 35 38 0 0 0
SMALL
GASTEIGER

@<TRIPOS>ATOM
      1 C           4.2296   -1.0843    1.8496 C.3     1  UNL1       -0.0223
      2 C           3.3101   -0.8871    0.6991 C.ar    1  UNL1        0.0390
      3 C           3.0755   -1.9820   -0.1064 C.ar    1  UNL1       -0.0406
      4 C           2.2228   -1.8204   -1.1853 C.ar    1  UNL1       -0.0580
      5 C           1.6529   -0.5778   -1.4002 C.ar    1  UNL1       -0.0341
      6 C           1.8990    0.5057   -0.5842 C.ar    1  UNL1        0.0918
      7 C           1.3175    1.8274   -0.7797 C.ar    1  UNL1        0.1198
      8 N           1.9604    2.9865   -1.0112 N.ar    1  UNL1       -0.1717
      9 N           1.1457    3.9986   -1.1382 N.ar    1  UNL1       -0.2835
     10 C          -0.1042    3.4992   -0.9852 C.ar    1  UNL1        0.0322
     11 C          -0.0125    2.1534   -0.7622 C.ar    1  UNL1        0.0469
     12 C          -1.1162    1.2245   -0.5478 C.ar    1  UNL1        0.0754
     13 C          -2.0468    1.0564   -1.5511 C.ar    1  UNL1       -0.0335
     14 C          -3.1042    0.1911   -1.3999 C.ar    1  UNL1       -0.0322
     15 C          -3.2117   -0.5071   -0.2159 C.ar    1  UNL1        0.0892
     16 N          -4.2602   -1.3605   -0.0769 N.ar    1  UNL1       -0.2534
     17 C          -4.4113   -2.0627    1.0508 C.ar    1  UNL1        0.0284
     18 C          -3.4808   -1.8923    2.0507 C.ar    1  UNL1       -0.0415
     19 C          -2.4100   -1.0370    1.9400 C.ar    1  UNL1       -0.0328
     20 C          -2.2600   -0.3129    0.7686 C.ar    1  UNL1        0.0899
     21 N          -1.2255    0.5443    0.5999 N.ar    1  UNL1       -0.2450
     22 N           2.7332    0.3027    0.4513 N.ar    1  UNL1       -0.2503
     23 H           5.2659   -0.7306    1.5701 H       1  UNL1        0.0292
     24 H           4.2889   -2.1554    2.1362 H       1  UNL1        0.0292
     25 H           3.8782   -0.5498    2.7607 H       1  UNL1        0.0292
     26 H           3.5214   -2.9526    0.0622 H       1  UNL1        0.0635
     27 H           2.0166   -2.6710   -1.8422 H       1  UNL1        0.0619
     28 H           0.9831   -0.4108   -2.2300 H       1  UNL1        0.0639
     29 H           1.3927    5.0109   -1.3236 H       1  UNL1        0.1882
     30 H          -0.9946    4.1136   -1.0404 H       1  UNL1        0.0830
     31 H          -1.9189    1.6388   -2.4849 H       1  UNL1        0.0640
     32 H          -3.8283    0.0620   -2.1840 H       1  UNL1        0.0640
     33 H          -5.2291   -2.7646    1.2276 H       1  UNL1        0.0830
     34 H          -3.6019   -2.4605    2.9669 H       1  UNL1        0.0633
     35 H          -1.6772   -0.8955    2.7153 H       1  UNL1        0.0640
@<TRIPOS>BOND
     1     1     2    1
     2     2     3   ar
     3     3     4   ar
     4     4     5   ar
     5     5     6   ar
     6     6     7    1
     7     7     8   ar
     8     8     9   ar
     9     9    10   ar
    10    10    11   ar
    11    11    12    1
    12    12    13   ar
    13    13    14   ar
    14    14    15   ar
    15    15    16   ar
    16    16    17   ar
    17    17    18   ar
    18    18    19   ar
    19    19    20   ar
    20    20    21   ar
    21     6    22   ar
    22    22     2   ar
    23    11     7   ar
    24    21    12   ar
    25    20    15   ar
    26     1    23    1
    27     1    24    1
    28     1    25    1
    29     3    26    1
    30     4    27    1
    31     5    28    1
    32     9    29    1
    33    10    30    1
    34    13    31    1
    35    14    32    1
    36    17    33    1
    37    18    34    1
    38    19    35    1
