
     RDKit          3D

 21 21  0  0  0  0  0  0  0  0999 V2000
   -1.8331   -0.0761   -0.4955 C   0  0  1  0  0  0  0  0  0  0  0  0
   -1.6034    1.0100    0.5255 C   0  0  0  0  0  0  0  0  0  0  0  0
   -0.6977   -0.1079   -1.4736 C   0  0  0  0  0  0  0  0  0  0  0  0
    0.6194   -0.3786   -0.7902 C   0  0  0  0  0  0  0  0  0  0  0  0
    1.0958   -1.7169   -0.6126 C   0  0  0  0  0  0  0  0  0  0  0  0
    2.7013   -1.3743    0.2577 S   0  0  0  0  0  0  0  0  0  0  0  0
    2.4449    0.4332    0.2231 C   0  0  0  0  0  0  0  0  0  0  0  0
    3.3162    1.4942    0.7444 N   0  0  0  0  0  0  0  0  0  0  0  0
    1.3332    0.6667   -0.3532 N   0  0  0  0  0  0  0  0  0  0  0  0
   -2.1518   -1.3773    0.1143 C   0  0  0  0  0  0  0  0  0  0  0  0
   -2.9874   -2.2633    0.1927 O   0  0  0  0  0  0  0  0  0  0  0  0
   -2.7296    0.2349   -1.0711 H   0  0  0  0  0  0  0  0  0  0  0  0
   -2.5628    1.4819    0.8442 H   0  0  0  0  0  0  0  0  0  0  0  0
   -1.0259    0.6684    1.4114 H   0  0  0  0  0  0  0  0  0  0  0  0
   -1.0011    1.8341    0.0715 H   0  0  0  0  0  0  0  0  0  0  0  0
   -0.6980    0.8527   -2.0240 H   0  0  0  0  0  0  0  0  0  0  0  0
   -0.8492   -0.8862   -2.2506 H   0  0  0  0  0  0  0  0  0  0  0  0
    0.6188   -2.5519   -0.9122 H   0  0  0  0  0  0  0  0  0  0  0  0
    3.1149    2.0705    1.5956 H   0  0  0  0  0  0  0  0  0  0  0  0
    4.2019    1.6573    0.1916 H   0  0  0  0  0  0  0  0  0  0  0  0
   -1.3063   -1.6711    0.7515 H   0  0  0  0  0  0  0  0  0  0  0  0
  1  2  1  0
  1  3  1  0
  3  4  1  0
  4  5  2  0
  5  6  1  0
  6  7  1  0
  7  8  1  0
  7  9  2  0
  1 10  1  0
 10 11  2  0
  9  4  1  0
  1 12  1  6
  2 13  1  0
  2 14  1  0
  2 15  1  0
  3 16  1  0
  3 17  1  0
  5 18  1  0
  8 19  1  0
  8 20  1  0
 10 21  1  0
M  END
$$$$
