@<TRIPOS>MOLECULE
*****
 46 49 0 0 0
SMALL
GASTEIGER

@<TRIPOS>ATOM
      1 C          -1.5217    3.8049    1.5900 C.3     1  UNL1       -0.0369
      2 C          -1.0936    2.4622    1.0744 C.ar    1  UNL1       -0.0132
      3 C           0.2306    2.2461    0.7936 C.ar    1  UNL1       -0.0348
      4 C           0.6975    1.0188    0.3106 C.ar    1  UNL1        0.0345
      5 N           2.0923    0.9410    0.0689 N.am    1  UNL1       -0.2802
      6 C           2.8011   -0.1599   -0.4448 C.2     1  UNL1        0.2680
      7 O           2.2180   -1.2110   -0.7452 O.2     1  UNL1       -0.2681
      8 C           4.2452   -0.1100   -0.6443 C.ar    1  UNL1        0.1439
      9 N           4.9476    0.9907   -0.3266 N.ar    1  UNL1       -0.2476
     10 C           6.2768    1.0982   -0.4871 C.ar    1  UNL1        0.0459
     11 C           7.0121    0.0545   -1.0013 C.ar    1  UNL1        0.0712
     12 C           8.4280    0.2154   -1.1529 C.1     1  UNL1        0.1007
     13 N           9.5820    0.3321   -1.2639 N.1     1  UNL1       -0.1908
     14 C           6.3259   -1.0911   -1.3389 C.ar    1  UNL1       -0.0223
     15 C           4.9572   -1.1685   -1.1608 C.ar    1  UNL1        0.0726
     16 CL          4.0799   -2.6227   -1.5902 Cl      1  UNL1       -0.0811
     17 C          -0.2229    0.0242    0.1240 C.ar    1  UNL1       -0.0320
     18 C          -1.5542    0.2315    0.4022 C.ar    1  UNL1        0.0230
     19 C          -2.5365   -0.8787    0.1983 C.3     1  UNL1        0.1603
     20 C          -1.8458   -2.0810   -0.3287 C.3     1  UNL1        0.2686
     21 F          -1.2291   -1.9546   -1.5312 F       1  UNL1       -0.2062
     22 F          -2.7001   -3.1959   -0.3113 F       1  UNL1       -0.2062
     23 N          -3.1128   -1.1409    1.4907 N.2     1  UNL1       -0.2194
     24 C          -4.2543   -1.7031    1.5994 C.2     1  UNL1        0.2764
     25 N          -4.8388   -1.9715    2.8690 N.pl3   1  UNL1       -0.3134
     26 O          -4.8881   -2.0343    0.3834 O.2     1  UNL1       -0.4622
     27 C          -4.9129   -1.0029   -0.6180 C.3     1  UNL1        0.1091
     28 C          -4.1253   -1.2099   -1.8294 C.3     1  UNL1       -0.0064
     29 C          -3.5830   -0.3491   -0.7577 C.3     1  UNL1        0.0344
     30 C          -1.9947    1.4635    0.8830 C.ar    1  UNL1        0.1320
     31 F          -3.3082    1.5969    1.1406 F       1  UNL1       -0.2048
     32 H          -0.7593    4.5501    1.2790 H       1  UNL1        0.0278
     33 H          -1.5313    3.7831    2.6993 H       1  UNL1        0.0278
     34 H          -2.4982    4.1138    1.1587 H       1  UNL1        0.0278
     35 H           0.9085    3.0831    0.9660 H       1  UNL1        0.0640
     36 H           2.7216    1.7859    0.2844 H       1  UNL1        0.1552
     37 H           6.8043    2.0110   -0.2148 H       1  UNL1        0.0843
     38 H           6.8832   -1.9162   -1.7423 H       1  UNL1        0.0646
     39 H           0.1446   -0.9164   -0.2349 H       1  UNL1        0.0640
     40 H          -1.0552   -2.3693    0.4268 H       1  UNL1        0.1047
     41 H          -4.5261   -2.8118    3.3927 H       1  UNL1        0.1466
     42 H          -5.5658   -1.3606    3.2938 H       1  UNL1        0.1466
     43 H          -5.8430   -0.3969   -0.6014 H       1  UNL1        0.0737
     44 H          -3.7748   -2.2124   -2.0654 H       1  UNL1        0.0306
     45 H          -4.4972   -0.6757   -2.7533 H       1  UNL1        0.0306
     46 H          -3.5833    0.7379   -0.9440 H       1  UNL1        0.0366
@<TRIPOS>BOND
     1     1     2    1
     2     2     3   ar
     3     3     4   ar
     4     4     5    1
     5     5     6   am
     6     6     7    2
     7     6     8    1
     8     8     9   ar
     9     9    10   ar
    10    10    11   ar
    11    11    12    1
    12    12    13    3
    13    11    14   ar
    14    14    15   ar
    15    15    16    1
    16     4    17   ar
    17    17    18   ar
    18    18    19    1
    19    19    20    1
    20    20    21    1
    21    20    22    1
    22    19    23    1
    23    23    24    2
    24    24    25    1
    25    24    26    1
    26    26    27    1
    27    27    28    1
    28    28    29    1
    29    18    30   ar
    30    30    31    1
    31    30     2   ar
    32    15     8   ar
    33    29    19    1
    34    29    27    1
    35     1    32    1
    36     1    33    1
    37     1    34    1
    38     3    35    1
    39     5    36    1
    40    10    37    1
    41    14    38    1
    42    17    39    1
    43    20    40    1
    44    25    41    1
    45    25    42    1
    46    27    43    1
    47    28    44    1
    48    28    45    1
    49    29    46    1
