
     RDKit          3D

 46 49  0  0  0  0  0  0  0  0999 V2000
   -1.5217    3.8049    1.5900 C   0  0  0  0  0  0  0  0  0  0  0  0
   -1.0936    2.4622    1.0744 C   0  0  0  0  0  0  0  0  0  0  0  0
    0.2306    2.2461    0.7936 C   0  0  0  0  0  0  0  0  0  0  0  0
    0.6975    1.0188    0.3106 C   0  0  0  0  0  0  0  0  0  0  0  0
    2.0923    0.9410    0.0689 N   0  0  0  0  0  0  0  0  0  0  0  0
    2.8011   -0.1599   -0.4448 C   0  0  0  0  0  0  0  0  0  0  0  0
    2.2180   -1.2110   -0.7452 O   0  0  0  0  0  0  0  0  0  0  0  0
    4.2452   -0.1100   -0.6443 C   0  0  0  0  0  0  0  0  0  0  0  0
    4.9476    0.9907   -0.3266 N   0  0  0  0  0  0  0  0  0  0  0  0
    6.2768    1.0982   -0.4871 C   0  0  0  0  0  0  0  0  0  0  0  0
    7.0121    0.0545   -1.0013 C   0  0  0  0  0  0  0  0  0  0  0  0
    8.4280    0.2154   -1.1529 C   0  0  0  0  0  0  0  0  0  0  0  0
    9.5820    0.3321   -1.2639 N   0  0  0  0  0  0  0  0  0  0  0  0
    6.3259   -1.0911   -1.3389 C   0  0  0  0  0  0  0  0  0  0  0  0
    4.9572   -1.1685   -1.1608 C   0  0  0  0  0  0  0  0  0  0  0  0
    4.0799   -2.6227   -1.5902 Cl  0  0  0  0  0  0  0  0  0  0  0  0
   -0.2229    0.0242    0.1240 C   0  0  0  0  0  0  0  0  0  0  0  0
   -1.5542    0.2315    0.4022 C   0  0  0  0  0  0  0  0  0  0  0  0
   -2.5365   -0.8787    0.1983 C   0  0  1  0  0  0  0  0  0  0  0  0
   -1.8458   -2.0810   -0.3287 C   0  0  0  0  0  0  0  0  0  0  0  0
   -1.2291   -1.9546   -1.5312 F   0  0  0  0  0  0  0  0  0  0  0  0
   -2.7001   -3.1959   -0.3113 F   0  0  0  0  0  0  0  0  0  0  0  0
   -3.1128   -1.1409    1.4907 N   0  0  0  0  0  0  0  0  0  0  0  0
   -4.2543   -1.7031    1.5994 C   0  0  0  0  0  0  0  0  0  0  0  0
   -4.8388   -1.9715    2.8690 N   0  0  0  0  0  0  0  0  0  0  0  0
   -4.8881   -2.0343    0.3834 O   0  0  0  0  0  0  0  0  0  0  0  0
   -4.9129   -1.0029   -0.6180 C   0  0  2  0  0  0  0  0  0  0  0  0
   -4.1253   -1.2099   -1.8294 C   0  0  0  0  0  0  0  0  0  0  0  0
   -3.5830   -0.3491   -0.7577 C   0  0  2  0  0  0  0  0  0  0  0  0
   -1.9947    1.4635    0.8830 C   0  0  0  0  0  0  0  0  0  0  0  0
   -3.3082    1.5969    1.1406 F   0  0  0  0  0  0  0  0  0  0  0  0
   -0.7593    4.5501    1.2790 H   0  0  0  0  0  0  0  0  0  0  0  0
   -1.5313    3.7831    2.6993 H   0  0  0  0  0  0  0  0  0  0  0  0
   -2.4982    4.1138    1.1587 H   0  0  0  0  0  0  0  0  0  0  0  0
    0.9085    3.0831    0.9660 H   0  0  0  0  0  0  0  0  0  0  0  0
    2.7216    1.7859    0.2844 H   0  0  0  0  0  0  0  0  0  0  0  0
    6.8043    2.0110   -0.2148 H   0  0  0  0  0  0  0  0  0  0  0  0
    6.8832   -1.9162   -1.7423 H   0  0  0  0  0  0  0  0  0  0  0  0
    0.1446   -0.9164   -0.2349 H   0  0  0  0  0  0  0  0  0  0  0  0
   -1.0552   -2.3693    0.4268 H   0  0  0  0  0  0  0  0  0  0  0  0
   -4.5261   -2.8118    3.3927 H   0  0  0  0  0  0  0  0  0  0  0  0
   -5.5658   -1.3606    3.2938 H   0  0  0  0  0  0  0  0  0  0  0  0
   -5.8430   -0.3969   -0.6014 H   0  0  0  0  0  0  0  0  0  0  0  0
   -3.7748   -2.2124   -2.0654 H   0  0  0  0  0  0  0  0  0  0  0  0
   -4.4972   -0.6757   -2.7533 H   0  0  0  0  0  0  0  0  0  0  0  0
   -3.5833    0.7379   -0.9440 H   0  0  0  0  0  0  0  0  0  0  0  0
  1  2  1  0
  2  3  2  0
  3  4  1  0
  4  5  1  0
  5  6  1  0
  6  7  2  0
  6  8  1  0
  8  9  2  0
  9 10  1  0
 10 11  2  0
 11 12  1  0
 12 13  3  0
 11 14  1  0
 14 15  2  0
 15 16  1  0
  4 17  2  0
 17 18  1  0
 18 19  1  0
 19 20  1  6
 20 21  1  0
 20 22  1  0
 19 23  1  0
 23 24  2  0
 24 25  1  0
 24 26  1  0
 26 27  1  0
 27 28  1  0
 28 29  1  0
 18 30  2  0
 30 31  1  0
 30  2  1  0
 15  8  1  0
 29 19  1  0
 29 27  1  0
  1 32  1  0
  1 33  1  0
  1 34  1  0
  3 35  1  0
  5 36  1  0
 10 37  1  0
 14 38  1  0
 17 39  1  0
 20 40  1  0
 25 41  1  0
 25 42  1  0
 27 43  1  6
 28 44  1  0
 28 45  1  0
 29 46  1  6
M  END
$$$$
