@<TRIPOS>MOLECULE
*****
 90 92 0 0 0
SMALL
GASTEIGER

@<TRIPOS>ATOM
      1 C          -0.2090    1.3649    0.1493 C.ar    1  UNL1       -0.0570
      2 C           1.0324    1.3124    0.8191 C.ar    1  UNL1       -0.0570
      3 C           1.5948    0.1119    1.1472 C.ar    1  UNL1       -0.0333
      4 C           2.9539   -0.0718    1.7457 C.3     1  UNL1        0.0241
      5 N           3.7938   -0.6531    0.7124 N.3     1  UNL1       -0.2969
      6 C           3.7467   -0.1179   -0.5518 C.3     1  UNL1        0.0004
      7 C           4.3065    1.1818   -0.9609 C.3     1  UNL1       -0.0276
      8 C           4.8196    2.1275    0.0302 C.3     1  UNL1       -0.0029
      9 N           6.0701    1.7895    0.6893 N.3     1  UNL1       -0.3147
     10 C           7.1753    1.9436   -0.2483 C.3     1  UNL1        0.0084
     11 C           8.5353    1.6346    0.2437 C.3     1  UNL1        0.0084
     12 N           8.8397    0.4241    0.8463 N.3     1  UNL1       -0.3147
     13 C           8.8116   -0.8104    0.1818 C.3     1  UNL1       -0.0029
     14 C           7.3619   -1.1661   -0.0602 C.3     1  UNL1       -0.0278
     15 C           7.1232   -2.5088   -0.6735 C.3     1  UNL1       -0.0029
     16 N           5.7516   -2.6860   -0.8827 N.3     1  UNL1       -0.3147
     17 C           4.8050   -2.8614    0.0818 C.3     1  UNL1        0.0087
     18 C           4.3182   -1.8992    1.0543 C.3     1  UNL1        0.0118
     19 C           0.9141   -1.0282    0.8062 C.ar    1  UNL1       -0.0570
     20 C          -0.2936   -0.9776    0.1509 C.ar    1  UNL1       -0.0570
     21 C          -0.8767    0.2187   -0.1887 C.ar    1  UNL1       -0.0333
     22 C          -2.1576    0.1990   -0.9183 C.3     1  UNL1        0.0241
     23 N          -3.3451    0.1190   -0.1169 N.3     1  UNL1       -0.2969
     24 C          -3.2263   -0.9501    0.8231 C.3     1  UNL1        0.0004
     25 C          -4.5508   -1.2140    1.5268 C.3     1  UNL1       -0.0276
     26 C          -5.5442   -1.7282    0.4710 C.3     1  UNL1       -0.0029
     27 N          -6.8429   -1.5906    1.0644 N.3     1  UNL1       -0.3147
     28 C          -7.8588   -1.9860    0.0849 C.3     1  UNL1        0.0084
     29 C          -9.1570   -1.2784    0.4998 C.3     1  UNL1        0.0084
     30 N          -8.8402    0.1784    0.5060 N.3     1  UNL1       -0.3147
     31 C          -8.6624    0.6933   -0.8180 C.3     1  UNL1       -0.0029
     32 C          -8.1762    2.1097   -0.7248 C.3     1  UNL1       -0.0278
     33 C          -6.7789    2.3009   -0.2266 C.3     1  UNL1       -0.0029
     34 N          -5.7623    1.9071   -1.1847 N.3     1  UNL1       -0.3147
     35 C          -4.4385    2.2138   -0.7603 C.3     1  UNL1        0.0087
     36 C          -3.8161    1.3729    0.3128 C.3     1  UNL1        0.0118
     37 H          -0.6114    2.3239   -0.0781 H       1  UNL1        0.0621
     38 H           1.5479    2.2235    1.0754 H       1  UNL1        0.0621
     39 H           2.8303   -0.8427    2.5516 H       1  UNL1        0.0476
     40 H           3.3532    0.8257    2.1735 H       1  UNL1        0.0476
     41 H           2.5959   -0.0197   -0.7906 H       1  UNL1        0.0427
     42 H           4.0266   -0.8612   -1.3794 H       1  UNL1        0.0427
     43 H           5.1603    1.0043   -1.7084 H       1  UNL1        0.0290
     44 H           3.4918    1.7298   -1.5640 H       1  UNL1        0.0290
     45 H           4.9821    3.1258   -0.5292 H       1  UNL1        0.0424
     46 H           4.0846    2.3979    0.7832 H       1  UNL1        0.0424
     47 H           6.1768    2.4263    1.4983 H       1  UNL1        0.1220
     48 H           6.9837    1.6734   -1.2778 H       1  UNL1        0.0436
     49 H           7.2005    3.1212   -0.3531 H       1  UNL1        0.0436
     50 H           8.7978    2.4676    1.0086 H       1  UNL1        0.0436
     51 H           9.2486    1.9061   -0.6045 H       1  UNL1        0.0436
     52 H           8.8820    0.4515    1.8603 H       1  UNL1        0.1220
     53 H           9.2849   -0.6786   -0.8371 H       1  UNL1        0.0424
     54 H           9.3856   -1.6189    0.6590 H       1  UNL1        0.0424
     55 H           6.8225   -1.0994    0.8858 H       1  UNL1        0.0290
     56 H           6.9237   -0.4374   -0.7671 H       1  UNL1        0.0290
     57 H           7.6445   -3.3291   -0.1329 H       1  UNL1        0.0424
     58 H           7.6393   -2.5008   -1.6755 H       1  UNL1        0.0424
     59 H           5.4197   -2.7240   -1.8430 H       1  UNL1        0.1220
     60 H           3.8951   -3.3598   -0.4059 H       1  UNL1        0.0437
     61 H           5.1615   -3.7731    0.7288 H       1  UNL1        0.0437
     62 H           3.4583   -2.4502    1.6084 H       1  UNL1        0.0439
     63 H           5.0178   -1.7921    1.9599 H       1  UNL1        0.0439
     64 H           1.3094   -2.0130    1.0524 H       1  UNL1        0.0621
     65 H          -0.7606   -1.9210   -0.1039 H       1  UNL1        0.0621
     66 H          -2.1924    1.0511   -1.6746 H       1  UNL1        0.0476
     67 H          -2.1916   -0.7126   -1.6057 H       1  UNL1        0.0476
     68 H          -2.4585   -0.8533    1.5799 H       1  UNL1        0.0427
     69 H          -3.0384   -1.8959    0.2361 H       1  UNL1        0.0427
     70 H          -4.9223   -0.3922    2.1159 H       1  UNL1        0.0290
     71 H          -4.3764   -2.0690    2.2134 H       1  UNL1        0.0290
     72 H          -5.3323   -2.8243    0.3687 H       1  UNL1        0.0424
     73 H          -5.4387   -1.1763   -0.4614 H       1  UNL1        0.0424
     74 H          -7.0438   -0.6428    1.4373 H       1  UNL1        0.1220
     75 H          -8.0514   -3.0651    0.2212 H       1  UNL1        0.0436
     76 H          -7.5405   -1.6940   -0.8929 H       1  UNL1        0.0436
     77 H          -9.9444   -1.5301   -0.2152 H       1  UNL1        0.0436
     78 H          -9.4311   -1.5531    1.5130 H       1  UNL1        0.0436
     79 H          -9.6730    0.6193    0.9598 H       1  UNL1        0.1220
     80 H          -9.6832    0.7306   -1.3274 H       1  UNL1        0.0424
     81 H          -8.0605    0.0661   -1.4755 H       1  UNL1        0.0424
     82 H          -8.8486    2.6573   -0.0122 H       1  UNL1        0.0290
     83 H          -8.3576    2.5979   -1.7087 H       1  UNL1        0.0290
     84 H          -6.6457    3.3792    0.0264 H       1  UNL1        0.0424
     85 H          -6.6609    1.6603    0.6747 H       1  UNL1        0.0424
     86 H          -5.8282    0.9203   -1.4928 H       1  UNL1        0.1220
     87 H          -3.7938    2.1687   -1.6835 H       1  UNL1        0.0437
     88 H          -4.3890    3.3127   -0.4792 H       1  UNL1        0.0437
     89 H          -2.9664    2.0096    0.7210 H       1  UNL1        0.0439
     90 H          -4.5008    1.3041    1.2101 H       1  UNL1        0.0439
@<TRIPOS>BOND
     1     1     2   ar
     2     2     3   ar
     3     3     4    1
     4     4     5    1
     5     5     6    1
     6     6     7    1
     7     7     8    1
     8     8     9    1
     9     9    10    1
    10    10    11    1
    11    11    12    1
    12    12    13    1
    13    13    14    1
    14    14    15    1
    15    15    16    1
    16    16    17    1
    17    17    18    1
    18     3    19   ar
    19    19    20   ar
    20    20    21   ar
    21    21    22    1
    22    22    23    1
    23    23    24    1
    24    24    25    1
    25    25    26    1
    26    26    27    1
    27    27    28    1
    28    28    29    1
    29    29    30    1
    30    30    31    1
    31    31    32    1
    32    32    33    1
    33    33    34    1
    34    34    35    1
    35    35    36    1
    36    21     1   ar
    37    36    23    1
    38    18     5    1
    39     1    37    1
    40     2    38    1
    41     4    39    1
    42     4    40    1
    43     6    41    1
    44     6    42    1
    45     7    43    1
    46     7    44    1
    47     8    45    1
    48     8    46    1
    49     9    47    1
    50    10    48    1
    51    10    49    1
    52    11    50    1
    53    11    51    1
    54    12    52    1
    55    13    53    1
    56    13    54    1
    57    14    55    1
    58    14    56    1
    59    15    57    1
    60    15    58    1
    61    16    59    1
    62    17    60    1
    63    17    61    1
    64    18    62    1
    65    18    63    1
    66    19    64    1
    67    20    65    1
    68    22    66    1
    69    22    67    1
    70    24    68    1
    71    24    69    1
    72    25    70    1
    73    25    71    1
    74    26    72    1
    75    26    73    1
    76    27    74    1
    77    28    75    1
    78    28    76    1
    79    29    77    1
    80    29    78    1
    81    30    79    1
    82    31    80    1
    83    31    81    1
    84    32    82    1
    85    32    83    1
    86    33    84    1
    87    33    85    1
    88    34    86    1
    89    35    87    1
    90    35    88    1
    91    36    89    1
    92    36    90    1
