
     RDKit          3D

 90 92  0  0  0  0  0  0  0  0999 V2000
   -0.2090    1.3649    0.1493 C   0  0  0  0  0  0  0  0  0  0  0  0
    1.0324    1.3124    0.8191 C   0  0  0  0  0  0  0  0  0  0  0  0
    1.5948    0.1119    1.1472 C   0  0  0  0  0  0  0  0  0  0  0  0
    2.9539   -0.0718    1.7457 C   0  0  0  0  0  0  0  0  0  0  0  0
    3.7938   -0.6531    0.7124 N   0  0  0  0  0  0  0  0  0  0  0  0
    3.7467   -0.1179   -0.5518 C   0  0  0  0  0  0  0  0  0  0  0  0
    4.3065    1.1818   -0.9609 C   0  0  0  0  0  0  0  0  0  0  0  0
    4.8196    2.1275    0.0302 C   0  0  0  0  0  0  0  0  0  0  0  0
    6.0701    1.7895    0.6893 N   0  0  0  0  0  0  0  0  0  0  0  0
    7.1753    1.9436   -0.2483 C   0  0  0  0  0  0  0  0  0  0  0  0
    8.5353    1.6346    0.2437 C   0  0  0  0  0  0  0  0  0  0  0  0
    8.8397    0.4241    0.8463 N   0  0  0  0  0  0  0  0  0  0  0  0
    8.8116   -0.8104    0.1818 C   0  0  0  0  0  0  0  0  0  0  0  0
    7.3619   -1.1661   -0.0602 C   0  0  0  0  0  0  0  0  0  0  0  0
    7.1232   -2.5088   -0.6735 C   0  0  0  0  0  0  0  0  0  0  0  0
    5.7516   -2.6860   -0.8827 N   0  0  0  0  0  0  0  0  0  0  0  0
    4.8050   -2.8614    0.0818 C   0  0  0  0  0  0  0  0  0  0  0  0
    4.3182   -1.8992    1.0543 C   0  0  0  0  0  0  0  0  0  0  0  0
    0.9141   -1.0282    0.8062 C   0  0  0  0  0  0  0  0  0  0  0  0
   -0.2936   -0.9776    0.1509 C   0  0  0  0  0  0  0  0  0  0  0  0
   -0.8767    0.2187   -0.1887 C   0  0  0  0  0  0  0  0  0  0  0  0
   -2.1576    0.1990   -0.9183 C   0  0  0  0  0  0  0  0  0  0  0  0
   -3.3451    0.1190   -0.1169 N   0  0  0  0  0  0  0  0  0  0  0  0
   -3.2263   -0.9501    0.8231 C   0  0  0  0  0  0  0  0  0  0  0  0
   -4.5508   -1.2140    1.5268 C   0  0  0  0  0  0  0  0  0  0  0  0
   -5.5442   -1.7282    0.4710 C   0  0  0  0  0  0  0  0  0  0  0  0
   -6.8429   -1.5906    1.0644 N   0  0  0  0  0  0  0  0  0  0  0  0
   -7.8588   -1.9860    0.0849 C   0  0  0  0  0  0  0  0  0  0  0  0
   -9.1570   -1.2784    0.4998 C   0  0  0  0  0  0  0  0  0  0  0  0
   -8.8402    0.1784    0.5060 N   0  0  0  0  0  0  0  0  0  0  0  0
   -8.6624    0.6933   -0.8180 C   0  0  0  0  0  0  0  0  0  0  0  0
   -8.1762    2.1097   -0.7248 C   0  0  0  0  0  0  0  0  0  0  0  0
   -6.7789    2.3009   -0.2266 C   0  0  0  0  0  0  0  0  0  0  0  0
   -5.7623    1.9071   -1.1847 N   0  0  0  0  0  0  0  0  0  0  0  0
   -4.4385    2.2138   -0.7603 C   0  0  0  0  0  0  0  0  0  0  0  0
   -3.8161    1.3729    0.3128 C   0  0  0  0  0  0  0  0  0  0  0  0
   -0.6114    2.3239   -0.0781 H   0  0  0  0  0  0  0  0  0  0  0  0
    1.5479    2.2235    1.0754 H   0  0  0  0  0  0  0  0  0  0  0  0
    2.8303   -0.8427    2.5516 H   0  0  0  0  0  0  0  0  0  0  0  0
    3.3532    0.8257    2.1735 H   0  0  0  0  0  0  0  0  0  0  0  0
    2.5959   -0.0197   -0.7906 H   0  0  0  0  0  0  0  0  0  0  0  0
    4.0266   -0.8612   -1.3794 H   0  0  0  0  0  0  0  0  0  0  0  0
    5.1603    1.0043   -1.7084 H   0  0  0  0  0  0  0  0  0  0  0  0
    3.4918    1.7298   -1.5640 H   0  0  0  0  0  0  0  0  0  0  0  0
    4.9821    3.1258   -0.5292 H   0  0  0  0  0  0  0  0  0  0  0  0
    4.0846    2.3979    0.7832 H   0  0  0  0  0  0  0  0  0  0  0  0
    6.1768    2.4263    1.4983 H   0  0  0  0  0  0  0  0  0  0  0  0
    6.9837    1.6734   -1.2778 H   0  0  0  0  0  0  0  0  0  0  0  0
    7.2005    3.1212   -0.3531 H   0  0  0  0  0  0  0  0  0  0  0  0
    8.7978    2.4676    1.0086 H   0  0  0  0  0  0  0  0  0  0  0  0
    9.2486    1.9061   -0.6045 H   0  0  0  0  0  0  0  0  0  0  0  0
    8.8820    0.4515    1.8603 H   0  0  0  0  0  0  0  0  0  0  0  0
    9.2849   -0.6786   -0.8371 H   0  0  0  0  0  0  0  0  0  0  0  0
    9.3856   -1.6189    0.6590 H   0  0  0  0  0  0  0  0  0  0  0  0
    6.8225   -1.0994    0.8858 H   0  0  0  0  0  0  0  0  0  0  0  0
    6.9237   -0.4374   -0.7671 H   0  0  0  0  0  0  0  0  0  0  0  0
    7.6445   -3.3291   -0.1329 H   0  0  0  0  0  0  0  0  0  0  0  0
    7.6393   -2.5008   -1.6755 H   0  0  0  0  0  0  0  0  0  0  0  0
    5.4197   -2.7240   -1.8430 H   0  0  0  0  0  0  0  0  0  0  0  0
    3.8951   -3.3598   -0.4059 H   0  0  0  0  0  0  0  0  0  0  0  0
    5.1615   -3.7731    0.7288 H   0  0  0  0  0  0  0  0  0  0  0  0
    3.4583   -2.4502    1.6084 H   0  0  0  0  0  0  0  0  0  0  0  0
    5.0178   -1.7921    1.9599 H   0  0  0  0  0  0  0  0  0  0  0  0
    1.3094   -2.0130    1.0524 H   0  0  0  0  0  0  0  0  0  0  0  0
   -0.7606   -1.9210   -0.1039 H   0  0  0  0  0  0  0  0  0  0  0  0
   -2.1924    1.0511   -1.6746 H   0  0  0  0  0  0  0  0  0  0  0  0
   -2.1916   -0.7126   -1.6057 H   0  0  0  0  0  0  0  0  0  0  0  0
   -2.4585   -0.8533    1.5799 H   0  0  0  0  0  0  0  0  0  0  0  0
   -3.0384   -1.8959    0.2361 H   0  0  0  0  0  0  0  0  0  0  0  0
   -4.9223   -0.3922    2.1159 H   0  0  0  0  0  0  0  0  0  0  0  0
   -4.3764   -2.0690    2.2134 H   0  0  0  0  0  0  0  0  0  0  0  0
   -5.3323   -2.8243    0.3687 H   0  0  0  0  0  0  0  0  0  0  0  0
   -5.4387   -1.1763   -0.4614 H   0  0  0  0  0  0  0  0  0  0  0  0
   -7.0438   -0.6428    1.4373 H   0  0  0  0  0  0  0  0  0  0  0  0
   -8.0514   -3.0651    0.2212 H   0  0  0  0  0  0  0  0  0  0  0  0
   -7.5405   -1.6940   -0.8929 H   0  0  0  0  0  0  0  0  0  0  0  0
   -9.9444   -1.5301   -0.2152 H   0  0  0  0  0  0  0  0  0  0  0  0
   -9.4311   -1.5531    1.5130 H   0  0  0  0  0  0  0  0  0  0  0  0
   -9.6730    0.6193    0.9598 H   0  0  0  0  0  0  0  0  0  0  0  0
   -9.6832    0.7306   -1.3274 H   0  0  0  0  0  0  0  0  0  0  0  0
   -8.0605    0.0661   -1.4755 H   0  0  0  0  0  0  0  0  0  0  0  0
   -8.8486    2.6573   -0.0122 H   0  0  0  0  0  0  0  0  0  0  0  0
   -8.3576    2.5979   -1.7087 H   0  0  0  0  0  0  0  0  0  0  0  0
   -6.6457    3.3792    0.0264 H   0  0  0  0  0  0  0  0  0  0  0  0
   -6.6609    1.6603    0.6747 H   0  0  0  0  0  0  0  0  0  0  0  0
   -5.8282    0.9203   -1.4928 H   0  0  0  0  0  0  0  0  0  0  0  0
   -3.7938    2.1687   -1.6835 H   0  0  0  0  0  0  0  0  0  0  0  0
   -4.3890    3.3127   -0.4792 H   0  0  0  0  0  0  0  0  0  0  0  0
   -2.9664    2.0096    0.7210 H   0  0  0  0  0  0  0  0  0  0  0  0
   -4.5008    1.3041    1.2101 H   0  0  0  0  0  0  0  0  0  0  0  0
  1  2  2  0
  2  3  1  0
  3  4  1  0
  4  5  1  0
  5  6  1  0
  6  7  1  0
  7  8  1  0
  8  9  1  0
  9 10  1  0
 10 11  1  0
 11 12  1  0
 12 13  1  0
 13 14  1  0
 14 15  1  0
 15 16  1  0
 16 17  1  0
 17 18  1  0
  3 19  2  0
 19 20  1  0
 20 21  2  0
 21 22  1  0
 22 23  1  0
 23 24  1  0
 24 25  1  0
 25 26  1  0
 26 27  1  0
 27 28  1  0
 28 29  1  0
 29 30  1  0
 30 31  1  0
 31 32  1  0
 32 33  1  0
 33 34  1  0
 34 35  1  0
 35 36  1  0
 21  1  1  0
 36 23  1  0
 18  5  1  0
  1 37  1  0
  2 38  1  0
  4 39  1  0
  4 40  1  0
  6 41  1  0
  6 42  1  0
  7 43  1  0
  7 44  1  0
  8 45  1  0
  8 46  1  0
  9 47  1  0
 10 48  1  0
 10 49  1  0
 11 50  1  0
 11 51  1  0
 12 52  1  0
 13 53  1  0
 13 54  1  0
 14 55  1  0
 14 56  1  0
 15 57  1  0
 15 58  1  0
 16 59  1  0
 17 60  1  0
 17 61  1  0
 18 62  1  0
 18 63  1  0
 19 64  1  0
 20 65  1  0
 22 66  1  0
 22 67  1  0
 24 68  1  0
 24 69  1  0
 25 70  1  0
 25 71  1  0
 26 72  1  0
 26 73  1  0
 27 74  1  0
 28 75  1  0
 28 76  1  0
 29 77  1  0
 29 78  1  0
 30 79  1  0
 31 80  1  0
 31 81  1  0
 32 82  1  0
 32 83  1  0
 33 84  1  0
 33 85  1  0
 34 86  1  0
 35 87  1  0
 35 88  1  0
 36 89  1  0
 36 90  1  0
M  END
$$$$
