
     RDKit          3D

 65 68  0  0  0  0  0  0  0  0999 V2000
    5.0020    4.2988    1.4627 C   0  0  0  0  0  0  0  0  0  0  0  0
    3.9337    3.5592    0.6962 C   0  0  0  0  0  0  0  0  0  0  0  0
    4.5408    2.2359    0.2048 C   0  0  0  0  0  0  0  0  0  0  0  0
    3.6046    1.5015   -0.5046 O   0  0  0  0  0  0  0  0  0  0  0  0
    3.1724    0.2550   -0.1596 C   0  0  0  0  0  0  0  0  0  0  0  0
    3.6142   -0.4330    0.9469 C   0  0  0  0  0  0  0  0  0  0  0  0
    3.1674   -1.6991    1.2863 C   0  0  0  0  0  0  0  0  0  0  0  0
    2.2374   -2.3256    0.4996 C   0  0  0  0  0  0  0  0  0  0  0  0
    1.7687   -1.6672   -0.6211 C   0  0  0  0  0  0  0  0  0  0  0  0
    0.7683   -2.4063   -1.4383 C   0  0  0  0  0  0  0  0  0  0  0  0
   -0.5826   -2.2425   -0.8657 C   0  0  0  0  0  0  0  0  0  0  0  0
   -1.3828   -1.0987   -0.9957 C   0  0  0  0  0  0  0  0  0  0  0  0
   -1.0082    0.0955   -1.8123 C   0  0  0  0  0  0  0  0  0  0  0  0
   -2.5150   -1.3591   -0.3287 N   0  0  0  0  0  0  0  0  0  0  0  0
   -3.5998   -0.4880   -0.0898 C   0  0  0  0  0  0  0  0  0  0  0  0
   -4.6809   -1.0201    0.3647 O   0  0  0  0  0  0  0  0  0  0  0  0
   -3.6576    0.9466   -0.2891 C   0  0  0  0  0  0  0  0  0  0  0  0
   -4.8256    1.5309   -0.8151 C   0  0  0  0  0  0  0  0  0  0  0  0
   -4.9712    2.8907   -0.9405 C   0  0  0  0  0  0  0  0  0  0  0  0
   -3.9704    3.7525   -0.5533 C   0  0  0  0  0  0  0  0  0  0  0  0
   -4.0977    5.1192   -0.6720 O   0  0  0  0  0  0  0  0  0  0  0  0
   -3.0745    6.0076   -0.2763 C   0  0  0  0  0  0  0  0  0  0  0  0
   -2.8308    3.2002   -0.0402 C   0  0  0  0  0  0  0  0  0  0  0  0
   -2.6744    1.8268    0.0913 C   0  0  0  0  0  0  0  0  0  0  0  0
   -2.4411   -2.6284    0.2057 C   0  0  0  0  0  0  0  0  0  0  0  0
   -3.3270   -3.3635    0.9668 C   0  0  0  0  0  0  0  0  0  0  0  0
   -2.9949   -4.6623    1.3929 C   0  0  0  0  0  0  0  0  0  0  0  0
   -1.7841   -5.2202    1.0589 C   0  0  0  0  0  0  0  0  0  0  0  0
   -1.5074   -6.4995    1.5031 O   0  0  0  0  0  0  0  0  0  0  0  0
   -1.8736   -7.5966    0.6838 C   0  0  0  0  0  0  0  0  0  0  0  0
   -1.5403   -8.7972    1.2466 F   0  0  0  0  0  0  0  0  0  0  0  0
   -3.2577   -7.5764    0.4683 F   0  0  0  0  0  0  0  0  0  0  0  0
   -1.2927   -7.3942   -0.5454 F   0  0  0  0  0  0  0  0  0  0  0  0
   -0.9258   -4.4716    0.3053 C   0  0  0  0  0  0  0  0  0  0  0  0
   -1.2312   -3.1892   -0.1263 C   0  0  0  0  0  0  0  0  0  0  0  0
    2.2173   -0.4110   -0.9510 C   0  0  0  0  0  0  0  0  0  0  0  0
    5.6234    2.6235   -0.7313 C   0  0  0  0  0  0  0  0  0  0  0  0
    5.5473    2.2839   -1.9302 O   0  0  0  0  0  0  0  0  0  0  0  0
    6.7018    3.3523   -0.2737 O   0  0  0  0  0  0  0  0  0  0  0  0
    4.5810    4.8205    2.3578 H   0  0  0  0  0  0  0  0  0  0  0  0
    5.4884    5.0256    0.7830 H   0  0  0  0  0  0  0  0  0  0  0  0
    5.7772    3.6066    1.8401 H   0  0  0  0  0  0  0  0  0  0  0  0
    3.0704    3.3662    1.3662 H   0  0  0  0  0  0  0  0  0  0  0  0
    3.5737    4.1734   -0.1505 H   0  0  0  0  0  0  0  0  0  0  0  0
    4.9611    1.7737    1.1069 H   0  0  0  0  0  0  0  0  0  0  0  0
    4.3488   -0.0200    1.6296 H   0  0  0  0  0  0  0  0  0  0  0  0
    3.5248   -2.2273    2.1606 H   0  0  0  0  0  0  0  0  0  0  0  0
    1.8746   -3.3086    0.7416 H   0  0  0  0  0  0  0  0  0  0  0  0
    0.7983   -2.0659   -2.4953 H   0  0  0  0  0  0  0  0  0  0  0  0
    1.0628   -3.4719   -1.4504 H   0  0  0  0  0  0  0  0  0  0  0  0
   -0.4036    0.7922   -1.2534 H   0  0  0  0  0  0  0  0  0  0  0  0
   -1.9273    0.5122   -2.2443 H   0  0  0  0  0  0  0  0  0  0  0  0
   -0.3980   -0.3206   -2.6966 H   0  0  0  0  0  0  0  0  0  0  0  0
   -5.6056    0.8644   -1.1171 H   0  0  0  0  0  0  0  0  0  0  0  0
   -5.8668    3.3426   -1.3442 H   0  0  0  0  0  0  0  0  0  0  0  0
   -2.7451    5.7467    0.7661 H   0  0  0  0  0  0  0  0  0  0  0  0
   -2.2047    5.8269   -0.9510 H   0  0  0  0  0  0  0  0  0  0  0  0
   -3.4378    7.0468   -0.3008 H   0  0  0  0  0  0  0  0  0  0  0  0
   -2.0152    3.8420    0.2784 H   0  0  0  0  0  0  0  0  0  0  0  0
   -1.7610    1.4219    0.5363 H   0  0  0  0  0  0  0  0  0  0  0  0
   -4.2933   -2.9881    1.2674 H   0  0  0  0  0  0  0  0  0  0  0  0
   -3.7194   -5.2103    1.9913 H   0  0  0  0  0  0  0  0  0  0  0  0
    0.0204   -4.9000    0.0411 H   0  0  0  0  0  0  0  0  0  0  0  0
    1.8544    0.1002   -1.8301 H   0  0  0  0  0  0  0  0  0  0  0  0
    7.5901    3.3205   -0.7781 H   0  0  0  0  0  0  0  0  0  0  0  0
  1  2  1  0
  2  3  1  0
  3  4  1  0
  4  5  1  0
  5  6  2  0
  6  7  1  0
  7  8  2  0
  8  9  1  0
  9 10  1  0
 10 11  1  0
 11 12  2  0
 12 13  1  0
 12 14  1  0
 14 15  1  0
 15 16  2  0
 15 17  1  0
 17 18  2  0
 18 19  1  0
 19 20  2  0
 20 21  1  0
 21 22  1  0
 20 23  1  0
 23 24  2  0
 14 25  1  0
 25 26  2  0
 26 27  1  0
 27 28  2  0
 28 29  1  0
 29 30  1  0
 30 31  1  0
 30 32  1  0
 30 33  1  0
 28 34  1  0
 34 35  2  0
  9 36  2  0
  3 37  1  0
 37 38  2  0
 37 39  1  0
 36  5  1  0
 35 11  1  0
 24 17  1  0
 35 25  1  0
  1 40  1  0
  1 41  1  0
  1 42  1  0
  2 43  1  0
  2 44  1  0
  3 45  1  0
  6 46  1  0
  7 47  1  0
  8 48  1  0
 10 49  1  0
 10 50  1  0
 13 51  1  0
 13 52  1  0
 13 53  1  0
 18 54  1  0
 19 55  1  0
 22 56  1  0
 22 57  1  0
 22 58  1  0
 23 59  1  0
 24 60  1  0
 26 61  1  0
 27 62  1  0
 34 63  1  0
 36 64  1  0
 39 65  1  0
M  END
$$$$
