@<TRIPOS>MOLECULE
*****
 65 68 0 0 0
SMALL
GASTEIGER

@<TRIPOS>ATOM
      1 C           5.0020    4.2988    1.4627 C.3     1  UNL1       -0.0614
      2 C           3.9337    3.5592    0.6962 C.3     1  UNL1       -0.0080
      3 C           4.5408    2.2359    0.2048 C.3     1  UNL1        0.1956
      4 O           3.6046    1.5015   -0.5046 O.3     1  UNL1       -0.4776
      5 C           3.1724    0.2550   -0.1596 C.ar    1  UNL1        0.1220
      6 C           3.6142   -0.4330    0.9469 C.ar    1  UNL1       -0.0199
      7 C           3.1674   -1.6991    1.2863 C.ar    1  UNL1       -0.0580
      8 C           2.2374   -2.3256    0.4996 C.ar    1  UNL1       -0.0580
      9 C           1.7687   -1.6672   -0.6211 C.ar    1  UNL1       -0.0395
     10 C           0.7683   -2.4063   -1.4383 C.3     1  UNL1       -0.0000
     11 C          -0.5826   -2.2425   -0.8657 C.ar    1  UNL1       -0.0143
     12 C          -1.3828   -1.0987   -0.9957 C.ar    1  UNL1        0.0282
     13 C          -1.0082    0.0955   -1.8123 C.3     1  UNL1       -0.0235
     14 N          -2.5150   -1.3591   -0.3287 N.ar    1  UNL1       -0.2801
     15 C          -3.5998   -0.4880   -0.0898 C.2     1  UNL1        0.2631
     16 O          -4.6809   -1.0201    0.3647 O.2     1  UNL1       -0.2667
     17 C          -3.6576    0.9466   -0.2891 C.ar    1  UNL1        0.0401
     18 C          -4.8256    1.5309   -0.8151 C.ar    1  UNL1       -0.0460
     19 C          -4.9712    2.8907   -0.9405 C.ar    1  UNL1       -0.0192
     20 C          -3.9704    3.7525   -0.5533 C.ar    1  UNL1        0.1201
     21 O          -4.0977    5.1192   -0.6720 O.3     1  UNL1       -0.4951
     22 C          -3.0745    6.0076   -0.2763 C.3     1  UNL1        0.0788
     23 C          -2.8308    3.2002   -0.0402 C.ar    1  UNL1       -0.0192
     24 C          -2.6744    1.8268    0.0913 C.ar    1  UNL1       -0.0460
     25 C          -2.4411   -2.6284    0.2057 C.ar    1  UNL1        0.0574
     26 C          -3.3270   -3.3635    0.9668 C.ar    1  UNL1       -0.0337
     27 C          -2.9949   -4.6623    1.3929 C.ar    1  UNL1       -0.0176
     28 C          -1.7841   -5.2202    1.0589 C.ar    1  UNL1        0.1307
     29 O          -1.5074   -6.4995    1.5031 O.3     1  UNL1       -0.4057
     30 C          -1.8736   -7.5966    0.6838 C.3     1  UNL1        0.5752
     31 F          -1.5403   -8.7972    1.2466 F       1  UNL1       -0.1328
     32 F          -3.2577   -7.5764    0.4683 F       1  UNL1       -0.1328
     33 F          -1.2927   -7.3942   -0.5454 F       1  UNL1       -0.1328
     34 C          -0.9258   -4.4716    0.3053 C.ar    1  UNL1       -0.0102
     35 C          -1.2312   -3.1892   -0.1263 C.ar    1  UNL1        0.0075
     36 C           2.2173   -0.4110   -0.9510 C.ar    1  UNL1       -0.0164
     37 C           5.6234    2.6235   -0.7313 C.2     1  UNL1        0.3459
     38 O           5.5473    2.2839   -1.9302 O.2     1  UNL1       -0.2468
     39 O           6.7018    3.3523   -0.2737 O.3     1  UNL1       -0.4781
     40 H           4.5810    4.8205    2.3578 H       1  UNL1        0.0231
     41 H           5.4884    5.0256    0.7830 H       1  UNL1        0.0231
     42 H           5.7772    3.6066    1.8401 H       1  UNL1        0.0231
     43 H           3.0704    3.3662    1.3662 H       1  UNL1        0.0304
     44 H           3.5737    4.1734   -0.1505 H       1  UNL1        0.0304
     45 H           4.9611    1.7737    1.1069 H       1  UNL1        0.0851
     46 H           4.3488   -0.0200    1.6296 H       1  UNL1        0.0654
     47 H           3.5248   -2.2273    2.1606 H       1  UNL1        0.0619
     48 H           1.8746   -3.3086    0.7416 H       1  UNL1        0.0620
     49 H           0.7983   -2.0659   -2.4953 H       1  UNL1        0.0362
     50 H           1.0628   -3.4719   -1.4504 H       1  UNL1        0.0362
     51 H          -0.4036    0.7922   -1.2534 H       1  UNL1        0.0292
     52 H          -1.9273    0.5122   -2.2443 H       1  UNL1        0.0292
     53 H          -0.3980   -0.3206   -2.6966 H       1  UNL1        0.0292
     54 H          -5.6056    0.8644   -1.1171 H       1  UNL1        0.0626
     55 H          -5.8668    3.3426   -1.3442 H       1  UNL1        0.0654
     56 H          -2.7451    5.7467    0.7661 H       1  UNL1        0.0660
     57 H          -2.2047    5.8269   -0.9510 H       1  UNL1        0.0660
     58 H          -3.4378    7.0468   -0.3008 H       1  UNL1        0.0660
     59 H          -2.0152    3.8420    0.2784 H       1  UNL1        0.0654
     60 H          -1.7610    1.4219    0.5363 H       1  UNL1        0.0626
     61 H          -4.2933   -2.9881    1.2674 H       1  UNL1        0.0640
     62 H          -3.7194   -5.2103    1.9913 H       1  UNL1        0.0655
     63 H           0.0204   -4.9000    0.0411 H       1  UNL1        0.0661
     64 H           1.8544    0.1002   -1.8301 H       1  UNL1        0.0657
     65 H           7.5901    3.3205   -0.7781 H       1  UNL1        0.2952
@<TRIPOS>BOND
     1     1     2    1
     2     2     3    1
     3     3     4    1
     4     4     5    1
     5     5     6   ar
     6     6     7   ar
     7     7     8   ar
     8     8     9   ar
     9     9    10    1
    10    10    11    1
    11    11    12   ar
    12    12    13    1
    13    12    14   ar
    14    14    15   am
    15    15    16    2
    16    15    17    1
    17    17    18   ar
    18    18    19   ar
    19    19    20   ar
    20    20    21    1
    21    21    22    1
    22    20    23   ar
    23    23    24   ar
    24    14    25   ar
    25    25    26   ar
    26    26    27   ar
    27    27    28   ar
    28    28    29    1
    29    29    30    1
    30    30    31    1
    31    30    32    1
    32    30    33    1
    33    28    34   ar
    34    34    35   ar
    35     9    36   ar
    36     3    37    1
    37    37    38    2
    38    37    39    1
    39    36     5   ar
    40    35    11   ar
    41    24    17   ar
    42    35    25   ar
    43     1    40    1
    44     1    41    1
    45     1    42    1
    46     2    43    1
    47     2    44    1
    48     3    45    1
    49     6    46    1
    50     7    47    1
    51     8    48    1
    52    10    49    1
    53    10    50    1
    54    13    51    1
    55    13    52    1
    56    13    53    1
    57    18    54    1
    58    19    55    1
    59    22    56    1
    60    22    57    1
    61    22    58    1
    62    23    59    1
    63    24    60    1
    64    26    61    1
    65    27    62    1
    66    34    63    1
    67    36    64    1
    68    39    65    1
