@<TRIPOS>MOLECULE
*****
 56 60 0 0 0
SMALL
GASTEIGER

@<TRIPOS>ATOM
      1 C           1.9935   -4.1297    1.5920 C.3     1  UNL1       -0.0375
      2 C           2.0103   -2.8387    0.8758 C.ar    1  UNL1       -0.0200
      3 C           3.0867   -2.1822    0.2939 C.ar    1  UNL1        0.0179
      4 N           2.6855   -1.0342   -0.2576 N.ar    1  UNL1       -0.2721
      5 C           3.5228   -0.1049   -0.9512 C.2     1  UNL1        0.3208
      6 O           2.9526    0.9608   -1.4279 O.2     1  UNL1       -0.2490
      7 N           4.8943   -0.1759   -1.1972 N.am    1  UNL1       -0.2892
      8 C           5.5073    0.9494   -1.9536 C.3     1  UNL1        0.0045
      9 C           5.8225   -1.2102   -0.8122 C.3     1  UNL1        0.0045
     10 C           1.3545   -0.9045   -0.0556 C.ar    1  UNL1        0.0654
     11 C           0.9423   -2.0082    0.6347 C.ar    1  UNL1        0.0635
     12 C          -0.5130   -1.8462    0.7956 C.2     1  UNL1        0.2538
     13 O          -1.2332   -2.6841    1.3951 O.2     1  UNL1       -0.2695
     14 N          -0.9682   -0.6503    0.1974 N.am    1  UNL1       -0.2530
     15 C          -2.3170   -0.2130    0.0808 C.ar    1  UNL1        0.0545
     16 C          -2.9179    0.5265    1.0532 C.ar    1  UNL1       -0.0324
     17 C          -4.2417    0.9620    0.9422 C.ar    1  UNL1       -0.0041
     18 C          -4.8703    1.7636    2.0118 C.3     1  UNL1       -0.0361
     19 C          -4.9269    0.6168   -0.1919 C.ar    1  UNL1        0.1641
     20 N          -6.1836    0.8662   -0.6067 N.ar    1  UNL1       -0.1292
     21 N          -6.3951    0.3189   -1.7884 N.ar    1  UNL1       -0.1340
     22 C          -5.2772   -0.2965   -2.1621 C.ar    1  UNL1        0.1347
     23 C          -5.0082   -1.0575   -3.4084 C.3     1  UNL1       -0.0041
     24 N          -4.3540   -0.1232   -1.1848 N.ar    1  UNL1       -0.2846
     25 C          -3.0701   -0.5213   -1.0314 C.ar    1  UNL1        0.0344
     26 C           0.2189    0.0395   -0.2978 C.3     1  UNL1        0.0977
     27 C           0.3909    1.2768    0.5248 C.ar    1  UNL1       -0.0208
     28 C           0.5216    2.5053   -0.0777 C.ar    1  UNL1       -0.0550
     29 C           0.6910    3.6709    0.6288 C.ar    1  UNL1       -0.0431
     30 C           0.7342    3.6275    1.9973 C.ar    1  UNL1        0.0410
     31 CL          0.9495    5.1007    2.9215 Cl      1  UNL1       -0.0835
     32 C           0.6074    2.4197    2.6360 C.ar    1  UNL1       -0.0431
     33 C           0.4386    1.2662    1.9055 C.ar    1  UNL1       -0.0550
     34 H           1.5727   -4.9560    0.9729 H       1  UNL1        0.0278
     35 H           1.2788   -4.0275    2.4577 H       1  UNL1        0.0278
     36 H           2.9896   -4.3847    2.0100 H       1  UNL1        0.0278
     37 H           4.0736   -2.6504    0.3510 H       1  UNL1        0.0817
     38 H           6.4178    0.6394   -2.4624 H       1  UNL1        0.0429
     39 H           4.7554    1.2973   -2.6630 H       1  UNL1        0.0429
     40 H           5.7520    1.7391   -1.2303 H       1  UNL1        0.0429
     41 H           5.6232   -2.1961   -1.2670 H       1  UNL1        0.0429
     42 H           6.8590   -0.9485   -1.1882 H       1  UNL1        0.0429
     43 H           5.9056   -1.2734    0.3058 H       1  UNL1        0.0429
     44 H          -2.3883    0.7923    1.9348 H       1  UNL1        0.0640
     45 H          -5.6590    2.4321    1.6494 H       1  UNL1        0.0279
     46 H          -4.0510    2.3266    2.5400 H       1  UNL1        0.0279
     47 H          -5.2390    1.0331    2.7802 H       1  UNL1        0.0279
     48 H          -4.1961   -1.8127   -3.2436 H       1  UNL1        0.0308
     49 H          -5.8837   -1.6182   -3.7719 H       1  UNL1        0.0308
     50 H          -4.6091   -0.3514   -4.1847 H       1  UNL1        0.0308
     51 H          -2.6118   -1.1087   -1.8170 H       1  UNL1        0.0833
     52 H           0.1003    0.2902   -1.3551 H       1  UNL1        0.0620
     53 H           0.4874    2.5452   -1.1803 H       1  UNL1        0.0621
     54 H           0.7921    4.6261    0.1449 H       1  UNL1        0.0632
     55 H           0.6428    2.3981    3.7087 H       1  UNL1        0.0632
     56 H           0.3396    0.3177    2.4266 H       1  UNL1        0.0621
@<TRIPOS>BOND
     1     1     2    1
     2     2     3   ar
     3     3     4   ar
     4     4     5   am
     5     5     6    2
     6     5     7   am
     7     7     8    1
     8     7     9    1
     9     4    10   ar
    10    10    11   ar
    11    11    12    1
    12    12    13    2
    13    12    14   am
    14    14    15    1
    15    15    16   ar
    16    16    17   ar
    17    17    18    1
    18    17    19   ar
    19    19    20   ar
    20    20    21   ar
    21    21    22   ar
    22    22    23    1
    23    22    24   ar
    24    24    25   ar
    25    14    26    1
    26    26    27    1
    27    27    28   ar
    28    28    29   ar
    29    29    30   ar
    30    30    31    1
    31    30    32   ar
    32    32    33   ar
    33    11     2   ar
    34    25    15   ar
    35    33    27   ar
    36    26    10    1
    37    24    19   ar
    38     1    34    1
    39     1    35    1
    40     1    36    1
    41     3    37    1
    42     8    38    1
    43     8    39    1
    44     8    40    1
    45     9    41    1
    46     9    42    1
    47     9    43    1
    48    16    44    1
    49    18    45    1
    50    18    46    1
    51    18    47    1
    52    23    48    1
    53    23    49    1
    54    23    50    1
    55    25    51    1
    56    26    52    1
    57    28    53    1
    58    29    54    1
    59    32    55    1
    60    33    56    1
