
     RDKit          3D

 56 60  0  0  0  0  0  0  0  0999 V2000
    1.9935   -4.1297    1.5920 C   0  0  0  0  0  0  0  0  0  0  0  0
    2.0103   -2.8387    0.8758 C   0  0  0  0  0  0  0  0  0  0  0  0
    3.0867   -2.1822    0.2939 C   0  0  0  0  0  0  0  0  0  0  0  0
    2.6855   -1.0342   -0.2576 N   0  0  0  0  0  0  0  0  0  0  0  0
    3.5228   -0.1049   -0.9512 C   0  0  0  0  0  0  0  0  0  0  0  0
    2.9526    0.9608   -1.4279 O   0  0  0  0  0  0  0  0  0  0  0  0
    4.8943   -0.1759   -1.1972 N   0  0  0  0  0  0  0  0  0  0  0  0
    5.5073    0.9494   -1.9536 C   0  0  0  0  0  0  0  0  0  0  0  0
    5.8225   -1.2102   -0.8122 C   0  0  0  0  0  0  0  0  0  0  0  0
    1.3545   -0.9045   -0.0556 C   0  0  0  0  0  0  0  0  0  0  0  0
    0.9423   -2.0082    0.6347 C   0  0  0  0  0  0  0  0  0  0  0  0
   -0.5130   -1.8462    0.7956 C   0  0  0  0  0  0  0  0  0  0  0  0
   -1.2332   -2.6841    1.3951 O   0  0  0  0  0  0  0  0  0  0  0  0
   -0.9682   -0.6503    0.1974 N   0  0  0  0  0  0  0  0  0  0  0  0
   -2.3170   -0.2130    0.0808 C   0  0  0  0  0  0  0  0  0  0  0  0
   -2.9179    0.5265    1.0532 C   0  0  0  0  0  0  0  0  0  0  0  0
   -4.2417    0.9620    0.9422 C   0  0  0  0  0  0  0  0  0  0  0  0
   -4.8703    1.7636    2.0118 C   0  0  0  0  0  0  0  0  0  0  0  0
   -4.9269    0.6168   -0.1919 C   0  0  0  0  0  0  0  0  0  0  0  0
   -6.1836    0.8662   -0.6067 N   0  0  0  0  0  0  0  0  0  0  0  0
   -6.3951    0.3189   -1.7884 N   0  0  0  0  0  0  0  0  0  0  0  0
   -5.2772   -0.2965   -2.1621 C   0  0  0  0  0  0  0  0  0  0  0  0
   -5.0082   -1.0575   -3.4084 C   0  0  0  0  0  0  0  0  0  0  0  0
   -4.3540   -0.1232   -1.1848 N   0  0  0  0  0  0  0  0  0  0  0  0
   -3.0701   -0.5213   -1.0314 C   0  0  0  0  0  0  0  0  0  0  0  0
    0.2189    0.0395   -0.2978 C   0  0  0  0  0  0  0  0  0  0  0  0
    0.3909    1.2768    0.5248 C   0  0  0  0  0  0  0  0  0  0  0  0
    0.5216    2.5053   -0.0777 C   0  0  0  0  0  0  0  0  0  0  0  0
    0.6910    3.6709    0.6288 C   0  0  0  0  0  0  0  0  0  0  0  0
    0.7342    3.6275    1.9973 C   0  0  0  0  0  0  0  0  0  0  0  0
    0.9495    5.1007    2.9215 Cl  0  0  0  0  0  0  0  0  0  0  0  0
    0.6074    2.4197    2.6360 C   0  0  0  0  0  0  0  0  0  0  0  0
    0.4386    1.2662    1.9055 C   0  0  0  0  0  0  0  0  0  0  0  0
    1.5727   -4.9560    0.9729 H   0  0  0  0  0  0  0  0  0  0  0  0
    1.2788   -4.0275    2.4577 H   0  0  0  0  0  0  0  0  0  0  0  0
    2.9896   -4.3847    2.0100 H   0  0  0  0  0  0  0  0  0  0  0  0
    4.0736   -2.6504    0.3510 H   0  0  0  0  0  0  0  0  0  0  0  0
    6.4178    0.6394   -2.4624 H   0  0  0  0  0  0  0  0  0  0  0  0
    4.7554    1.2973   -2.6630 H   0  0  0  0  0  0  0  0  0  0  0  0
    5.7520    1.7391   -1.2303 H   0  0  0  0  0  0  0  0  0  0  0  0
    5.6232   -2.1961   -1.2670 H   0  0  0  0  0  0  0  0  0  0  0  0
    6.8590   -0.9485   -1.1882 H   0  0  0  0  0  0  0  0  0  0  0  0
    5.9056   -1.2734    0.3058 H   0  0  0  0  0  0  0  0  0  0  0  0
   -2.3883    0.7923    1.9348 H   0  0  0  0  0  0  0  0  0  0  0  0
   -5.6590    2.4321    1.6494 H   0  0  0  0  0  0  0  0  0  0  0  0
   -4.0510    2.3266    2.5400 H   0  0  0  0  0  0  0  0  0  0  0  0
   -5.2390    1.0331    2.7802 H   0  0  0  0  0  0  0  0  0  0  0  0
   -4.1961   -1.8127   -3.2436 H   0  0  0  0  0  0  0  0  0  0  0  0
   -5.8837   -1.6182   -3.7719 H   0  0  0  0  0  0  0  0  0  0  0  0
   -4.6091   -0.3514   -4.1847 H   0  0  0  0  0  0  0  0  0  0  0  0
   -2.6118   -1.1087   -1.8170 H   0  0  0  0  0  0  0  0  0  0  0  0
    0.1003    0.2902   -1.3551 H   0  0  0  0  0  0  0  0  0  0  0  0
    0.4874    2.5452   -1.1803 H   0  0  0  0  0  0  0  0  0  0  0  0
    0.7921    4.6261    0.1449 H   0  0  0  0  0  0  0  0  0  0  0  0
    0.6428    2.3981    3.7087 H   0  0  0  0  0  0  0  0  0  0  0  0
    0.3396    0.3177    2.4266 H   0  0  0  0  0  0  0  0  0  0  0  0
  1  2  1  0
  2  3  2  0
  3  4  1  0
  4  5  1  0
  5  6  2  0
  5  7  1  0
  7  8  1  0
  7  9  1  0
  4 10  1  0
 10 11  2  0
 11 12  1  0
 12 13  2  0
 12 14  1  0
 14 15  1  0
 15 16  1  0
 16 17  2  0
 17 18  1  0
 17 19  1  0
 19 20  2  0
 20 21  1  0
 21 22  2  0
 22 23  1  0
 22 24  1  0
 24 25  1  0
 14 26  1  0
 26 27  1  0
 27 28  2  0
 28 29  1  0
 29 30  2  0
 30 31  1  0
 30 32  1  0
 32 33  2  0
 11  2  1  0
 25 15  2  0
 33 27  1  0
 26 10  1  0
 24 19  1  0
  1 34  1  0
  1 35  1  0
  1 36  1  0
  3 37  1  0
  8 38  1  0
  8 39  1  0
  8 40  1  0
  9 41  1  0
  9 42  1  0
  9 43  1  0
 16 44  1  0
 18 45  1  0
 18 46  1  0
 18 47  1  0
 23 48  1  0
 23 49  1  0
 23 50  1  0
 25 51  1  0
 26 52  1  0
 28 53  1  0
 29 54  1  0
 32 55  1  0
 33 56  1  0
M  END
$$$$
