@<TRIPOS>MOLECULE
*****
 53 57 0 0 0
SMALL
GASTEIGER

@<TRIPOS>ATOM
      1 C           8.2857   -1.0827    2.0084 C.3     1  UNL1        0.0805
      2 O           6.9209   -1.1848    2.3363 O.3     1  UNL1       -0.4786
      3 C           5.9236   -1.1530    1.3423 C.ar    1  UNL1        0.2338
      4 C           4.5915   -1.2542    1.6801 C.ar    1  UNL1        0.0899
      5 N           3.6077   -1.2281    0.7602 N.ar    1  UNL1       -0.2447
      6 C           3.9262   -1.0977   -0.5537 C.ar    1  UNL1        0.1293
      7 C           2.9261   -1.0699   -1.5026 C.ar    1  UNL1        0.1506
      8 N           1.5526   -1.1716   -1.1871 N.pl3   1  UNL1       -0.2977
      9 C           0.7916   -0.0026   -0.9196 C.ar    1  UNL1        0.0330
     10 C           1.4320    1.2236   -0.9761 C.ar    1  UNL1       -0.0378
     11 C           0.7294    2.3767   -0.7238 C.ar    1  UNL1       -0.0243
     12 C          -0.6334    2.2902   -0.4115 C.ar    1  UNL1        0.1312
     13 F          -1.2628    3.4845   -0.1958 F       1  UNL1       -0.2050
     14 C          -1.2933    1.0887   -0.3477 C.ar    1  UNL1        0.0450
     15 C          -2.7355    1.0085    0.0061 C.3     1  UNL1        0.2272
     16 C          -3.5225    1.7896   -1.0147 C.3     1  UNL1       -0.0082
     17 N          -3.0972   -0.4091   -0.0541 N.2     1  UNL1       -0.0696
     18 C          -4.2413   -0.8702    0.2474 C.2     1  UNL1        0.3075
     19 N          -4.4771   -2.2648    0.1502 N.pl3   1  UNL1       -0.2488
     20 C          -5.3296    0.0105    0.6998 C.3     1  UNL1        0.1919
     21 C          -6.6300   -0.6046    1.1184 C.3     1  UNL1       -0.0138
     22 C          -6.5404    0.2623   -0.0810 C.3     1  UNL1       -0.0138
     23 S          -4.6999    1.2189    1.8447 S.O2    1  UNL1        0.0220
     24 O          -5.4596    2.4942    1.7823 O.2     1  UNL1       -0.1703
     25 O          -4.7358    0.6134    3.2189 O.2     1  UNL1       -0.1703
     26 C          -2.9745    1.4748    1.4207 C.3     1  UNL1        0.2674
     27 F          -2.7215    2.7848    1.6347 F       1  UNL1       -0.2156
     28 C          -0.5419   -0.0383   -0.6098 C.ar    1  UNL1       -0.0300
     29 N           3.2834   -0.9394   -2.7922 N.ar    1  UNL1       -0.2379
     30 C           4.5670   -0.8364   -3.1821 C.ar    1  UNL1        0.0318
     31 C           5.5598   -0.8643   -2.2357 C.ar    1  UNL1       -0.0158
     32 C           5.2636   -0.9968   -0.8855 C.ar    1  UNL1        0.0978
     33 N           6.2447   -1.0230    0.0351 N.ar    1  UNL1       -0.2099
     34 H           8.8646   -1.9722    2.3558 H       1  UNL1        0.0660
     35 H           8.7014   -0.1836    2.5212 H       1  UNL1        0.0660
     36 H           8.4485   -1.0185    0.9046 H       1  UNL1        0.0660
     37 H           4.3841   -1.3581    2.7568 H       1  UNL1        0.0884
     38 H           1.0776   -2.0945   -1.1451 H       1  UNL1        0.1536
     39 H           2.5071    1.2705   -1.2241 H       1  UNL1        0.0637
     40 H           1.2160    3.3408   -0.7643 H       1  UNL1        0.0647
     41 H          -2.9191    2.5824   -1.5132 H       1  UNL1        0.0280
     42 H          -3.9204    1.1455   -1.8268 H       1  UNL1        0.0280
     43 H          -4.3363    2.3210   -0.4732 H       1  UNL1        0.0280
     44 H          -5.1456   -2.7699    0.7758 H       1  UNL1        0.2881
     45 H          -3.9917   -2.8721   -0.5585 H       1  UNL1        0.2881
     46 H          -7.2088   -0.1782    1.9678 H       1  UNL1        0.0293
     47 H          -6.8530   -1.6643    0.9270 H       1  UNL1        0.0293
     48 H          -7.0049    1.2721   -0.0431 H       1  UNL1        0.0293
     49 H          -6.6239   -0.1868   -1.1032 H       1  UNL1        0.0293
     50 H          -2.3334    0.8474    2.0758 H       1  UNL1        0.0951
     51 H          -1.0402   -0.9943   -0.5659 H       1  UNL1        0.0641
     52 H           4.8577   -0.7311   -4.2213 H       1  UNL1        0.0831
     53 H           6.6114   -0.7852   -2.4937 H       1  UNL1        0.0655
@<TRIPOS>BOND
     1     1     2    1
     2     2     3    1
     3     3     4   ar
     4     4     5   ar
     5     5     6   ar
     6     6     7   ar
     7     7     8    1
     8     8     9    1
     9     9    10   ar
    10    10    11   ar
    11    11    12   ar
    12    12    13    1
    13    12    14   ar
    14    14    15    1
    15    15    16    1
    16    15    17    1
    17    17    18    2
    18    18    19    1
    19    18    20    1
    20    20    21    1
    21    21    22    1
    22    20    23    1
    23    23    24    2
    24    23    25    2
    25    23    26    1
    26    26    27    1
    27    14    28   ar
    28     7    29   ar
    29    29    30   ar
    30    30    31   ar
    31    31    32   ar
    32    32    33   ar
    33    33     3   ar
    34    32     6   ar
    35    28     9   ar
    36    26    15    1
    37    22    20    1
    38     1    34    1
    39     1    35    1
    40     1    36    1
    41     4    37    1
    42     8    38    1
    43    10    39    1
    44    11    40    1
    45    16    41    1
    46    16    42    1
    47    16    43    1
    48    19    44    1
    49    19    45    1
    50    21    46    1
    51    21    47    1
    52    22    48    1
    53    22    49    1
    54    26    50    1
    55    28    51    1
    56    30    52    1
    57    31    53    1
