@<TRIPOS>MOLECULE
*****
 52 54 0 0 0
SMALL
GASTEIGER

@<TRIPOS>ATOM
      1 C          -0.2236   -3.4173   -1.1909 C.3     1  UNL1       -0.0612
      2 C          -0.4533   -2.1574   -1.9604 C.3     1  UNL1       -0.0273
      3 C          -1.4279   -1.2241   -1.3671 C.ar    1  UNL1       -0.0084
      4 C          -2.7240   -1.3123   -1.8730 C.ar    1  UNL1        0.0332
      5 N          -3.6992   -0.5088   -1.4462 N.ar    1  UNL1       -0.2545
      6 C          -3.4830    0.4424   -0.4924 C.ar    1  UNL1        0.0755
      7 C          -4.6011    1.2816   -0.0826 C.ar    1  UNL1        0.0369
      8 C          -4.4666    2.2488    0.8703 C.ar    1  UNL1       -0.0314
      9 C          -5.5822    3.0162    1.2114 C.ar    1  UNL1        0.0418
     10 CL         -5.4088    4.2449    2.4237 Cl      1  UNL1       -0.0835
     11 C          -6.8014    2.8098    0.6038 C.ar    1  UNL1       -0.0406
     12 C          -6.9562    1.8406   -0.3579 C.ar    1  UNL1       -0.0244
     13 C          -5.8472    1.0962   -0.6796 C.ar    1  UNL1        0.1326
     14 F          -5.9980    0.1389   -1.6284 F       1  UNL1       -0.2048
     15 C          -2.2208    0.5417    0.0136 C.ar    1  UNL1       -0.0142
     16 C          -1.1963   -0.2873   -0.4199 C.ar    1  UNL1        0.0380
     17 N           0.1335   -0.0445    0.0818 N.pl3   1  UNL1       -0.3135
     18 C           0.7734   -0.8833    1.0329 C.ar    1  UNL1        0.0465
     19 C          -0.0300   -1.8818    1.6493 C.ar    1  UNL1       -0.0217
     20 C           0.5942   -2.6679    2.5733 C.ar    1  UNL1        0.0293
     21 N           1.8866   -2.5196    2.8908 N.ar    1  UNL1       -0.2624
     22 C           2.6597   -1.5743    2.3101 C.ar    1  UNL1        0.0415
     23 C           2.0977   -0.7273    1.3525 C.ar    1  UNL1        0.0758
     24 C           2.9462    0.2507    0.6713 C.2     1  UNL1        0.2474
     25 O           2.5785    0.8616   -0.3571 O.2     1  UNL1       -0.2701
     26 N           4.2463    0.5587    1.1550 N.am    1  UNL1       -0.3088
     27 C           5.2039    1.4571    0.6177 C.3     1  UNL1        0.0377
     28 C           5.7722    1.1965   -0.7252 C.3     1  UNL1        0.0679
     29 C           4.9049    1.5396   -1.8745 C.3     1  UNL1       -0.0375
     30 O           6.3803   -0.0638   -0.8222 O.3     1  UNL1       -0.3905
     31 H          -0.2829   -4.3272   -1.8438 H       1  UNL1        0.0233
     32 H           0.7424   -3.4100   -0.6286 H       1  UNL1        0.0233
     33 H          -1.0279   -3.5473   -0.4398 H       1  UNL1        0.0233
     34 H           0.5166   -1.6333   -2.1935 H       1  UNL1        0.0312
     35 H          -0.8240   -2.4620   -2.9684 H       1  UNL1        0.0312
     36 H          -2.9397   -2.0708   -2.6465 H       1  UNL1        0.0833
     37 H          -3.5407    2.4391    1.3636 H       1  UNL1        0.0639
     38 H          -7.6828    3.3945    0.8526 H       1  UNL1        0.0633
     39 H          -7.9180    1.6747   -0.8402 H       1  UNL1        0.0647
     40 H          -2.0036    1.2962    0.7852 H       1  UNL1        0.0658
     41 H           0.5628    0.8106   -0.3013 H       1  UNL1        0.1522
     42 H          -1.0638   -1.9625    1.3611 H       1  UNL1        0.0651
     43 H           0.0403   -3.4427    3.0764 H       1  UNL1        0.0830
     44 H           3.6906   -1.4709    2.5622 H       1  UNL1        0.0838
     45 H           4.5179    0.0415    2.0589 H       1  UNL1        0.1491
     46 H           4.8330    2.5392    0.6844 H       1  UNL1        0.0487
     47 H           6.0939    1.4859    1.3280 H       1  UNL1        0.0487
     48 H           6.7046    1.8920   -0.8644 H       1  UNL1        0.0606
     49 H           5.5721    1.9114   -2.7402 H       1  UNL1        0.0255
     50 H           4.2360    2.4020   -1.7123 H       1  UNL1        0.0255
     51 H           4.3510    0.6579   -2.2901 H       1  UNL1        0.0255
     52 H           6.3643   -0.4735    0.0678 H       1  UNL1        0.2098
@<TRIPOS>BOND
     1     1     2    1
     2     2     3    1
     3     3     4   ar
     4     4     5   ar
     5     5     6   ar
     6     6     7    1
     7     7     8   ar
     8     8     9   ar
     9     9    10    1
    10     9    11   ar
    11    11    12   ar
    12    12    13   ar
    13    13    14    1
    14     6    15   ar
    15    15    16   ar
    16    16    17    1
    17    17    18    1
    18    18    19   ar
    19    19    20   ar
    20    20    21   ar
    21    21    22   ar
    22    22    23   ar
    23    23    24    1
    24    24    25    2
    25    24    26   am
    26    26    27    1
    27    27    28    1
    28    28    29    1
    29    28    30    1
    30    16     3   ar
    31    23    18   ar
    32    13     7   ar
    33     1    31    1
    34     1    32    1
    35     1    33    1
    36     2    34    1
    37     2    35    1
    38     4    36    1
    39     8    37    1
    40    11    38    1
    41    12    39    1
    42    15    40    1
    43    17    41    1
    44    19    42    1
    45    20    43    1
    46    22    44    1
    47    26    45    1
    48    27    46    1
    49    27    47    1
    50    28    48    1
    51    29    49    1
    52    29    50    1
    53    29    51    1
    54    30    52    1
