
     RDKit          3D

 52 54  0  0  0  0  0  0  0  0999 V2000
   -0.2236   -3.4173   -1.1909 C   0  0  0  0  0  0  0  0  0  0  0  0
   -0.4533   -2.1574   -1.9604 C   0  0  0  0  0  0  0  0  0  0  0  0
   -1.4279   -1.2241   -1.3671 C   0  0  0  0  0  0  0  0  0  0  0  0
   -2.7240   -1.3123   -1.8730 C   0  0  0  0  0  0  0  0  0  0  0  0
   -3.6992   -0.5088   -1.4462 N   0  0  0  0  0  0  0  0  0  0  0  0
   -3.4830    0.4424   -0.4924 C   0  0  0  0  0  0  0  0  0  0  0  0
   -4.6011    1.2816   -0.0826 C   0  0  0  0  0  0  0  0  0  0  0  0
   -4.4666    2.2488    0.8703 C   0  0  0  0  0  0  0  0  0  0  0  0
   -5.5822    3.0162    1.2114 C   0  0  0  0  0  0  0  0  0  0  0  0
   -5.4088    4.2449    2.4237 Cl  0  0  0  0  0  0  0  0  0  0  0  0
   -6.8014    2.8098    0.6038 C   0  0  0  0  0  0  0  0  0  0  0  0
   -6.9562    1.8406   -0.3579 C   0  0  0  0  0  0  0  0  0  0  0  0
   -5.8472    1.0962   -0.6796 C   0  0  0  0  0  0  0  0  0  0  0  0
   -5.9980    0.1389   -1.6284 F   0  0  0  0  0  0  0  0  0  0  0  0
   -2.2208    0.5417    0.0136 C   0  0  0  0  0  0  0  0  0  0  0  0
   -1.1963   -0.2873   -0.4199 C   0  0  0  0  0  0  0  0  0  0  0  0
    0.1335   -0.0445    0.0818 N   0  0  0  0  0  0  0  0  0  0  0  0
    0.7734   -0.8833    1.0329 C   0  0  0  0  0  0  0  0  0  0  0  0
   -0.0300   -1.8818    1.6493 C   0  0  0  0  0  0  0  0  0  0  0  0
    0.5942   -2.6679    2.5733 C   0  0  0  0  0  0  0  0  0  0  0  0
    1.8866   -2.5196    2.8908 N   0  0  0  0  0  0  0  0  0  0  0  0
    2.6597   -1.5743    2.3101 C   0  0  0  0  0  0  0  0  0  0  0  0
    2.0977   -0.7273    1.3525 C   0  0  0  0  0  0  0  0  0  0  0  0
    2.9462    0.2507    0.6713 C   0  0  0  0  0  0  0  0  0  0  0  0
    2.5785    0.8616   -0.3571 O   0  0  0  0  0  0  0  0  0  0  0  0
    4.2463    0.5587    1.1550 N   0  0  0  0  0  0  0  0  0  0  0  0
    5.2039    1.4571    0.6177 C   0  0  0  0  0  0  0  0  0  0  0  0
    5.7722    1.1965   -0.7252 C   0  0  2  0  0  0  0  0  0  0  0  0
    4.9049    1.5396   -1.8745 C   0  0  0  0  0  0  0  0  0  0  0  0
    6.3803   -0.0638   -0.8222 O   0  0  0  0  0  0  0  0  0  0  0  0
   -0.2829   -4.3272   -1.8438 H   0  0  0  0  0  0  0  0  0  0  0  0
    0.7424   -3.4100   -0.6286 H   0  0  0  0  0  0  0  0  0  0  0  0
   -1.0279   -3.5473   -0.4398 H   0  0  0  0  0  0  0  0  0  0  0  0
    0.5166   -1.6333   -2.1935 H   0  0  0  0  0  0  0  0  0  0  0  0
   -0.8240   -2.4620   -2.9684 H   0  0  0  0  0  0  0  0  0  0  0  0
   -2.9397   -2.0708   -2.6465 H   0  0  0  0  0  0  0  0  0  0  0  0
   -3.5407    2.4391    1.3636 H   0  0  0  0  0  0  0  0  0  0  0  0
   -7.6828    3.3945    0.8526 H   0  0  0  0  0  0  0  0  0  0  0  0
   -7.9180    1.6747   -0.8402 H   0  0  0  0  0  0  0  0  0  0  0  0
   -2.0036    1.2962    0.7852 H   0  0  0  0  0  0  0  0  0  0  0  0
    0.5628    0.8106   -0.3013 H   0  0  0  0  0  0  0  0  0  0  0  0
   -1.0638   -1.9625    1.3611 H   0  0  0  0  0  0  0  0  0  0  0  0
    0.0403   -3.4427    3.0764 H   0  0  0  0  0  0  0  0  0  0  0  0
    3.6906   -1.4709    2.5622 H   0  0  0  0  0  0  0  0  0  0  0  0
    4.5179    0.0415    2.0589 H   0  0  0  0  0  0  0  0  0  0  0  0
    4.8330    2.5392    0.6844 H   0  0  0  0  0  0  0  0  0  0  0  0
    6.0939    1.4859    1.3280 H   0  0  0  0  0  0  0  0  0  0  0  0
    6.7046    1.8920   -0.8644 H   0  0  0  0  0  0  0  0  0  0  0  0
    5.5721    1.9114   -2.7402 H   0  0  0  0  0  0  0  0  0  0  0  0
    4.2360    2.4020   -1.7123 H   0  0  0  0  0  0  0  0  0  0  0  0
    4.3510    0.6579   -2.2901 H   0  0  0  0  0  0  0  0  0  0  0  0
    6.3643   -0.4735    0.0678 H   0  0  0  0  0  0  0  0  0  0  0  0
  1  2  1  0
  2  3  1  0
  3  4  2  0
  4  5  1  0
  5  6  2  0
  6  7  1  0
  7  8  2  0
  8  9  1  0
  9 10  1  0
  9 11  2  0
 11 12  1  0
 12 13  2  0
 13 14  1  0
  6 15  1  0
 15 16  2  0
 16 17  1  0
 17 18  1  0
 18 19  2  0
 19 20  1  0
 20 21  2  0
 21 22  1  0
 22 23  2  0
 23 24  1  0
 24 25  2  0
 24 26  1  0
 26 27  1  0
 27 28  1  0
 28 29  1  0
 28 30  1  0
 16  3  1  0
 23 18  1  0
 13  7  1  0
  1 31  1  0
  1 32  1  0
  1 33  1  0
  2 34  1  0
  2 35  1  0
  4 36  1  0
  8 37  1  0
 11 38  1  0
 12 39  1  0
 15 40  1  0
 17 41  1  0
 19 42  1  0
 20 43  1  0
 22 44  1  0
 26 45  1  0
 27 46  1  0
 27 47  1  0
 28 48  1  6
 29 49  1  0
 29 50  1  0
 29 51  1  0
 30 52  1  0
M  END
$$$$
