
     RDKit          3D

 35 36  0  0  0  0  0  0  0  0999 V2000
   -1.7248    2.1874    2.0951 C   0  0  0  0  0  0  0  0  0  0  0  0
   -1.0184    2.4379    0.7781 C   0  0  0  0  0  0  0  0  0  0  0  0
   -1.4069    1.5353   -0.2459 N   0  0  0  0  0  0  0  0  0  0  0  0
   -1.0055    0.1637   -0.0904 C   0  0  1  0  0  0  0  0  0  0  0  0
   -1.7337   -0.6211   -1.1276 C   0  0  0  0  0  0  0  0  0  0  0  0
   -1.8745   -2.0700   -0.8793 C   0  0  2  0  0  0  0  0  0  0  0  0
   -3.2560   -2.3773   -0.3487 C   0  0  0  0  0  0  0  0  0  0  0  0
   -0.6288   -2.4973    0.3407 S   0  0  0  0  0  0  0  0  0  0  0  0
   -0.1382   -3.8985    0.1162 O   0  0  0  0  0  0  0  0  0  0  0  0
   -1.1250   -2.3056    1.7216 O   0  0  0  0  0  0  0  0  0  0  0  0
    0.7007   -1.3552    0.0359 C   0  0  0  0  0  0  0  0  0  0  0  0
    0.4534    0.0674   -0.1944 C   0  0  0  0  0  0  0  0  0  0  0  0
    1.5923    0.7756   -0.4175 C   0  0  0  0  0  0  0  0  0  0  0  0
    2.8228    0.1931   -0.4197 C   0  0  0  0  0  0  0  0  0  0  0  0
    2.5479   -1.5403   -0.0891 S   0  0  0  0  0  0  0  0  0  0  0  0
    4.3955    0.8380   -0.6722 S   0  0  0  0  0  0  0  0  0  0  0  0
    5.3621    0.5505    0.7152 N   0  0  0  0  0  0  0  0  0  0  0  0
    5.0072    0.0873   -1.8442 O   0  0  0  0  0  0  0  0  0  0  0  0
    4.2783    2.2950   -1.0164 O   0  0  0  0  0  0  0  0  0  0  0  0
   -1.0728    1.5624    2.7336 H   0  0  0  0  0  0  0  0  0  0  0  0
   -2.7390    1.7758    1.9877 H   0  0  0  0  0  0  0  0  0  0  0  0
   -1.8051    3.1848    2.6075 H   0  0  0  0  0  0  0  0  0  0  0  0
    0.0361    2.5415    1.0051 H   0  0  0  0  0  0  0  0  0  0  0  0
   -1.3619    3.4562    0.4240 H   0  0  0  0  0  0  0  0  0  0  0  0
   -1.1070    1.9677   -1.1639 H   0  0  0  0  0  0  0  0  0  0  0  0
   -1.3035   -0.1296    0.9361 H   0  0  0  0  0  0  0  0  0  0  0  0
   -2.7682   -0.1824   -1.1758 H   0  0  0  0  0  0  0  0  0  0  0  0
   -1.3117   -0.4674   -2.1403 H   0  0  0  0  0  0  0  0  0  0  0  0
   -1.6489   -2.6370   -1.8036 H   0  0  0  0  0  0  0  0  0  0  0  0
   -3.9268   -1.5844   -0.6729 H   0  0  0  0  0  0  0  0  0  0  0  0
   -3.5814   -3.3379   -0.7931 H   0  0  0  0  0  0  0  0  0  0  0  0
   -3.2191   -2.5414    0.7479 H   0  0  0  0  0  0  0  0  0  0  0  0
    1.5605    1.8369   -0.6042 H   0  0  0  0  0  0  0  0  0  0  0  0
    4.8020    0.1419    1.4982 H   0  0  0  0  0  0  0  0  0  0  0  0
    6.1984   -0.0531    0.4723 H   0  0  0  0  0  0  0  0  0  0  0  0
  1  2  1  0
  2  3  1  0
  3  4  1  0
  4  5  1  0
  5  6  1  0
  6  7  1  0
  6  8  1  0
  8  9  2  0
  8 10  2  0
  8 11  1  0
 11 12  2  0
 12 13  1  0
 13 14  2  0
 14 15  1  0
 14 16  1  0
 16 17  1  0
 16 18  2  0
 16 19  2  0
 12  4  1  0
 15 11  1  0
  1 20  1  0
  1 21  1  0
  1 22  1  0
  2 23  1  0
  2 24  1  0
  3 25  1  0
  4 26  1  1
  5 27  1  0
  5 28  1  0
  6 29  1  6
  7 30  1  0
  7 31  1  0
  7 32  1  0
 13 33  1  0
 17 34  1  0
 17 35  1  0
M  END
$$$$
