@<TRIPOS>MOLECULE
*****
 53 55 0 0 0
SMALL
GASTEIGER

@<TRIPOS>ATOM
      1 C           1.4946   -2.0182    1.5950 C.3     1  UNL1       -0.0620
      2 C           1.6093   -1.8167    0.1288 C.3     1  UNL1       -0.0353
      3 C           1.3279   -3.1317   -0.5736 C.3     1  UNL1       -0.0620
      4 C           0.8313   -0.7040   -0.4693 C.3     1  UNL1        0.0418
      5 C           1.2503    0.6292    0.1352 C.3     1  UNL1       -0.0163
      6 C           2.6937    0.9217   -0.1117 C.ar    1  UNL1       -0.0466
      7 C           3.0283    1.5847   -1.2796 C.ar    1  UNL1       -0.0580
      8 C           4.3475    1.8707   -1.5283 C.ar    1  UNL1       -0.0499
      9 C           5.3643    1.5341   -0.6776 C.ar    1  UNL1        0.0548
     10 C           6.7721    1.8618   -0.9852 C.3     1  UNL1        0.4174
     11 F           6.9536    1.9121   -2.3448 F       1  UNL1       -0.1659
     12 F           7.0155    3.1297   -0.4600 F       1  UNL1       -0.1659
     13 F           7.5969    0.9149   -0.4009 F       1  UNL1       -0.1659
     14 C           5.0307    0.8734    0.4863 C.ar    1  UNL1       -0.0499
     15 C           3.6924    0.5722    0.7594 C.ar    1  UNL1       -0.0580
     16 C          -0.6331   -0.8613   -0.4672 C.2     1  UNL1        0.2167
     17 O          -1.2019   -0.9686   -1.5923 O.2     1  UNL1       -0.2755
     18 N          -1.3546   -0.8878    0.7451 N.am    1  UNL1       -0.3125
     19 C          -2.7563   -1.0126    0.8117 C.3     1  UNL1        0.0418
     20 C          -3.6424    0.0635    0.3376 C.3     1  UNL1        0.1305
     21 C          -3.5629    0.5328   -1.0642 C.3     1  UNL1       -0.0096
     22 C          -4.7359    1.5077   -1.3900 C.3     1  UNL1       -0.0474
     23 C          -4.4795    0.2046   -2.1423 C.3     1  UNL1       -0.0474
     24 N          -5.0198   -0.3851    0.5581 N.am    1  UNL1       -0.2834
     25 C          -5.4079    0.0229    1.8479 C.2     1  UNL1        0.3068
     26 O          -6.3946   -0.4519    2.4974 O.2     1  UNL1       -0.2524
     27 N          -4.5079    1.0408    2.2724 N.am    1  UNL1       -0.2383
     28 C          -3.5688    1.2599    1.2504 C.2     1  UNL1        0.2457
     29 O          -2.8196    2.2302    1.1048 O.2     1  UNL1       -0.2729
     30 H           0.6572   -2.6799    1.9086 H       1  UNL1        0.0233
     31 H           1.4997   -1.1254    2.2155 H       1  UNL1        0.0233
     32 H           2.4231   -2.6004    1.9020 H       1  UNL1        0.0233
     33 H           2.6956   -1.6074   -0.0924 H       1  UNL1        0.0303
     34 H           1.5993   -3.0723   -1.6493 H       1  UNL1        0.0233
     35 H           1.8978   -3.9074   -0.0490 H       1  UNL1        0.0233
     36 H           0.2550   -3.3856   -0.5275 H       1  UNL1        0.0233
     37 H           1.1913   -0.6343   -1.5506 H       1  UNL1        0.0400
     38 H           0.6747    1.4653   -0.3116 H       1  UNL1        0.0321
     39 H           1.0942    0.6355    1.2277 H       1  UNL1        0.0321
     40 H           2.2524    1.8642   -1.9710 H       1  UNL1        0.0620
     41 H           4.6224    2.3963   -2.4520 H       1  UNL1        0.0623
     42 H           5.8072    0.5913    1.1828 H       1  UNL1        0.0623
     43 H           3.4822    0.0635    1.6737 H       1  UNL1        0.0620
     44 H          -0.7493   -0.7966    1.6223 H       1  UNL1        0.1488
     45 H          -3.1254   -1.9842    0.3642 H       1  UNL1        0.0488
     46 H          -3.0213   -1.1655    1.9140 H       1  UNL1        0.0488
     47 H          -2.5894    1.1052   -1.2960 H       1  UNL1        0.0327
     48 H          -5.5832    1.5487   -0.7019 H       1  UNL1        0.0269
     49 H          -4.5057    2.4576   -1.8688 H       1  UNL1        0.0269
     50 H          -5.2064   -0.6116   -2.0715 H       1  UNL1        0.0269
     51 H          -4.1638    0.3949   -3.1961 H       1  UNL1        0.0269
     52 H          -5.5729   -0.9074   -0.1322 H       1  UNL1        0.1513
     53 H          -4.5579    1.5265    3.1909 H       1  UNL1        0.1591
@<TRIPOS>BOND
     1     1     2    1
     2     2     3    1
     3     2     4    1
     4     4     5    1
     5     5     6    1
     6     6     7   ar
     7     7     8   ar
     8     8     9   ar
     9     9    10    1
    10    10    11    1
    11    10    12    1
    12    10    13    1
    13     9    14   ar
    14    14    15   ar
    15     4    16    1
    16    16    17    2
    17    16    18   am
    18    18    19    1
    19    20    19    1
    20    20    21    1
    21    21    22    1
    22    22    23    1
    23    20    24    1
    24    24    25   am
    25    25    26    2
    26    25    27   am
    27    27    28   am
    28    28    29    2
    29    15     6   ar
    30    28    20    1
    31    23    21    1
    32     1    30    1
    33     1    31    1
    34     1    32    1
    35     2    33    1
    36     3    34    1
    37     3    35    1
    38     3    36    1
    39     4    37    1
    40     5    38    1
    41     5    39    1
    42     7    40    1
    43     8    41    1
    44    14    42    1
    45    15    43    1
    46    18    44    1
    47    19    45    1
    48    19    46    1
    49    21    47    1
    50    22    48    1
    51    22    49    1
    52    23    50    1
    53    23    51    1
    54    24    52    1
    55    27    53    1
