
     RDKit          3D

 53 55  0  0  0  0  0  0  0  0999 V2000
    1.4946   -2.0182    1.5950 C   0  0  0  0  0  0  0  0  0  0  0  0
    1.6093   -1.8167    0.1288 C   0  0  0  0  0  0  0  0  0  0  0  0
    1.3279   -3.1317   -0.5736 C   0  0  0  0  0  0  0  0  0  0  0  0
    0.8313   -0.7040   -0.4693 C   0  0  2  0  0  0  0  0  0  0  0  0
    1.2503    0.6292    0.1352 C   0  0  0  0  0  0  0  0  0  0  0  0
    2.6937    0.9217   -0.1117 C   0  0  0  0  0  0  0  0  0  0  0  0
    3.0283    1.5847   -1.2796 C   0  0  0  0  0  0  0  0  0  0  0  0
    4.3475    1.8707   -1.5283 C   0  0  0  0  0  0  0  0  0  0  0  0
    5.3643    1.5341   -0.6776 C   0  0  0  0  0  0  0  0  0  0  0  0
    6.7721    1.8618   -0.9852 C   0  0  0  0  0  0  0  0  0  0  0  0
    6.9536    1.9121   -2.3448 F   0  0  0  0  0  0  0  0  0  0  0  0
    7.0155    3.1297   -0.4600 F   0  0  0  0  0  0  0  0  0  0  0  0
    7.5969    0.9149   -0.4009 F   0  0  0  0  0  0  0  0  0  0  0  0
    5.0307    0.8734    0.4863 C   0  0  0  0  0  0  0  0  0  0  0  0
    3.6924    0.5722    0.7594 C   0  0  0  0  0  0  0  0  0  0  0  0
   -0.6331   -0.8613   -0.4672 C   0  0  0  0  0  0  0  0  0  0  0  0
   -1.2019   -0.9686   -1.5923 O   0  0  0  0  0  0  0  0  0  0  0  0
   -1.3546   -0.8878    0.7451 N   0  0  0  0  0  0  0  0  0  0  0  0
   -2.7563   -1.0126    0.8117 C   0  0  0  0  0  0  0  0  0  0  0  0
   -3.6424    0.0635    0.3376 C   0  0  1  0  0  0  0  0  0  0  0  0
   -3.5629    0.5328   -1.0642 C   0  0  0  0  0  0  0  0  0  0  0  0
   -4.7359    1.5077   -1.3900 C   0  0  0  0  0  0  0  0  0  0  0  0
   -4.4795    0.2046   -2.1423 C   0  0  0  0  0  0  0  0  0  0  0  0
   -5.0198   -0.3851    0.5581 N   0  0  0  0  0  0  0  0  0  0  0  0
   -5.4079    0.0229    1.8479 C   0  0  0  0  0  0  0  0  0  0  0  0
   -6.3946   -0.4519    2.4974 O   0  0  0  0  0  0  0  0  0  0  0  0
   -4.5079    1.0408    2.2724 N   0  0  0  0  0  0  0  0  0  0  0  0
   -3.5688    1.2599    1.2504 C   0  0  0  0  0  0  0  0  0  0  0  0
   -2.8196    2.2302    1.1048 O   0  0  0  0  0  0  0  0  0  0  0  0
    0.6572   -2.6799    1.9086 H   0  0  0  0  0  0  0  0  0  0  0  0
    1.4997   -1.1254    2.2155 H   0  0  0  0  0  0  0  0  0  0  0  0
    2.4231   -2.6004    1.9020 H   0  0  0  0  0  0  0  0  0  0  0  0
    2.6956   -1.6074   -0.0924 H   0  0  0  0  0  0  0  0  0  0  0  0
    1.5993   -3.0723   -1.6493 H   0  0  0  0  0  0  0  0  0  0  0  0
    1.8978   -3.9074   -0.0490 H   0  0  0  0  0  0  0  0  0  0  0  0
    0.2550   -3.3856   -0.5275 H   0  0  0  0  0  0  0  0  0  0  0  0
    1.1913   -0.6343   -1.5506 H   0  0  0  0  0  0  0  0  0  0  0  0
    0.6747    1.4653   -0.3116 H   0  0  0  0  0  0  0  0  0  0  0  0
    1.0942    0.6355    1.2277 H   0  0  0  0  0  0  0  0  0  0  0  0
    2.2524    1.8642   -1.9710 H   0  0  0  0  0  0  0  0  0  0  0  0
    4.6224    2.3963   -2.4520 H   0  0  0  0  0  0  0  0  0  0  0  0
    5.8072    0.5913    1.1828 H   0  0  0  0  0  0  0  0  0  0  0  0
    3.4822    0.0635    1.6737 H   0  0  0  0  0  0  0  0  0  0  0  0
   -0.7493   -0.7966    1.6223 H   0  0  0  0  0  0  0  0  0  0  0  0
   -3.1254   -1.9842    0.3642 H   0  0  0  0  0  0  0  0  0  0  0  0
   -3.0213   -1.1655    1.9140 H   0  0  0  0  0  0  0  0  0  0  0  0
   -2.5894    1.1052   -1.2960 H   0  0  0  0  0  0  0  0  0  0  0  0
   -5.5832    1.5487   -0.7019 H   0  0  0  0  0  0  0  0  0  0  0  0
   -4.5057    2.4576   -1.8688 H   0  0  0  0  0  0  0  0  0  0  0  0
   -5.2064   -0.6116   -2.0715 H   0  0  0  0  0  0  0  0  0  0  0  0
   -4.1638    0.3949   -3.1961 H   0  0  0  0  0  0  0  0  0  0  0  0
   -5.5729   -0.9074   -0.1322 H   0  0  0  0  0  0  0  0  0  0  0  0
   -4.5579    1.5265    3.1909 H   0  0  0  0  0  0  0  0  0  0  0  0
  1  2  1  0
  2  3  1  0
  2  4  1  0
  4  5  1  0
  5  6  1  0
  6  7  2  0
  7  8  1  0
  8  9  2  0
  9 10  1  0
 10 11  1  0
 10 12  1  0
 10 13  1  0
  9 14  1  0
 14 15  2  0
  4 16  1  0
 16 17  2  0
 16 18  1  0
 18 19  1  0
 20 19  1  1
 20 21  1  0
 21 22  1  0
 22 23  1  0
 20 24  1  0
 24 25  1  0
 25 26  2  0
 25 27  1  0
 27 28  1  0
 28 29  2  0
 15  6  1  0
 28 20  1  0
 23 21  1  0
  1 30  1  0
  1 31  1  0
  1 32  1  0
  2 33  1  0
  3 34  1  0
  3 35  1  0
  3 36  1  0
  4 37  1  6
  5 38  1  0
  5 39  1  0
  7 40  1  0
  8 41  1  0
 14 42  1  0
 15 43  1  0
 18 44  1  0
 19 45  1  0
 19 46  1  0
 21 47  1  0
 22 48  1  0
 22 49  1  0
 23 50  1  0
 23 51  1  0
 24 52  1  0
 27 53  1  0
M  END
$$$$
