@<TRIPOS>MOLECULE
*****
 56 60 0 0 0
SMALL
GASTEIGER

@<TRIPOS>ATOM
      1 C          -4.7696    4.5121    0.4693 C.3     1  UNL1        0.0124
      2 C          -5.3627    3.2218   -0.0190 C.2     1  UNL1        0.2128
      3 O          -6.5965    3.1488   -0.2335 O.2     1  UNL1       -0.2759
      4 N          -4.5187    2.1015   -0.2313 N.am    1  UNL1       -0.2968
      5 C          -5.1212    0.8722   -0.7032 C.3     1  UNL1        0.0204
      6 C          -4.6053   -0.2259    0.2396 C.3     1  UNL1        0.0055
      7 C          -3.1260   -0.2461    0.0957 C.ar    1  UNL1        0.0477
      8 C          -2.4145    0.9227   -0.0086 C.ar    1  UNL1        0.0324
      9 C          -1.0926    0.5270   -0.1290 C.ar    1  UNL1        0.1499
     10 N          -0.0190    1.4497   -0.2623 N.pl3   1  UNL1       -0.2955
     11 C           1.3271    1.0632   -0.3860 C.ar    1  UNL1        0.0681
     12 C           2.2533    1.4622    0.5277 C.ar    1  UNL1       -0.0371
     13 C           3.5880    1.0743    0.3965 C.ar    1  UNL1       -0.0520
     14 C           3.9877    0.2860   -0.6534 C.ar    1  UNL1       -0.0121
     15 C           5.3817   -0.1107   -0.7792 C.ar    1  UNL1        0.0196
     16 C           6.0444   -0.3404   -1.9690 C.ar    1  UNL1        0.0571
     17 N           7.3103   -0.6842   -1.6533 N.ar    1  UNL1       -0.1793
     18 N           7.4839   -0.6851   -0.3463 N.ar    1  UNL1       -0.2739
     19 C           8.7399   -1.0138    0.3108 C.3     1  UNL1        0.0302
     20 C           6.3147   -0.3366    0.2052 C.ar    1  UNL1        0.0329
     21 C           3.0382   -0.1151   -1.5782 C.ar    1  UNL1       -0.0168
     22 C           1.7054    0.2732   -1.4458 C.ar    1  UNL1        0.1450
     23 F           0.8017   -0.1288   -2.3564 F       1  UNL1       -0.2035
     24 N          -1.0615   -0.7968   -0.0940 N.ar    1  UNL1       -0.1551
     25 N          -2.2715   -1.3068    0.0412 N.ar    1  UNL1       -0.2608
     26 C          -2.6322   -2.6962    0.1169 C.3     1  UNL1        0.0784
     27 C          -2.5439   -3.0993    1.5960 C.3     1  UNL1       -0.0048
     28 C          -1.0203   -3.1194    1.7417 C.3     1  UNL1        0.0498
     29 O          -0.4978   -3.5085    0.5434 O.3     1  UNL1       -0.3776
     30 C          -1.4739   -3.5481   -0.4125 C.3     1  UNL1        0.0701
     31 C          -3.1165    2.2228    0.0260 C.3     1  UNL1        0.0447
     32 H          -4.1016    4.8692   -0.3463 H       1  UNL1        0.0323
     33 H          -4.1695    4.2674    1.3719 H       1  UNL1        0.0323
     34 H          -5.5897    5.2249    0.6943 H       1  UNL1        0.0323
     35 H          -4.6602    0.6512   -1.6850 H       1  UNL1        0.0468
     36 H          -6.2078    0.9224   -0.7102 H       1  UNL1        0.0468
     37 H          -4.8216    0.0430    1.2942 H       1  UNL1        0.0343
     38 H          -5.0628   -1.1785   -0.0720 H       1  UNL1        0.0343
     39 H          -0.2006    2.4921   -0.2728 H       1  UNL1        0.1537
     40 H           2.0289    2.0828    1.3862 H       1  UNL1        0.0637
     41 H           4.3191    1.4013    1.1357 H       1  UNL1        0.0624
     42 H           5.6628   -0.2709   -2.9890 H       1  UNL1        0.0854
     43 H           9.0328   -2.0535    0.0748 H       1  UNL1        0.0473
     44 H           8.5546   -0.9626    1.4188 H       1  UNL1        0.0473
     45 H           9.5355   -0.2799    0.0567 H       1  UNL1        0.0473
     46 H           6.1211   -0.2441    1.2521 H       1  UNL1        0.0832
     47 H           3.3534   -0.7404   -2.4119 H       1  UNL1        0.0653
     48 H          -3.5855   -2.9570   -0.3294 H       1  UNL1        0.0568
     49 H          -2.8718   -4.1382    1.7400 H       1  UNL1        0.0309
     50 H          -3.0175   -2.3598    2.2418 H       1  UNL1        0.0309
     51 H          -0.7388   -2.0442    1.9123 H       1  UNL1        0.0560
     52 H          -0.6972   -3.7136    2.6051 H       1  UNL1        0.0560
     53 H          -1.8655   -4.5860   -0.4767 H       1  UNL1        0.0581
     54 H          -1.1484   -3.1921   -1.4094 H       1  UNL1        0.0581
     55 H          -2.9833    2.6062    1.0823 H       1  UNL1        0.0515
     56 H          -2.6193    2.9846   -0.6124 H       1  UNL1        0.0515
@<TRIPOS>BOND
     1     1     2    1
     2     2     3    2
     3     2     4   am
     4     4     5    1
     5     5     6    1
     6     6     7    1
     7     7     8   ar
     8     8     9   ar
     9     9    10    1
    10    10    11    1
    11    11    12   ar
    12    12    13   ar
    13    13    14   ar
    14    14    15    1
    15    15    16   ar
    16    16    17   ar
    17    17    18   ar
    18    18    19    1
    19    18    20   ar
    20    14    21   ar
    21    21    22   ar
    22    22    23    1
    23     9    24   ar
    24    24    25   ar
    25    25    26    1
    26    26    27    1
    27    27    28    1
    28    28    29    1
    29    29    30    1
    30     8    31    1
    31    31     4    1
    32    25     7   ar
    33    30    26    1
    34    22    11   ar
    35    20    15   ar
    36     1    32    1
    37     1    33    1
    38     1    34    1
    39     5    35    1
    40     5    36    1
    41     6    37    1
    42     6    38    1
    43    10    39    1
    44    12    40    1
    45    13    41    1
    46    16    42    1
    47    19    43    1
    48    19    44    1
    49    19    45    1
    50    20    46    1
    51    21    47    1
    52    26    48    1
    53    27    49    1
    54    27    50    1
    55    28    51    1
    56    28    52    1
    57    30    53    1
    58    30    54    1
    59    31    55    1
    60    31    56    1
