
     RDKit          3D

 47 50  0  0  0  0  0  0  0  0999 V2000
   -2.1567   -2.2954    0.3415 C   0  0  0  0  0  0  0  0  0  0  0  0
   -1.7210   -0.8575    0.0603 C   0  0  2  0  0  0  0  0  0  0  0  0
   -0.4892   -0.9395   -0.7948 C   0  0  0  0  0  0  0  0  0  0  0  0
    0.7234   -0.4168   -0.3257 C   0  0  0  0  0  0  0  0  0  0  0  0
    1.8902   -0.4343   -1.0319 C   0  0  0  0  0  0  0  0  0  0  0  0
    3.1141    0.1431   -0.4384 C   0  0  0  0  0  0  0  0  0  0  0  0
    4.3057   -0.4022   -0.5932 C   0  0  0  0  0  0  0  0  0  0  0  0
    4.4169   -1.5337   -1.3224 F   0  0  0  0  0  0  0  0  0  0  0  0
    5.5150    0.1602   -0.0091 C   0  0  0  0  0  0  0  0  0  0  0  0
    6.7334   -0.4509   -0.1976 C   0  0  0  0  0  0  0  0  0  0  0  0
    7.8855    0.0360    0.3247 N   0  0  0  0  0  0  0  0  0  0  0  0
    7.8501    1.1727    1.0656 C   0  0  0  0  0  0  0  0  0  0  0  0
    9.3531    1.7821    1.7280 Cl  0  0  0  0  0  0  0  0  0  0  0  0
    6.6328    1.7924    1.2603 C   0  0  0  0  0  0  0  0  0  0  0  0
    5.5016    1.2923    0.7333 N   0  0  0  0  0  0  0  0  0  0  0  0
    1.8646   -1.0042   -2.2866 C   0  0  0  0  0  0  0  0  0  0  0  0
    0.6846   -1.5255   -2.7710 C   0  0  0  0  0  0  0  0  0  0  0  0
   -0.5070   -1.5063   -2.0442 C   0  0  0  0  0  0  0  0  0  0  0  0
   -1.6385   -2.0471   -2.5548 F   0  0  0  0  0  0  0  0  0  0  0  0
   -1.3083   -0.2294    1.3050 N   0  0  0  0  0  0  0  0  0  0  0  0
   -2.0826    0.2055    2.2121 C   0  0  0  0  0  0  0  0  0  0  0  0
   -1.6264    0.7953    3.3821 N   0  0  0  0  0  0  0  0  0  0  0  0
   -3.8259    0.0391    1.8797 S   0  0  0  0  0  0  0  0  0  0  0  0
   -3.9723    0.2980    0.0820 C   0  0  1  0  0  0  0  0  0  0  0  0
   -5.5776    0.4078   -0.5827 S   0  0  0  0  0  6  0  0  0  0  0  0
   -6.4295    1.7718    0.1716 C   0  0  0  0  0  0  0  0  0  0  0  0
   -6.3901   -0.8302   -0.2932 O   0  0  0  0  0  0  0  0  0  0  0  0
   -5.5152    0.6132   -2.0788 O   0  0  0  0  0  0  0  0  0  0  0  0
   -2.9592    1.3077   -0.4770 C   0  0  0  0  0  0  0  0  0  0  0  0
   -2.7936   -0.1637   -0.6821 C   0  0  1  0  0  0  0  0  0  0  0  0
   -2.6643   -2.7319   -0.5360 H   0  0  0  0  0  0  0  0  0  0  0  0
   -1.2625   -2.9005    0.5686 H   0  0  0  0  0  0  0  0  0  0  0  0
   -2.8495   -2.3350    1.2116 H   0  0  0  0  0  0  0  0  0  0  0  0
    0.7350    0.0338    0.6750 H   0  0  0  0  0  0  0  0  0  0  0  0
    3.0168    1.0448    0.1440 H   0  0  0  0  0  0  0  0  0  0  0  0
    6.7637   -1.3684   -0.7961 H   0  0  0  0  0  0  0  0  0  0  0  0
    6.6065    2.6855    1.8453 H   0  0  0  0  0  0  0  0  0  0  0  0
    2.7890   -1.0176   -2.8442 H   0  0  0  0  0  0  0  0  0  0  0  0
    0.6532   -1.9767   -3.7615 H   0  0  0  0  0  0  0  0  0  0  0  0
   -1.6476    1.8385    3.4727 H   0  0  0  0  0  0  0  0  0  0  0  0
   -1.2583    0.2667    4.1919 H   0  0  0  0  0  0  0  0  0  0  0  0
   -6.1481    1.8011    1.2643 H   0  0  0  0  0  0  0  0  0  0  0  0
   -7.5284    1.6222    0.1680 H   0  0  0  0  0  0  0  0  0  0  0  0
   -6.1141    2.7182   -0.2761 H   0  0  0  0  0  0  0  0  0  0  0  0
   -2.3118    1.8285    0.2463 H   0  0  0  0  0  0  0  0  0  0  0  0
   -3.2678    1.8765   -1.3838 H   0  0  0  0  0  0  0  0  0  0  0  0
   -2.9898   -0.5664   -1.7061 H   0  0  0  0  0  0  0  0  0  0  0  0
  2  1  1  1
  2  3  1  0
  3  4  2  0
  4  5  1  0
  5  6  1  0
  6  7  2  0
  7  8  1  0
  7  9  1  0
  9 10  2  0
 10 11  1  0
 11 12  2  0
 12 13  1  0
 12 14  1  0
 14 15  2  0
  5 16  2  0
 16 17  1  0
 17 18  2  0
 18 19  1  0
  2 20  1  0
 20 21  2  0
 21 22  1  0
 21 23  1  0
 23 24  1  0
 24 25  1  6
 25 26  1  0
 25 27  2  0
 25 28  2  0
 24 29  1  0
 29 30  1  0
 30  2  1  0
 18  3  1  0
 30 24  1  0
 15  9  1  0
  1 31  1  0
  1 32  1  0
  1 33  1  0
  4 34  1  0
  6 35  1  0
 10 36  1  0
 14 37  1  0
 16 38  1  0
 17 39  1  0
 22 40  1  0
 22 41  1  0
 26 42  1  0
 26 43  1  0
 26 44  1  0
 29 45  1  0
 29 46  1  0
 30 47  1  6
M  END
$$$$
