@<TRIPOS>MOLECULE
*****
 47 50 0 0 0
SMALL
GASTEIGER

@<TRIPOS>ATOM
      1 C          -2.1567   -2.2954    0.3415 C.3     1  UNL1       -0.0351
      2 C          -1.7210   -0.8575    0.0603 C.3     1  UNL1        0.0946
      3 C          -0.4892   -0.9395   -0.7948 C.ar    1  UNL1        0.0158
      4 C           0.7234   -0.4168   -0.3257 C.ar    1  UNL1       -0.0463
      5 C           1.8902   -0.4343   -1.0319 C.ar    1  UNL1       -0.0217
      6 C           3.1141    0.1431   -0.4384 C.2     1  UNL1       -0.0171
      7 C           4.3057   -0.4022   -0.5932 C.2     1  UNL1        0.1506
      8 F           4.4169   -1.5337   -1.3224 F       1  UNL1       -0.2032
      9 C           5.5150    0.1602   -0.0091 C.ar    1  UNL1        0.1171
     10 C           6.7334   -0.4509   -0.1976 C.ar    1  UNL1        0.0574
     11 N           7.8855    0.0360    0.3247 N.ar    1  UNL1       -0.2398
     12 C           7.8501    1.1727    1.0656 C.ar    1  UNL1        0.1472
     13 CL          9.3531    1.7821    1.7280 Cl      1  UNL1       -0.0604
     14 C           6.6328    1.7924    1.2603 C.ar    1  UNL1        0.0651
     15 N           5.5016    1.2923    0.7333 N.ar    1  UNL1       -0.2482
     16 C           1.8646   -1.0042   -2.2866 C.ar    1  UNL1       -0.0518
     17 C           0.6846   -1.5255   -2.7710 C.ar    1  UNL1       -0.0255
     18 C          -0.5070   -1.5063   -2.0442 C.ar    1  UNL1        0.1289
     19 F          -1.6385   -2.0471   -2.5548 F       1  UNL1       -0.2051
     20 N          -1.3083   -0.2294    1.3050 N.2     1  UNL1       -0.2520
     21 C          -2.0826    0.2055    2.2121 C.2     1  UNL1        0.1495
     22 N          -1.6264    0.7953    3.3821 N.pl3   1  UNL1       -0.3380
     23 S          -3.8259    0.0391    1.8797 S.3     1  UNL1       -0.0611
     24 C          -3.9723    0.2980    0.0820 C.3     1  UNL1        0.1451
     25 S          -5.5776    0.4078   -0.5827 S.O2    1  UNL1       -0.0183
     26 C          -6.4295    1.7718    0.1716 C.3     1  UNL1        0.0560
     27 O          -6.3901   -0.8302   -0.2932 O.2     1  UNL1       -0.1733
     28 O          -5.5152    0.6132   -2.0788 O.2     1  UNL1       -0.1733
     29 C          -2.9592    1.3077   -0.4770 C.3     1  UNL1       -0.0096
     30 C          -2.7936   -0.1637   -0.6821 C.3     1  UNL1        0.0258
     31 H          -2.6643   -2.7319   -0.5360 H       1  UNL1        0.0256
     32 H          -1.2625   -2.9005    0.5686 H       1  UNL1        0.0256
     33 H          -2.8495   -2.3350    1.2116 H       1  UNL1        0.0256
     34 H           0.7350    0.0338    0.6750 H       1  UNL1        0.0628
     35 H           3.0168    1.0448    0.1440 H       1  UNL1        0.0653
     36 H           6.7637   -1.3684   -0.7961 H       1  UNL1        0.0853
     37 H           6.6065    2.6855    1.8453 H       1  UNL1        0.0860
     38 H           2.7890   -1.0176   -2.8442 H       1  UNL1        0.0624
     39 H           0.6532   -1.9767   -3.7615 H       1  UNL1        0.0646
     40 H          -1.6476    1.8385    3.4727 H       1  UNL1        0.1442
     41 H          -1.2583    0.2667    4.1919 H       1  UNL1        0.1442
     42 H          -6.1481    1.8011    1.2643 H       1  UNL1        0.0464
     43 H          -7.5284    1.6222    0.1680 H       1  UNL1        0.0464
     44 H          -6.1141    2.7182   -0.2761 H       1  UNL1        0.0464
     45 H          -2.3118    1.8285    0.2463 H       1  UNL1        0.0299
     46 H          -3.2678    1.8765   -1.3838 H       1  UNL1        0.0299
     47 H          -2.9898   -0.5664   -1.7061 H       1  UNL1        0.0358
@<TRIPOS>BOND
     1     2     1    1
     2     2     3    1
     3     3     4   ar
     4     4     5   ar
     5     5     6    1
     6     6     7    2
     7     7     8    1
     8     7     9    1
     9     9    10   ar
    10    10    11   ar
    11    11    12   ar
    12    12    13    1
    13    12    14   ar
    14    14    15   ar
    15     5    16   ar
    16    16    17   ar
    17    17    18   ar
    18    18    19    1
    19     2    20    1
    20    20    21    2
    21    21    22    1
    22    21    23    1
    23    23    24    1
    24    24    25    1
    25    25    26    1
    26    25    27    2
    27    25    28    2
    28    24    29    1
    29    29    30    1
    30    30     2    1
    31    18     3   ar
    32    30    24    1
    33    15     9   ar
    34     1    31    1
    35     1    32    1
    36     1    33    1
    37     4    34    1
    38     6    35    1
    39    10    36    1
    40    14    37    1
    41    16    38    1
    42    17    39    1
    43    22    40    1
    44    22    41    1
    45    26    42    1
    46    26    43    1
    47    26    44    1
    48    29    45    1
    49    29    46    1
    50    30    47    1
