@<TRIPOS>MOLECULE
*****
 39 42 0 0 0
SMALL
GASTEIGER

@<TRIPOS>ATOM
      1 C          -4.5753    1.0968   -1.8384 C.3     1  UNL1       -0.0452
      2 C          -4.8429    0.8572   -0.3725 C.3     1  UNL1        0.0360
      3 C          -3.7367    1.3982    0.5006 C.3     1  UNL1        0.0273
      4 N          -2.4219    0.9625    0.1455 N.pl3   1  UNL1       -0.3406
      5 C          -1.8829   -0.3904    0.3005 C.ar    1  UNL1        0.0546
      6 C          -2.7530   -1.4655    0.3201 C.ar    1  UNL1        0.0958
      7 S          -1.6597   -2.9327    0.5245 S.2     1  UNL1       -0.0818
      8 C          -0.1299   -1.9295    0.5622 C.ar    1  UNL1        0.0221
      9 C           1.1393   -2.3616    0.6958 C.ar    1  UNL1       -0.0439
     10 C           2.1559   -1.4381    0.6991 C.ar    1  UNL1       -0.0189
     11 C           1.8094   -0.0886    0.5611 C.ar    1  UNL1        0.1212
     12 O           2.7562    0.8414    0.5548 O.3     1  UNL1       -0.4917
     13 C           4.0035    1.2131    0.6031 C.3     1  UNL1        0.0924
     14 C           4.9765    0.8000   -0.4793 C.3     1  UNL1       -0.0068
     15 C           5.3075   -0.5838   -0.7662 C.3     1  UNL1       -0.0468
     16 C           6.3611    0.3709   -0.1792 C.3     1  UNL1       -0.0468
     17 C           0.4710    0.3029    0.4259 C.ar    1  UNL1       -0.0099
     18 C          -0.5656   -0.6550    0.4245 C.ar    1  UNL1        0.0142
     19 C          -4.2024   -1.6007    0.2197 C.2     1  UNL1        0.2528
     20 O          -4.6864   -2.7301    0.4701 O.2     1  UNL1       -0.2696
     21 N          -5.1095   -0.5321   -0.1450 N.am    1  UNL1       -0.3068
     22 H          -5.3977    0.5957   -2.4005 H       1  UNL1        0.0248
     23 H          -4.6678    2.1841   -2.0999 H       1  UNL1        0.0248
     24 H          -3.5682    0.7190   -2.1413 H       1  UNL1        0.0248
     25 H          -5.7613    1.4264   -0.1102 H       1  UNL1        0.0511
     26 H          -3.8325    2.4961    0.5307 H       1  UNL1        0.0479
     27 H          -3.9895    1.0531    1.5435 H       1  UNL1        0.0479
     28 H          -1.7689    1.6636   -0.2647 H       1  UNL1        0.1462
     29 H           1.3286   -3.4267    0.7975 H       1  UNL1        0.0630
     30 H           3.1620   -1.7669    0.8197 H       1  UNL1        0.0654
     31 H           4.4927    0.8992    1.6103 H       1  UNL1        0.0699
     32 H           4.0383    2.3785    0.6459 H       1  UNL1        0.0699
     33 H           4.8449    1.5040   -1.3809 H       1  UNL1        0.0334
     34 H           5.5091   -0.8894   -1.8421 H       1  UNL1        0.0269
     35 H           5.1549   -1.4428   -0.1199 H       1  UNL1        0.0269
     36 H           6.6759    0.2303    0.8660 H       1  UNL1        0.0269
     37 H           7.1439    0.7240   -0.8952 H       1  UNL1        0.0269
     38 H           0.2981    1.3562    0.3263 H       1  UNL1        0.0661
     39 H          -6.0765   -0.8388   -0.2496 H       1  UNL1        0.1494
@<TRIPOS>BOND
     1     1     2    1
     2     2     3    1
     3     3     4    1
     4     4     5    1
     5     5     6   ar
     6     6     7   ar
     7     7     8   ar
     8     8     9   ar
     9     9    10   ar
    10    10    11   ar
    11    11    12    1
    12    12    13    1
    13    13    14    1
    14    14    15    1
    15    15    16    1
    16    11    17   ar
    17    17    18   ar
    18     6    19    1
    19    19    20    2
    20    19    21   am
    21    21     2    1
    22    18     5   ar
    23    18     8   ar
    24    16    14    1
    25     1    22    1
    26     1    23    1
    27     1    24    1
    28     2    25    1
    29     3    26    1
    30     3    27    1
    31     4    28    1
    32     9    29    1
    33    10    30    1
    34    13    31    1
    35    13    32    1
    36    14    33    1
    37    15    34    1
    38    15    35    1
    39    16    36    1
    40    16    37    1
    41    17    38    1
    42    21    39    1
