
     RDKit          3D

 39 42  0  0  0  0  0  0  0  0999 V2000
   -4.5753    1.0968   -1.8384 C   0  0  0  0  0  0  0  0  0  0  0  0
   -4.8429    0.8572   -0.3725 C   0  0  2  0  0  0  0  0  0  0  0  0
   -3.7367    1.3982    0.5006 C   0  0  0  0  0  0  0  0  0  0  0  0
   -2.4219    0.9625    0.1455 N   0  0  0  0  0  0  0  0  0  0  0  0
   -1.8829   -0.3904    0.3005 C   0  0  0  0  0  0  0  0  0  0  0  0
   -2.7530   -1.4655    0.3201 C   0  0  0  0  0  0  0  0  0  0  0  0
   -1.6597   -2.9327    0.5245 S   0  0  0  0  0  0  0  0  0  0  0  0
   -0.1299   -1.9295    0.5622 C   0  0  0  0  0  0  0  0  0  0  0  0
    1.1393   -2.3616    0.6958 C   0  0  0  0  0  0  0  0  0  0  0  0
    2.1559   -1.4381    0.6991 C   0  0  0  0  0  0  0  0  0  0  0  0
    1.8094   -0.0886    0.5611 C   0  0  0  0  0  0  0  0  0  0  0  0
    2.7562    0.8414    0.5548 O   0  0  0  0  0  0  0  0  0  0  0  0
    4.0035    1.2131    0.6031 C   0  0  0  0  0  0  0  0  0  0  0  0
    4.9765    0.8000   -0.4793 C   0  0  0  0  0  0  0  0  0  0  0  0
    5.3075   -0.5838   -0.7662 C   0  0  0  0  0  0  0  0  0  0  0  0
    6.3611    0.3709   -0.1792 C   0  0  0  0  0  0  0  0  0  0  0  0
    0.4710    0.3029    0.4259 C   0  0  0  0  0  0  0  0  0  0  0  0
   -0.5656   -0.6550    0.4245 C   0  0  0  0  0  0  0  0  0  0  0  0
   -4.2024   -1.6007    0.2197 C   0  0  0  0  0  0  0  0  0  0  0  0
   -4.6864   -2.7301    0.4701 O   0  0  0  0  0  0  0  0  0  0  0  0
   -5.1095   -0.5321   -0.1450 N   0  0  0  0  0  0  0  0  0  0  0  0
   -5.3977    0.5957   -2.4005 H   0  0  0  0  0  0  0  0  0  0  0  0
   -4.6678    2.1841   -2.0999 H   0  0  0  0  0  0  0  0  0  0  0  0
   -3.5682    0.7190   -2.1413 H   0  0  0  0  0  0  0  0  0  0  0  0
   -5.7613    1.4264   -0.1102 H   0  0  0  0  0  0  0  0  0  0  0  0
   -3.8325    2.4961    0.5307 H   0  0  0  0  0  0  0  0  0  0  0  0
   -3.9895    1.0531    1.5435 H   0  0  0  0  0  0  0  0  0  0  0  0
   -1.7689    1.6636   -0.2647 H   0  0  0  0  0  0  0  0  0  0  0  0
    1.3286   -3.4267    0.7975 H   0  0  0  0  0  0  0  0  0  0  0  0
    3.1620   -1.7669    0.8197 H   0  0  0  0  0  0  0  0  0  0  0  0
    4.4927    0.8992    1.6103 H   0  0  0  0  0  0  0  0  0  0  0  0
    4.0383    2.3785    0.6459 H   0  0  0  0  0  0  0  0  0  0  0  0
    4.8449    1.5040   -1.3809 H   0  0  0  0  0  0  0  0  0  0  0  0
    5.5091   -0.8894   -1.8421 H   0  0  0  0  0  0  0  0  0  0  0  0
    5.1549   -1.4428   -0.1199 H   0  0  0  0  0  0  0  0  0  0  0  0
    6.6759    0.2303    0.8660 H   0  0  0  0  0  0  0  0  0  0  0  0
    7.1439    0.7240   -0.8952 H   0  0  0  0  0  0  0  0  0  0  0  0
    0.2981    1.3562    0.3263 H   0  0  0  0  0  0  0  0  0  0  0  0
   -6.0765   -0.8388   -0.2496 H   0  0  0  0  0  0  0  0  0  0  0  0
  1  2  1  0
  2  3  1  0
  3  4  1  0
  4  5  1  0
  5  6  2  0
  6  7  1  0
  7  8  1  0
  8  9  2  0
  9 10  1  0
 10 11  2  0
 11 12  1  0
 12 13  1  0
 13 14  1  0
 14 15  1  0
 15 16  1  0
 11 17  1  0
 17 18  2  0
  6 19  1  0
 19 20  2  0
 19 21  1  0
 21  2  1  0
 18  5  1  0
 18  8  1  0
 16 14  1  0
  1 22  1  0
  1 23  1  0
  1 24  1  0
  2 25  1  1
  3 26  1  0
  3 27  1  0
  4 28  1  0
  9 29  1  0
 10 30  1  0
 13 31  1  0
 13 32  1  0
 14 33  1  0
 15 34  1  0
 15 35  1  0
 16 36  1  0
 16 37  1  0
 17 38  1  0
 21 39  1  0
M  END
$$$$
