@<TRIPOS>MOLECULE
*****
 49 53 0 0 0
SMALL
GASTEIGER

@<TRIPOS>ATOM
      1 C           7.0275    1.7887    1.1848 C.3     1  UNL1       -0.0205
      2 C           6.1627    0.6892    0.7161 C.ar    1  UNL1        0.0625
      3 C           6.5308   -0.6060    0.4420 C.ar    1  UNL1        0.0052
      4 C           5.3765   -1.2536    0.0368 C.ar    1  UNL1        0.1560
      5 N           5.0782   -2.4890   -0.3548 N.ar    1  UNL1       -0.2357
      6 C           3.8421   -2.8872   -0.7094 C.ar    1  UNL1        0.0361
      7 C           2.7999   -1.9640   -0.6703 C.ar    1  UNL1        0.0074
      8 C           3.1225   -0.6958   -0.2649 C.ar    1  UNL1        0.0649
      9 N           4.3755   -0.3544    0.0779 N.ar    1  UNL1       -0.2168
     10 N           4.8381    0.8155    0.4848 N.ar    1  UNL1       -0.1699
     11 C           1.8472    0.0973   -0.3046 C.3     1  UNL1        0.0424
     12 N           0.7961   -0.9301   -0.2053 N.3     1  UNL1       -0.2872
     13 C          -0.4137   -0.3853   -0.8149 C.3     1  UNL1        0.0360
     14 C          -1.5222   -1.4007   -0.7368 C.3     1  UNL1        0.0641
     15 O          -2.7731   -0.8322   -0.9745 O.3     1  UNL1       -0.3688
     16 C          -2.9806    0.0247    0.1080 C.3     1  UNL1        0.1015
     17 C          -4.4114    0.2481    0.2741 C.ar    1  UNL1        0.0205
     18 C          -4.9727    0.5251    1.5014 C.ar    1  UNL1       -0.0180
     19 C          -6.3303    0.7241    1.5784 C.ar    1  UNL1        0.1239
     20 F          -6.8659    0.9964    2.7982 F       1  UNL1       -0.2055
     21 C          -7.1677    0.6607    0.4832 C.ar    1  UNL1       -0.0237
     22 C          -6.5926    0.3822   -0.7414 C.ar    1  UNL1       -0.0234
     23 C          -5.2154    0.1747   -0.8539 C.ar    1  UNL1        0.1292
     24 F          -4.6962   -0.0976   -2.0878 F       1  UNL1       -0.2051
     25 C          -2.1976    1.2785   -0.1781 C.3     1  UNL1        0.0371
     26 N          -2.4306    2.2913    0.8422 N.3     1  UNL1       -0.3248
     27 C          -0.7454    0.9542   -0.3031 C.3     1  UNL1       -0.0172
     28 C           1.3664   -1.9885   -0.9666 C.3     1  UNL1        0.0280
     29 H           7.9578    1.3544    1.5762 H       1  UNL1        0.0293
     30 H           6.5082    2.3275    2.0069 H       1  UNL1        0.0293
     31 H           7.2549    2.5139    0.3895 H       1  UNL1        0.0293
     32 H           7.5329   -1.0418    0.5256 H       1  UNL1        0.0673
     33 H           3.6152   -3.8912   -1.0245 H       1  UNL1        0.0834
     34 H           1.8272    0.6022   -1.2737 H       1  UNL1        0.0491
     35 H           1.8371    0.7778    0.5509 H       1  UNL1        0.0491
     36 H          -0.1622   -0.2896   -1.9130 H       1  UNL1        0.0486
     37 H          -1.4054   -2.2159   -1.4763 H       1  UNL1        0.0576
     38 H          -1.5872   -1.8444    0.2931 H       1  UNL1        0.0576
     39 H          -2.5554   -0.4060    1.0564 H       1  UNL1        0.0663
     40 H          -4.3009    0.5701    2.3445 H       1  UNL1        0.0651
     41 H          -8.2487    0.8210    0.5563 H       1  UNL1        0.0647
     42 H          -7.2174    0.3230   -1.6310 H       1  UNL1        0.0647
     43 H          -2.6065    1.6999   -1.1266 H       1  UNL1        0.0488
     44 H          -2.1029    1.9077    1.7798 H       1  UNL1        0.1186
     45 H          -1.7465    3.0765    0.6424 H       1  UNL1        0.1186
     46 H          -0.2974    1.0714    0.7276 H       1  UNL1        0.0297
     47 H          -0.2522    1.7768   -0.8974 H       1  UNL1        0.0297
     48 H           1.1432   -1.9472   -2.0491 H       1  UNL1        0.0477
     49 H           0.9584   -2.9522   -0.6018 H       1  UNL1        0.0477
@<TRIPOS>BOND
     1     1     2    1
     2     2     3   ar
     3     3     4   ar
     4     4     5   ar
     5     5     6   ar
     6     6     7   ar
     7     7     8   ar
     8     8     9   ar
     9     9    10   ar
    10     8    11    1
    11    11    12    1
    12    12    13    1
    13    13    14    1
    14    14    15    1
    15    15    16    1
    16    16    17    1
    17    17    18   ar
    18    18    19   ar
    19    19    20    1
    20    19    21   ar
    21    21    22   ar
    22    22    23   ar
    23    23    24    1
    24    16    25    1
    25    25    26    1
    26    25    27    1
    27    12    28    1
    28    10     2   ar
    29    27    13    1
    30     9     4   ar
    31    23    17   ar
    32    28     7    1
    33     1    29    1
    34     1    30    1
    35     1    31    1
    36     3    32    1
    37     6    33    1
    38    11    34    1
    39    11    35    1
    40    13    36    1
    41    14    37    1
    42    14    38    1
    43    16    39    1
    44    18    40    1
    45    21    41    1
    46    22    42    1
    47    25    43    1
    48    26    44    1
    49    26    45    1
    50    27    46    1
    51    27    47    1
    52    28    48    1
    53    28    49    1
