@<TRIPOS>MOLECULE
*****
 46 49 0 0 0
SMALL
GASTEIGER

@<TRIPOS>ATOM
      1 N           4.4506   -0.5825    2.9860 N.am    1  UNL1       -0.3241
      2 C           3.2534   -0.4389    2.2434 C.2     1  UNL1        0.2599
      3 O           2.1799   -0.6659    2.8124 O.2     1  UNL1       -0.2687
      4 C           3.2512   -0.0371    0.8471 C.ar    1  UNL1        0.1280
      5 C           4.4039    0.2468    0.1057 C.ar    1  UNL1        0.0588
      6 N           4.0495    0.5836   -1.1442 N.ar    1  UNL1       -0.2353
      7 C           2.7064    0.5230   -1.2212 C.ar    1  UNL1        0.1381
      8 C           1.8661    0.7775   -2.2924 C.ar    1  UNL1       -0.0182
      9 C           0.5185    0.6275   -2.0633 C.ar    1  UNL1       -0.0477
     10 C           0.0150    0.2393   -0.8187 C.ar    1  UNL1        0.0173
     11 C          -1.4101    0.1035   -0.6534 C.ar    1  UNL1        0.0779
     12 C          -2.1371   -1.0367   -0.3906 C.ar    1  UNL1        0.0967
     13 C          -1.6611   -2.3991   -0.1957 C.ar    1  UNL1        0.0026
     14 C          -1.0171   -2.8105    0.9499 C.ar    1  UNL1       -0.0498
     15 C          -0.5598   -4.1247    1.1167 C.ar    1  UNL1       -0.0258
     16 C          -0.7549   -5.0461    0.1086 C.ar    1  UNL1        0.1234
     17 F          -0.2987   -6.3185    0.2999 F       1  UNL1       -0.2055
     18 C          -1.3982   -4.6561   -1.0487 C.ar    1  UNL1       -0.0258
     19 C          -1.8469   -3.3409   -1.1963 C.ar    1  UNL1       -0.0498
     20 N          -3.4626   -0.7127   -0.3218 N.ar    1  UNL1       -0.2351
     21 C          -3.5608    0.6111   -0.5386 C.ar    1  UNL1        0.0972
     22 N          -2.3134    1.1150   -0.7412 N.ar    1  UNL1       -0.3268
     23 C          -2.0338    2.5146   -1.0038 C.3     1  UNL1        0.0592
     24 C          -1.8148    3.2200    0.3330 C.3     1  UNL1        0.1676
     25 O          -0.7568    2.6711    1.0235 O.3     1  UNL1       -0.3812
     26 C          -1.6981    4.7100    0.1533 C.3     1  UNL1        0.4170
     27 F          -1.5035    5.2551    1.4106 F       1  UNL1       -0.1679
     28 F          -0.6230    5.0625   -0.6280 F       1  UNL1       -0.1679
     29 F          -2.8885    5.1523   -0.3886 F       1  UNL1       -0.1679
     30 C           0.8983    0.0003    0.2084 C.ar    1  UNL1        0.0211
     31 N           2.2335    0.1450   -0.0056 N.ar    1  UNL1       -0.2949
     32 H           4.6574   -1.4700    3.4718 H       1  UNL1        0.1453
     33 H           5.1073    0.2184    3.0284 H       1  UNL1        0.1453
     34 H           5.4022    0.1910    0.5138 H       1  UNL1        0.0853
     35 H           2.2859    1.0740   -3.2356 H       1  UNL1        0.0654
     36 H          -0.1356    0.8293   -2.9112 H       1  UNL1        0.0626
     37 H          -0.8521   -2.1224    1.7567 H       1  UNL1        0.0625
     38 H          -0.0577   -4.4373    2.0153 H       1  UNL1        0.0646
     39 H          -1.5576   -5.3715   -1.8481 H       1  UNL1        0.0646
     40 H          -2.3500   -3.0234   -2.0929 H       1  UNL1        0.0625
     41 H          -4.4624    1.2195   -0.5585 H       1  UNL1        0.1029
     42 H          -2.9060    2.9302   -1.5379 H       1  UNL1        0.0521
     43 H          -1.0951    2.6070   -1.6171 H       1  UNL1        0.0521
     44 H          -2.7625    3.0452    0.9201 H       1  UNL1        0.0702
     45 H           0.0735    3.2233    0.9455 H       1  UNL1        0.2102
     46 H           0.5656   -0.3022    1.2030 H       1  UNL1        0.0820
@<TRIPOS>BOND
     1     1     2   am
     2     2     3    2
     3     2     4    1
     4     4     5   ar
     5     5     6   ar
     6     6     7   ar
     7     7     8   ar
     8     8     9   ar
     9     9    10   ar
    10    10    11    1
    11    11    12   ar
    12    12    13    1
    13    13    14   ar
    14    14    15   ar
    15    15    16   ar
    16    16    17    1
    17    16    18   ar
    18    18    19   ar
    19    12    20   ar
    20    20    21   ar
    21    21    22   ar
    22    22    23    1
    23    23    24    1
    24    24    25    1
    25    24    26    1
    26    26    27    1
    27    26    28    1
    28    26    29    1
    29    10    30   ar
    30    30    31   ar
    31    31     4   ar
    32    31     7   ar
    33    22    11   ar
    34    19    13   ar
    35     1    32    1
    36     1    33    1
    37     5    34    1
    38     8    35    1
    39     9    36    1
    40    14    37    1
    41    15    38    1
    42    18    39    1
    43    19    40    1
    44    21    41    1
    45    23    42    1
    46    23    43    1
    47    24    44    1
    48    25    45    1
    49    30    46    1
