
     RDKit          3D

 46 49  0  0  0  0  0  0  0  0999 V2000
    4.4506   -0.5825    2.9860 N   0  0  0  0  0  0  0  0  0  0  0  0
    3.2534   -0.4389    2.2434 C   0  0  0  0  0  0  0  0  0  0  0  0
    2.1799   -0.6659    2.8124 O   0  0  0  0  0  0  0  0  0  0  0  0
    3.2512   -0.0371    0.8471 C   0  0  0  0  0  0  0  0  0  0  0  0
    4.4039    0.2468    0.1057 C   0  0  0  0  0  0  0  0  0  0  0  0
    4.0495    0.5836   -1.1442 N   0  0  0  0  0  0  0  0  0  0  0  0
    2.7064    0.5230   -1.2212 C   0  0  0  0  0  0  0  0  0  0  0  0
    1.8661    0.7775   -2.2924 C   0  0  0  0  0  0  0  0  0  0  0  0
    0.5185    0.6275   -2.0633 C   0  0  0  0  0  0  0  0  0  0  0  0
    0.0150    0.2393   -0.8187 C   0  0  0  0  0  0  0  0  0  0  0  0
   -1.4101    0.1035   -0.6534 C   0  0  0  0  0  0  0  0  0  0  0  0
   -2.1371   -1.0367   -0.3906 C   0  0  0  0  0  0  0  0  0  0  0  0
   -1.6611   -2.3991   -0.1957 C   0  0  0  0  0  0  0  0  0  0  0  0
   -1.0171   -2.8105    0.9499 C   0  0  0  0  0  0  0  0  0  0  0  0
   -0.5598   -4.1247    1.1167 C   0  0  0  0  0  0  0  0  0  0  0  0
   -0.7549   -5.0461    0.1086 C   0  0  0  0  0  0  0  0  0  0  0  0
   -0.2987   -6.3185    0.2999 F   0  0  0  0  0  0  0  0  0  0  0  0
   -1.3982   -4.6561   -1.0487 C   0  0  0  0  0  0  0  0  0  0  0  0
   -1.8469   -3.3409   -1.1963 C   0  0  0  0  0  0  0  0  0  0  0  0
   -3.4626   -0.7127   -0.3218 N   0  0  0  0  0  0  0  0  0  0  0  0
   -3.5608    0.6111   -0.5386 C   0  0  0  0  0  0  0  0  0  0  0  0
   -2.3134    1.1150   -0.7412 N   0  0  0  0  0  0  0  0  0  0  0  0
   -2.0338    2.5146   -1.0038 C   0  0  0  0  0  0  0  0  0  0  0  0
   -1.8148    3.2200    0.3330 C   0  0  0  0  0  0  0  0  0  0  0  0
   -0.7568    2.6711    1.0235 O   0  0  0  0  0  0  0  0  0  0  0  0
   -1.6981    4.7100    0.1533 C   0  0  0  0  0  0  0  0  0  0  0  0
   -1.5035    5.2551    1.4106 F   0  0  0  0  0  0  0  0  0  0  0  0
   -0.6230    5.0625   -0.6280 F   0  0  0  0  0  0  0  0  0  0  0  0
   -2.8885    5.1523   -0.3886 F   0  0  0  0  0  0  0  0  0  0  0  0
    0.8983    0.0003    0.2084 C   0  0  0  0  0  0  0  0  0  0  0  0
    2.2335    0.1450   -0.0056 N   0  0  0  0  0  0  0  0  0  0  0  0
    4.6574   -1.4700    3.4718 H   0  0  0  0  0  0  0  0  0  0  0  0
    5.1073    0.2184    3.0284 H   0  0  0  0  0  0  0  0  0  0  0  0
    5.4022    0.1910    0.5138 H   0  0  0  0  0  0  0  0  0  0  0  0
    2.2859    1.0740   -3.2356 H   0  0  0  0  0  0  0  0  0  0  0  0
   -0.1356    0.8293   -2.9112 H   0  0  0  0  0  0  0  0  0  0  0  0
   -0.8521   -2.1224    1.7567 H   0  0  0  0  0  0  0  0  0  0  0  0
   -0.0577   -4.4373    2.0153 H   0  0  0  0  0  0  0  0  0  0  0  0
   -1.5576   -5.3715   -1.8481 H   0  0  0  0  0  0  0  0  0  0  0  0
   -2.3500   -3.0234   -2.0929 H   0  0  0  0  0  0  0  0  0  0  0  0
   -4.4624    1.2195   -0.5585 H   0  0  0  0  0  0  0  0  0  0  0  0
   -2.9060    2.9302   -1.5379 H   0  0  0  0  0  0  0  0  0  0  0  0
   -1.0951    2.6070   -1.6171 H   0  0  0  0  0  0  0  0  0  0  0  0
   -2.7625    3.0452    0.9201 H   0  0  0  0  0  0  0  0  0  0  0  0
    0.0735    3.2233    0.9455 H   0  0  0  0  0  0  0  0  0  0  0  0
    0.5656   -0.3022    1.2030 H   0  0  0  0  0  0  0  0  0  0  0  0
  1  2  1  0
  2  3  2  0
  2  4  1  0
  4  5  2  0
  5  6  1  0
  6  7  2  0
  7  8  1  0
  8  9  2  0
  9 10  1  0
 10 11  1  0
 11 12  2  0
 12 13  1  0
 13 14  2  0
 14 15  1  0
 15 16  2  0
 16 17  1  0
 16 18  1  0
 18 19  2  0
 12 20  1  0
 20 21  2  0
 21 22  1  0
 22 23  1  0
 23 24  1  0
 24 25  1  0
 24 26  1  0
 26 27  1  0
 26 28  1  0
 26 29  1  0
 10 30  2  0
 30 31  1  0
 31  4  1  0
 31  7  1  0
 22 11  1  0
 19 13  1  0
  1 32  1  0
  1 33  1  0
  5 34  1  0
  8 35  1  0
  9 36  1  0
 14 37  1  0
 15 38  1  0
 18 39  1  0
 19 40  1  0
 21 41  1  0
 23 42  1  0
 23 43  1  0
 24 44  1  0
 25 45  1  0
 30 46  1  0
M  END
$$$$
