@<TRIPOS>MOLECULE
*****
 48 49 0 0 0
SMALL
GASTEIGER

@<TRIPOS>ATOM
      1 C           6.2254   -0.0140    1.6055 C.3     1  UNL1        0.0788
      2 O           5.0479    0.7124    1.4070 O.3     1  UNL1       -0.4950
      3 C           3.8998    0.1690    0.8640 C.ar    1  UNL1        0.1239
      4 C           3.9044   -1.1518    0.4968 C.ar    1  UNL1        0.0224
      5 C           2.7959   -1.7364   -0.0433 C.ar    1  UNL1        0.1346
      6 O           2.8458   -3.0725   -0.4043 O.3     1  UNL1       -0.5058
      7 C           1.6231   -0.9696   -0.2268 C.ar    1  UNL1        0.1036
      8 C           1.6128    0.3576    0.1378 C.ar    1  UNL1       -0.0264
      9 C           2.7364    0.9171    0.6764 C.ar    1  UNL1       -0.0158
     10 C           0.3888    1.2094   -0.0925 C.3     1  UNL1       -0.0267
     11 C           0.5219    2.6046    0.3991 C.3     1  UNL1       -0.0490
     12 C          -0.6624    3.4457    0.0878 C.3     1  UNL1       -0.0524
     13 C          -1.9937    2.9976    0.5218 C.3     1  UNL1       -0.0460
     14 C          -2.6617    1.9060   -0.2295 C.3     1  UNL1        0.0099
     15 C          -3.7695    1.3050    0.5599 C.2     1  UNL1        0.1558
     16 O          -4.3039    2.1366    1.3828 O.2     1  UNL1       -0.2927
     17 C          -4.2245   -0.0550    0.4652 C.2     1  UNL1       -0.0230
     18 C          -3.9074   -1.0718   -0.2567 C.2     1  UNL1       -0.0773
     19 C          -2.9399   -1.3206   -1.3319 C.3     1  UNL1        0.0027
     20 C          -1.8614   -2.3008   -0.9308 C.3     1  UNL1        0.1040
     21 C          -2.3628   -3.5514   -0.2919 C.3     1  UNL1       -0.0274
     22 O          -0.8318   -1.6238   -0.2698 O.3     1  UNL1       -0.4578
     23 C           0.4787   -1.6435   -0.7871 C.2     1  UNL1        0.3433
     24 O           0.6938   -2.3211   -1.8617 O.2     1  UNL1       -0.2448
     25 H           6.9912    0.5927    2.0900 H       1  UNL1        0.0660
     26 H           6.0098   -0.9397    2.2074 H       1  UNL1        0.0660
     27 H           6.6244   -0.3676    0.6466 H       1  UNL1        0.0660
     28 H           4.8002   -1.7545    0.6330 H       1  UNL1        0.0691
     29 H           3.1271   -3.4192   -1.2943 H       1  UNL1        0.2922
     30 H           2.7715    1.9564    0.9787 H       1  UNL1        0.0657
     31 H          -0.4115    0.6477    0.4708 H       1  UNL1        0.0313
     32 H           0.1342    1.2124   -1.1523 H       1  UNL1        0.0313
     33 H           0.8202    2.6571    1.4759 H       1  UNL1        0.0268
     34 H           1.4401    3.0290   -0.1248 H       1  UNL1        0.0268
     35 H          -0.6942    3.7291   -1.0112 H       1  UNL1        0.0265
     36 H          -0.4852    4.4566    0.5765 H       1  UNL1        0.0265
     37 H          -1.9779    2.6959    1.6154 H       1  UNL1        0.0269
     38 H          -2.6607    3.9141    0.5457 H       1  UNL1        0.0269
     39 H          -2.0056    1.2692   -0.7358 H       1  UNL1        0.0345
     40 H          -3.2280    2.4949   -1.0860 H       1  UNL1        0.0345
     41 H          -5.0567   -0.2685    1.2033 H       1  UNL1        0.0649
     42 H          -4.4708   -2.0451   -0.0589 H       1  UNL1        0.0574
     43 H          -2.5292   -0.4919   -1.8718 H       1  UNL1        0.0343
     44 H          -3.5261   -1.8884   -2.1624 H       1  UNL1        0.0343
     45 H          -1.4173   -2.6765   -1.9237 H       1  UNL1        0.0734
     46 H          -2.2975   -3.5415    0.8154 H       1  UNL1        0.0265
     47 H          -3.4320   -3.7514   -0.5194 H       1  UNL1        0.0265
     48 H          -1.7818   -4.4398   -0.6111 H       1  UNL1        0.0265
@<TRIPOS>BOND
     1     1     2    1
     2     2     3    1
     3     3     4   ar
     4     4     5   ar
     5     5     6    1
     6     5     7   ar
     7     7     8   ar
     8     8     9   ar
     9     8    10    1
    10    10    11    1
    11    11    12    1
    12    12    13    1
    13    13    14    1
    14    14    15    1
    15    15    16    2
    16    15    17    1
    17    17    18    2
    18    18    19    1
    19    19    20    1
    20    20    21    1
    21    20    22    1
    22    22    23    1
    23    23    24    2
    24     9     3   ar
    25    23     7    1
    26     1    25    1
    27     1    26    1
    28     1    27    1
    29     4    28    1
    30     6    29    1
    31     9    30    1
    32    10    31    1
    33    10    32    1
    34    11    33    1
    35    11    34    1
    36    12    35    1
    37    12    36    1
    38    13    37    1
    39    13    38    1
    40    14    39    1
    41    14    40    1
    42    17    41    1
    43    18    42    1
    44    19    43    1
    45    19    44    1
    46    20    45    1
    47    21    46    1
    48    21    47    1
    49    21    48    1
