@<TRIPOS>MOLECULE
*****
 44 46 0 0 0
SMALL
GASTEIGER

@<TRIPOS>ATOM
      1 C          -4.9788   -2.0231    1.4158 C.3     1  UNL1        0.0790
      2 O          -5.1996   -0.8085    0.7293 O.3     1  UNL1       -0.4913
      3 C          -4.1209   -0.2308    0.0792 C.ar    1  UNL1        0.1655
      4 C          -2.8712   -0.8054    0.0908 C.ar    1  UNL1       -0.0114
      5 C          -1.7995   -0.2295   -0.5563 C.ar    1  UNL1       -0.0233
      6 C          -0.4455   -0.8505   -0.5447 C.3     1  UNL1        0.0341
      7 N           0.3513   -0.4050    0.5551 N.pl3   1  UNL1       -0.3449
      8 C           1.6861   -0.9587    0.6453 C.2     1  UNL1        0.0025
      9 C           2.6764   -0.1695    0.2599 C.2     1  UNL1        0.0584
     10 C           2.3945    1.1875   -0.2266 C.2     1  UNL1        0.2523
     11 O           1.2079    1.5812   -0.2697 O.2     1  UNL1       -0.2697
     12 N           3.4650    1.9983   -0.6273 N.am    1  UNL1       -0.2483
     13 C           4.7883    1.5004   -0.5571 C.2     1  UNL1        0.2511
     14 O           5.7628    2.2413   -0.9229 O.2     1  UNL1       -0.2698
     15 C           5.0826    0.1526   -0.0751 C.ar    1  UNL1        0.0451
     16 C           6.3994   -0.2889   -0.0256 C.ar    1  UNL1       -0.0480
     17 C           6.6680   -1.5406    0.4224 C.ar    1  UNL1       -0.0470
     18 C           5.6637   -2.3855    0.8301 C.ar    1  UNL1        0.0185
     19 BR          6.0942   -4.1531    1.4582 Br      1  UNL1       -0.0503
     20 C           4.3600   -1.9547    0.7834 C.ar    1  UNL1       -0.0391
     21 C           4.0481   -0.6958    0.3365 C.ar    1  UNL1        0.0014
     22 C          -2.0097    0.9561   -1.2278 C.ar    1  UNL1       -0.0116
     23 C          -3.2525    1.5516   -1.2542 C.ar    1  UNL1        0.1625
     24 O          -3.3636    2.7425   -1.9561 O.3     1  UNL1       -0.5032
     25 C          -4.3185    0.9648   -0.6020 C.ar    1  UNL1        0.2033
     26 O          -5.5548    1.5965   -0.6524 O.3     1  UNL1       -0.4885
     27 C          -5.9675    2.5570    0.3131 C.3     1  UNL1        0.0791
     28 H          -4.1257   -1.8578    2.1075 H       1  UNL1        0.0660
     29 H          -5.8842   -2.3957    1.9089 H       1  UNL1        0.0660
     30 H          -4.6488   -2.8162    0.6930 H       1  UNL1        0.0660
     31 H          -2.7101   -1.7370    0.6196 H       1  UNL1        0.0658
     32 H           0.0920   -0.6195   -1.4837 H       1  UNL1        0.0511
     33 H          -0.5262   -1.9714   -0.5154 H       1  UNL1        0.0511
     34 H           0.0341    0.2753    1.2731 H       1  UNL1        0.1459
     35 H           1.7969   -1.9620    1.0137 H       1  UNL1        0.0786
     36 H           3.3365    2.9900   -0.9898 H       1  UNL1        0.1581
     37 H           7.1759    0.4129   -0.3590 H       1  UNL1        0.0626
     38 H           7.7111   -1.8657    0.4524 H       1  UNL1        0.0629
     39 H           3.5776   -2.6148    1.1017 H       1  UNL1        0.0635
     40 H          -1.1611    1.4248   -1.7480 H       1  UNL1        0.0658
     41 H          -3.1975    2.6970   -2.9575 H       1  UNL1        0.2923
     42 H          -5.0658    2.9593    0.8378 H       1  UNL1        0.0660
     43 H          -6.4877    3.4249   -0.1782 H       1  UNL1        0.0660
     44 H          -6.6834    2.1260    1.0425 H       1  UNL1        0.0660
@<TRIPOS>BOND
     1     1     2    1
     2     2     3    1
     3     3     4   ar
     4     4     5   ar
     5     5     6    1
     6     6     7    1
     7     7     8    1
     8     8     9    2
     9     9    10    1
    10    10    11    2
    11    10    12   am
    12    12    13   am
    13    13    14    2
    14    13    15    1
    15    15    16   ar
    16    16    17   ar
    17    17    18   ar
    18    18    19    1
    19    18    20   ar
    20    20    21   ar
    21     5    22   ar
    22    22    23   ar
    23    23    24    1
    24    23    25   ar
    25    25    26    1
    26    26    27    1
    27    25     3   ar
    28    21     9    1
    29    21    15   ar
    30     1    28    1
    31     1    29    1
    32     1    30    1
    33     4    31    1
    34     6    32    1
    35     6    33    1
    36     7    34    1
    37     8    35    1
    38    12    36    1
    39    16    37    1
    40    17    38    1
    41    20    39    1
    42    22    40    1
    43    24    41    1
    44    27    42    1
    45    27    43    1
    46    27    44    1
