@<TRIPOS>MOLECULE
*****
 57 57 0 0 0
SMALL
GASTEIGER

@<TRIPOS>ATOM
      1 CB         -3.6633    0.3921    1.1083 C.3     1  ILE1       -0.0153
      2 CG2        -2.9165    0.1694    2.3908 C.3     1  ILE1       -0.0602
      3 CG1        -5.0230    0.9772    1.3815 C.3     1  ILE1       -0.0511
      4 CD1        -5.8203    1.2244    0.1408 C.3     1  ILE1       -0.0650
      5 CA         -2.8860    1.1551    0.0862 C.3     1  ILE1        0.1228
      6 N          -1.6625    0.4629   -0.2709 N.am    1  ILE1       -0.3006
      7 C          -1.2975    0.0067   -1.5864 C.2     1  ILE1        0.2343
      8 O          -2.2200    0.3048   -2.4008 O.2     1  ILE1       -0.2738
      9 CA         -0.0340   -0.6819   -1.8288 C.3     1  ILE1        0.1020
     10 N           0.7961   -0.8583   -0.6509 N.am    1  ILE1       -0.3015
     11 C           2.0729   -0.2276   -0.5333 C.2     0  UNK0        0.2457
     12 O           2.4848    0.5075   -1.4939 O.2     0  UNK0       -0.2728
     13 C           2.9377   -0.3953    0.6638 C.3     0  UNK0        0.1717
     14 O           4.2468   -0.8130    0.2842 O.3     0  UNK0       -0.3467
     15 C           4.1040    0.4871    0.7803 C.3     0  UNK0        0.1904
     16 C           4.8101    0.6615    2.0730 C.2     0  UNK0        0.3394
     17 O           4.9861   -0.0502    3.0740 O.2     0  UNK0       -0.2478
     18 O           5.4722    1.8481    2.3659 O.3     0  UNK0       -0.4630
     19 C           6.1295    1.9607    3.6137 C.3     0  UNK0        0.0897
     20 C           7.1989    0.9059    3.7665 C.3     0  UNK0       -0.0306
     21 CB         -0.1241   -1.9444   -2.6333 C.3     1  ILE1       -0.0171
     22 CG2        -0.9650   -3.0313   -2.0749 C.3     1  ILE1       -0.0603
     23 CG1        -0.5583   -1.6804   -4.0596 C.3     1  ILE1       -0.0512
     24 CD1        -0.6439   -2.9642   -4.8565 C.3     1  ILE1       -0.0650
     25 C          -2.5861    2.5496    0.5395 C.2     1  ILE1        0.3255
     26 O          -1.6242    3.4955    0.7739 O.3     1  ILE1       -0.4793
     27 OXT        -3.4123    3.4429    0.9281 O.2     1  ILE1       -0.2489
     28 HB         -3.8548   -0.6195    0.6844 H       1  ILE1        0.0321
     29 HG21       -2.1980    0.9792    2.6454 H       1  ILE1        0.0233
     30 HG22       -2.2765   -0.7542    2.3020 H       1  ILE1        0.0233
     31 HG23       -3.6116   -0.0311    3.2300 H       1  ILE1        0.0233
     32 HG11       -5.6207    0.3422    2.0653 H       1  ILE1        0.0266
     33 HG12       -4.9253    1.9537    1.9065 H       1  ILE1        0.0266
     34 HD11       -5.6723    2.2717   -0.2262 H       1  ILE1        0.0230
     35 HD12       -6.8961    1.1744    0.4078 H       1  ILE1        0.0230
     36 HD13       -5.6598    0.4780   -0.6663 H       1  ILE1        0.0230
     37 HA         -3.4629    1.2571   -0.8331 H       1  ILE1        0.0617
     38 H          -1.0237    0.3123    0.5632 H       1  ILE1        0.1496
     39 HA          0.5778    0.0036   -2.4910 H       1  ILE1        0.0597
     40 H           0.4406   -1.4700    0.1353 H       1  ILE1        0.1495
     41 H           2.5666   -1.0394    1.4961 H       0  UNK0        0.0726
     42 H           4.1472    1.3475    0.0958 H       0  UNK0        0.0745
     43 H           6.6195    2.9532    3.7103 H       0  UNK0        0.0694
     44 H           5.4171    1.8777    4.4646 H       0  UNK0        0.0694
     45 H           7.2806    0.3191    2.8258 H       0  UNK0        0.0262
     46 H           7.0386    0.2596    4.6537 H       0  UNK0        0.0262
     47 H           8.2117    1.3704    3.9409 H       0  UNK0        0.0262
     48 HB          0.9220   -2.3415   -2.6977 H       1  ILE1        0.0321
     49 HG21       -0.8689   -3.1345   -0.9638 H       1  ILE1        0.0233
     50 HG22       -0.5886   -4.0004   -2.4770 H       1  ILE1        0.0233
     51 HG23       -2.0288   -2.9993   -2.3915 H       1  ILE1        0.0233
     52 HG11       -1.5219   -1.1424   -4.1146 H       1  ILE1        0.0266
     53 HG12        0.2270   -1.0499   -4.5305 H       1  ILE1        0.0266
     54 HD11       -1.3675   -3.6521   -4.3364 H       1  ILE1        0.0230
     55 HD12       -1.0224   -2.7209   -5.8598 H       1  ILE1        0.0230
     56 HD13        0.3758   -3.4050   -4.8698 H       1  ILE1        0.0230
     57 H          -1.0269    3.5557    1.5781 H       1  ILE1        0.2951
@<TRIPOS>BOND
     1     1     2    1
     2     1     3    1
     3     3     4    1
     4     1     5    1
     5     5     6    1
     6     6     7   am
     7     7     8    2
     8     7     9    1
     9     9    10    1
    10    10    11   am
    11    11    12    2
    12    11    13    1
    13    13    14    1
    14    14    15    1
    15    15    16    1
    16    16    17    2
    17    16    18    1
    18    18    19    1
    19    19    20    1
    20     9    21    1
    21    21    22    1
    22    21    23    1
    23    23    24    1
    24     5    25    1
    25    25    26    1
    26    25    27    2
    27    15    13    1
    28     1    28    1
    29     2    29    1
    30     2    30    1
    31     2    31    1
    32     3    32    1
    33     3    33    1
    34     4    34    1
    35     4    35    1
    36     4    36    1
    37     5    37    1
    38     6    38    1
    39     9    39    1
    40    10    40    1
    41    13    41    1
    42    15    42    1
    43    19    43    1
    44    19    44    1
    45    20    45    1
    46    20    46    1
    47    20    47    1
    48    21    48    1
    49    22    49    1
    50    22    50    1
    51    22    51    1
    52    23    52    1
    53    23    53    1
    54    24    54    1
    55    24    55    1
    56    24    56    1
    57    26    57    1
