@<TRIPOS>MOLECULE
*****
 44 47 0 0 0
SMALL
GASTEIGER

@<TRIPOS>ATOM
      1 C           4.4082   -2.6815    2.0207 C.3     1  UNL1        0.0004
      2 N           4.1519   -1.9330    0.8110 N.am    1  UNL1       -0.3131
      3 C           2.9413   -1.2268    0.5771 C.2     1  UNL1        0.2638
      4 O           2.0644   -1.2524    1.4480 O.2     1  UNL1       -0.2685
      5 C           2.7415   -0.4895   -0.6642 C.ar    1  UNL1        0.1472
      6 C           3.5873   -0.3393   -1.7395 C.ar    1  UNL1        0.0605
      7 N           2.9805    0.4252   -2.6576 N.ar    1  UNL1       -0.2339
      8 C           1.7431    0.7814   -2.1999 C.ar    1  UNL1        0.1549
      9 C           0.7349    1.5468   -2.7490 C.ar    1  UNL1       -0.0153
     10 C          -0.4160    1.7194   -2.0178 C.ar    1  UNL1       -0.0290
     11 C          -0.5228    1.1311   -0.7791 C.ar    1  UNL1        0.1103
     12 C          -1.7393    1.3126   -0.0091 C.ar    1  UNL1        0.0968
     13 C          -2.5465    0.2568    0.3801 C.ar    1  UNL1        0.0982
     14 C          -2.3726   -1.1617    0.1292 C.ar    1  UNL1        0.0027
     15 C          -2.3636   -1.7157   -1.1300 C.ar    1  UNL1       -0.0498
     16 C          -2.1924   -3.0865   -1.3194 C.ar    1  UNL1       -0.0258
     17 C          -2.0270   -3.9231   -0.2368 C.ar    1  UNL1        0.1234
     18 F          -1.8593   -5.2615   -0.4111 F       1  UNL1       -0.2055
     19 C          -2.0353   -3.3749    1.0219 C.ar    1  UNL1       -0.0258
     20 C          -2.2054   -2.0212    1.1880 C.ar    1  UNL1       -0.0498
     21 N          -3.5602    0.8242    1.0632 N.ar    1  UNL1       -0.2351
     22 C          -3.3695    2.1558    1.0824 C.ar    1  UNL1        0.0973
     23 N          -2.2375    2.4732    0.4173 N.ar    1  UNL1       -0.3229
     24 C          -1.7349    3.8178    0.2462 C.3     1  UNL1        0.0852
     25 C          -0.8102    4.1707    1.3965 C.3     1  UNL1        0.2569
     26 F           0.2691    3.3346    1.4873 F       1  UNL1       -0.2073
     27 F          -0.3427    5.4549    1.1340 F       1  UNL1       -0.2073
     28 N           0.4976    0.4029   -0.3132 N.ar    1  UNL1       -0.1628
     29 N           1.6307    0.2102   -0.9895 N.ar    1  UNL1       -0.2076
     30 H           3.5507   -2.7110    2.7028 H       1  UNL1        0.0426
     31 H           5.2634   -2.2256    2.5784 H       1  UNL1        0.0426
     32 H           4.7284   -3.7100    1.6985 H       1  UNL1        0.0426
     33 H           4.9027   -1.9220    0.0868 H       1  UNL1        0.1487
     34 H           4.5872   -0.7731   -1.8265 H       1  UNL1        0.0854
     35 H           0.8825    1.9806   -3.7255 H       1  UNL1        0.0655
     36 H          -1.2501    2.3281   -2.4261 H       1  UNL1        0.0641
     37 H          -2.4889   -1.1008   -2.0055 H       1  UNL1        0.0625
     38 H          -2.1838   -3.5318   -2.3060 H       1  UNL1        0.0646
     39 H          -1.9106   -3.9743    1.9211 H       1  UNL1        0.0646
     40 H          -2.2136   -1.5698    2.1941 H       1  UNL1        0.0625
     41 H          -4.0389    2.8824    1.5697 H       1  UNL1        0.1029
     42 H          -1.2905    4.0176   -0.7265 H       1  UNL1        0.0548
     43 H          -2.6028    4.5364    0.3386 H       1  UNL1        0.0548
     44 H          -1.3508    4.2227    2.3585 H       1  UNL1        0.1037
@<TRIPOS>BOND
     1     1     2    1
     2     2     3   am
     3     3     4    2
     4     3     5    1
     5     5     6   ar
     6     6     7   ar
     7     7     8   ar
     8     8     9   ar
     9     9    10   ar
    10    10    11   ar
    11    11    12    1
    12    12    13   ar
    13    13    14    1
    14    14    15   ar
    15    15    16   ar
    16    16    17   ar
    17    17    18    1
    18    17    19   ar
    19    19    20   ar
    20    13    21   ar
    21    21    22   ar
    22    22    23   ar
    23    23    24    1
    24    24    25    1
    25    25    26    1
    26    25    27    1
    27    11    28   ar
    28    28    29   ar
    29    29     5   ar
    30    29     8   ar
    31    23    12   ar
    32    20    14   ar
    33     1    30    1
    34     1    31    1
    35     1    32    1
    36     2    33    1
    37     6    34    1
    38     9    35    1
    39    10    36    1
    40    15    37    1
    41    16    38    1
    42    19    39    1
    43    20    40    1
    44    22    41    1
    45    24    42    1
    46    24    43    1
    47    25    44    1
