
     RDKit          3D

 44 47  0  0  0  0  0  0  0  0999 V2000
    4.4082   -2.6815    2.0207 C   0  0  0  0  0  0  0  0  0  0  0  0
    4.1519   -1.9330    0.8110 N   0  0  0  0  0  0  0  0  0  0  0  0
    2.9413   -1.2268    0.5771 C   0  0  0  0  0  0  0  0  0  0  0  0
    2.0644   -1.2524    1.4480 O   0  0  0  0  0  0  0  0  0  0  0  0
    2.7415   -0.4895   -0.6642 C   0  0  0  0  0  0  0  0  0  0  0  0
    3.5873   -0.3393   -1.7395 C   0  0  0  0  0  0  0  0  0  0  0  0
    2.9805    0.4252   -2.6576 N   0  0  0  0  0  0  0  0  0  0  0  0
    1.7431    0.7814   -2.1999 C   0  0  0  0  0  0  0  0  0  0  0  0
    0.7349    1.5468   -2.7490 C   0  0  0  0  0  0  0  0  0  0  0  0
   -0.4160    1.7194   -2.0178 C   0  0  0  0  0  0  0  0  0  0  0  0
   -0.5228    1.1311   -0.7791 C   0  0  0  0  0  0  0  0  0  0  0  0
   -1.7393    1.3126   -0.0091 C   0  0  0  0  0  0  0  0  0  0  0  0
   -2.5465    0.2568    0.3801 C   0  0  0  0  0  0  0  0  0  0  0  0
   -2.3726   -1.1617    0.1292 C   0  0  0  0  0  0  0  0  0  0  0  0
   -2.3636   -1.7157   -1.1300 C   0  0  0  0  0  0  0  0  0  0  0  0
   -2.1924   -3.0865   -1.3194 C   0  0  0  0  0  0  0  0  0  0  0  0
   -2.0270   -3.9231   -0.2368 C   0  0  0  0  0  0  0  0  0  0  0  0
   -1.8593   -5.2615   -0.4111 F   0  0  0  0  0  0  0  0  0  0  0  0
   -2.0353   -3.3749    1.0219 C   0  0  0  0  0  0  0  0  0  0  0  0
   -2.2054   -2.0212    1.1880 C   0  0  0  0  0  0  0  0  0  0  0  0
   -3.5602    0.8242    1.0632 N   0  0  0  0  0  0  0  0  0  0  0  0
   -3.3695    2.1558    1.0824 C   0  0  0  0  0  0  0  0  0  0  0  0
   -2.2375    2.4732    0.4173 N   0  0  0  0  0  0  0  0  0  0  0  0
   -1.7349    3.8178    0.2462 C   0  0  0  0  0  0  0  0  0  0  0  0
   -0.8102    4.1707    1.3965 C   0  0  0  0  0  0  0  0  0  0  0  0
    0.2691    3.3346    1.4873 F   0  0  0  0  0  0  0  0  0  0  0  0
   -0.3427    5.4549    1.1340 F   0  0  0  0  0  0  0  0  0  0  0  0
    0.4976    0.4029   -0.3132 N   0  0  0  0  0  0  0  0  0  0  0  0
    1.6307    0.2102   -0.9895 N   0  0  0  0  0  0  0  0  0  0  0  0
    3.5507   -2.7110    2.7028 H   0  0  0  0  0  0  0  0  0  0  0  0
    5.2634   -2.2256    2.5784 H   0  0  0  0  0  0  0  0  0  0  0  0
    4.7284   -3.7100    1.6985 H   0  0  0  0  0  0  0  0  0  0  0  0
    4.9027   -1.9220    0.0868 H   0  0  0  0  0  0  0  0  0  0  0  0
    4.5872   -0.7731   -1.8265 H   0  0  0  0  0  0  0  0  0  0  0  0
    0.8825    1.9806   -3.7255 H   0  0  0  0  0  0  0  0  0  0  0  0
   -1.2501    2.3281   -2.4261 H   0  0  0  0  0  0  0  0  0  0  0  0
   -2.4889   -1.1008   -2.0055 H   0  0  0  0  0  0  0  0  0  0  0  0
   -2.1838   -3.5318   -2.3060 H   0  0  0  0  0  0  0  0  0  0  0  0
   -1.9106   -3.9743    1.9211 H   0  0  0  0  0  0  0  0  0  0  0  0
   -2.2136   -1.5698    2.1941 H   0  0  0  0  0  0  0  0  0  0  0  0
   -4.0389    2.8824    1.5697 H   0  0  0  0  0  0  0  0  0  0  0  0
   -1.2905    4.0176   -0.7265 H   0  0  0  0  0  0  0  0  0  0  0  0
   -2.6028    4.5364    0.3386 H   0  0  0  0  0  0  0  0  0  0  0  0
   -1.3508    4.2227    2.3585 H   0  0  0  0  0  0  0  0  0  0  0  0
  1  2  1  0
  2  3  1  0
  3  4  2  0
  3  5  1  0
  5  6  2  0
  6  7  1  0
  7  8  2  0
  8  9  1  0
  9 10  2  0
 10 11  1  0
 11 12  1  0
 12 13  2  0
 13 14  1  0
 14 15  2  0
 15 16  1  0
 16 17  2  0
 17 18  1  0
 17 19  1  0
 19 20  2  0
 13 21  1  0
 21 22  2  0
 22 23  1  0
 23 24  1  0
 24 25  1  0
 25 26  1  0
 25 27  1  0
 11 28  2  0
 28 29  1  0
 29  5  1  0
 29  8  1  0
 23 12  1  0
 20 14  1  0
  1 30  1  0
  1 31  1  0
  1 32  1  0
  2 33  1  0
  6 34  1  0
  9 35  1  0
 10 36  1  0
 15 37  1  0
 16 38  1  0
 19 39  1  0
 20 40  1  0
 22 41  1  0
 24 42  1  0
 24 43  1  0
 25 44  1  0
M  END
$$$$
