@<TRIPOS>MOLECULE
*****
 33 34 0 0 0
SMALL
GASTEIGER

@<TRIPOS>ATOM
      1 O           6.0858    0.6636   -0.5615 O.2     1  UNL1       -0.2472
      2 C           5.0994    0.4691    0.2181 C.2     1  UNL1        0.3427
      3 O           4.2000    1.4925    0.3582 O.3     1  UNL1       -0.4783
      4 C           4.9950   -0.8169    0.9044 C.3     1  UNL1        0.1857
      5 O           3.8363   -0.8718    1.6651 O.3     1  UNL1       -0.4808
      6 C           2.5369   -0.7863    1.1850 C.ar    1  UNL1        0.1215
      7 C           1.4753   -0.8458    2.0955 C.ar    1  UNL1       -0.0165
      8 C           0.1725   -0.7647    1.6507 C.ar    1  UNL1       -0.0165
      9 C          -0.1453   -0.6246    0.3208 C.ar    1  UNL1        0.1208
     10 O          -1.4545   -0.5472   -0.0831 O.3     1  UNL1       -0.4902
     11 C          -1.8112   -0.4029   -1.4438 C.3     1  UNL1        0.1074
     12 C          -3.3280   -0.3440   -1.6002 C.3     1  UNL1        0.0583
     13 N          -3.8698    0.7877   -0.8603 N.ar    1  UNL1       -0.3336
     14 C          -4.2717    0.7493    0.4171 C.ar    1  UNL1        0.0241
     15 C          -4.7102    2.0217    0.7201 C.ar    1  UNL1        0.0454
     16 N          -4.5709    2.8069   -0.3631 N.ar    1  UNL1       -0.2441
     17 C          -4.0524    2.0357   -1.3299 C.ar    1  UNL1        0.0960
     18 C           0.8841   -0.5649   -0.5844 C.ar    1  UNL1       -0.0165
     19 C           2.1983   -0.6464   -0.1402 C.ar    1  UNL1       -0.0165
     20 H           4.2953    2.4221    0.0147 H       1  UNL1        0.2952
     21 H           5.0414   -1.6449    0.1425 H       1  UNL1        0.0815
     22 H           5.8554   -1.0203    1.5866 H       1  UNL1        0.0815
     23 H           1.7187   -0.9570    3.1534 H       1  UNL1        0.0655
     24 H          -0.6553   -0.8108    2.3576 H       1  UNL1        0.0655
     25 H          -1.4612   -1.3199   -1.9599 H       1  UNL1        0.0714
     26 H          -1.3168    0.4667   -1.8999 H       1  UNL1        0.0714
     27 H          -3.7126   -1.3065   -1.2097 H       1  UNL1        0.0526
     28 H          -3.5864   -0.3080   -2.6769 H       1  UNL1        0.0526
     29 H          -4.2774   -0.0731    1.1174 H       1  UNL1        0.0825
     30 H          -5.1079    2.3531    1.6776 H       1  UNL1        0.0845
     31 H          -3.8036    2.3449   -2.3577 H       1  UNL1        0.1029
     32 H           0.7121   -0.4548   -1.6521 H       1  UNL1        0.0655
     33 H           3.0286   -0.6089   -0.8623 H       1  UNL1        0.0655
@<TRIPOS>BOND
     1     1     2    2
     2     2     3    1
     3     2     4    1
     4     4     5    1
     5     5     6    1
     6     6     7   ar
     7     7     8   ar
     8     8     9   ar
     9     9    10    1
    10    10    11    1
    11    11    12    1
    12    12    13    1
    13    13    14   ar
    14    14    15   ar
    15    15    16   ar
    16    16    17   ar
    17     9    18   ar
    18    18    19   ar
    19    19     6   ar
    20    17    13   ar
    21     3    20    1
    22     4    21    1
    23     4    22    1
    24     7    23    1
    25     8    24    1
    26    11    25    1
    27    11    26    1
    28    12    27    1
    29    12    28    1
    30    14    29    1
    31    15    30    1
    32    17    31    1
    33    18    32    1
    34    19    33    1
