
     RDKit          3D

 33 34  0  0  0  0  0  0  0  0999 V2000
    6.0858    0.6636   -0.5615 O   0  0  0  0  0  0  0  0  0  0  0  0
    5.0994    0.4691    0.2181 C   0  0  0  0  0  0  0  0  0  0  0  0
    4.2000    1.4925    0.3582 O   0  0  0  0  0  0  0  0  0  0  0  0
    4.9950   -0.8169    0.9044 C   0  0  0  0  0  0  0  0  0  0  0  0
    3.8363   -0.8718    1.6651 O   0  0  0  0  0  0  0  0  0  0  0  0
    2.5369   -0.7863    1.1850 C   0  0  0  0  0  0  0  0  0  0  0  0
    1.4753   -0.8458    2.0955 C   0  0  0  0  0  0  0  0  0  0  0  0
    0.1725   -0.7647    1.6507 C   0  0  0  0  0  0  0  0  0  0  0  0
   -0.1453   -0.6246    0.3208 C   0  0  0  0  0  0  0  0  0  0  0  0
   -1.4545   -0.5472   -0.0831 O   0  0  0  0  0  0  0  0  0  0  0  0
   -1.8112   -0.4029   -1.4438 C   0  0  0  0  0  0  0  0  0  0  0  0
   -3.3280   -0.3440   -1.6002 C   0  0  0  0  0  0  0  0  0  0  0  0
   -3.8698    0.7877   -0.8603 N   0  0  0  0  0  0  0  0  0  0  0  0
   -4.2717    0.7493    0.4171 C   0  0  0  0  0  0  0  0  0  0  0  0
   -4.7102    2.0217    0.7201 C   0  0  0  0  0  0  0  0  0  0  0  0
   -4.5709    2.8069   -0.3631 N   0  0  0  0  0  0  0  0  0  0  0  0
   -4.0524    2.0357   -1.3299 C   0  0  0  0  0  0  0  0  0  0  0  0
    0.8841   -0.5649   -0.5844 C   0  0  0  0  0  0  0  0  0  0  0  0
    2.1983   -0.6464   -0.1402 C   0  0  0  0  0  0  0  0  0  0  0  0
    4.2953    2.4221    0.0147 H   0  0  0  0  0  0  0  0  0  0  0  0
    5.0414   -1.6449    0.1425 H   0  0  0  0  0  0  0  0  0  0  0  0
    5.8554   -1.0203    1.5866 H   0  0  0  0  0  0  0  0  0  0  0  0
    1.7187   -0.9570    3.1534 H   0  0  0  0  0  0  0  0  0  0  0  0
   -0.6553   -0.8108    2.3576 H   0  0  0  0  0  0  0  0  0  0  0  0
   -1.4612   -1.3199   -1.9599 H   0  0  0  0  0  0  0  0  0  0  0  0
   -1.3168    0.4667   -1.8999 H   0  0  0  0  0  0  0  0  0  0  0  0
   -3.7126   -1.3065   -1.2097 H   0  0  0  0  0  0  0  0  0  0  0  0
   -3.5864   -0.3080   -2.6769 H   0  0  0  0  0  0  0  0  0  0  0  0
   -4.2774   -0.0731    1.1174 H   0  0  0  0  0  0  0  0  0  0  0  0
   -5.1079    2.3531    1.6776 H   0  0  0  0  0  0  0  0  0  0  0  0
   -3.8036    2.3449   -2.3577 H   0  0  0  0  0  0  0  0  0  0  0  0
    0.7121   -0.4548   -1.6521 H   0  0  0  0  0  0  0  0  0  0  0  0
    3.0286   -0.6089   -0.8623 H   0  0  0  0  0  0  0  0  0  0  0  0
  1  2  2  0
  2  3  1  0
  2  4  1  0
  4  5  1  0
  5  6  1  0
  6  7  2  0
  7  8  1  0
  8  9  2  0
  9 10  1  0
 10 11  1  0
 11 12  1  0
 12 13  1  0
 13 14  1  0
 14 15  2  0
 15 16  1  0
 16 17  2  0
  9 18  1  0
 18 19  2  0
 19  6  1  0
 17 13  1  0
  3 20  1  0
  4 21  1  0
  4 22  1  0
  7 23  1  0
  8 24  1  0
 11 25  1  0
 11 26  1  0
 12 27  1  0
 12 28  1  0
 14 29  1  0
 15 30  1  0
 17 31  1  0
 18 32  1  0
 19 33  1  0
M  END
$$$$
