@<TRIPOS>MOLECULE
*****
 53 56 0 0 0
SMALL
GASTEIGER

@<TRIPOS>ATOM
      1 C           7.4203    2.7166   -0.1298 C.3     1  UNL1        0.0788
      2 O           6.9313    1.3939   -0.0430 O.3     1  UNL1       -0.4951
      3 C           5.5983    1.1878   -0.3622 C.ar    1  UNL1        0.1201
      4 C           4.7470    2.1986   -0.7529 C.ar    1  UNL1       -0.0197
      5 C           3.4225    1.8995   -1.0547 C.ar    1  UNL1       -0.0550
      6 C           2.9403    0.6130   -0.9720 C.ar    1  UNL1       -0.0446
      7 C           1.5218    0.2790   -1.2931 C.3     1  UNL1        0.0013
      8 C           0.7102    0.3943   -0.0393 C.3     1  UNL1        0.0930
      9 O           1.1961   -0.4785    0.8989 O.3     1  UNL1       -0.3357
     10 C           0.1835   -1.3865    1.2289 C.3     1  UNL1        0.2112
     11 C           0.3419   -1.6672    2.6632 C.2     1  UNL1       -0.0177
     12 C           0.4798   -2.8742    3.1401 C.2     1  UNL1       -0.0135
     13 C           0.4812   -4.0136    2.2419 C.2     1  UNL1        0.1787
     14 O           0.6150   -5.1896    2.7015 O.2     1  UNL1       -0.2879
     15 C           0.3281   -3.7943    0.8146 C.2     1  UNL1       -0.0135
     16 C           0.1917   -2.5697    0.3669 C.2     1  UNL1       -0.0177
     17 O          -1.0055   -0.7022    0.9540 O.3     1  UNL1       -0.3357
     18 C          -0.7354    0.0086   -0.2387 C.3     1  UNL1        0.0930
     19 C          -1.6330    1.2151   -0.2242 C.3     1  UNL1        0.0013
     20 C          -3.0472    0.9096   -0.4122 C.ar    1  UNL1       -0.0446
     21 C          -3.6893    0.8503   -1.6308 C.ar    1  UNL1       -0.0550
     22 C          -5.0177    0.5600   -1.7608 C.ar    1  UNL1       -0.0197
     23 C          -5.7788    0.3111   -0.6562 C.ar    1  UNL1        0.1201
     24 O          -7.1447    0.0120   -0.7797 O.3     1  UNL1       -0.4951
     25 C          -7.8937   -0.2394    0.3980 C.3     1  UNL1        0.0788
     26 C          -5.1817    0.3587    0.5851 C.ar    1  UNL1       -0.0197
     27 C          -3.8223    0.6568    0.7018 C.ar    1  UNL1       -0.0550
     28 C           3.8155   -0.3760   -0.5786 C.ar    1  UNL1       -0.0550
     29 C           5.1171   -0.1035   -0.2785 C.ar    1  UNL1       -0.0197
     30 H           6.7453    3.3565    0.4896 H       1  UNL1        0.0660
     31 H           8.4624    2.7268    0.2542 H       1  UNL1        0.0660
     32 H           7.3815    3.0037   -1.2063 H       1  UNL1        0.0660
     33 H           5.1238    3.2029   -0.8173 H       1  UNL1        0.0654
     34 H           2.7566    2.7177   -1.3648 H       1  UNL1        0.0621
     35 H           1.5310   -0.7655   -1.6658 H       1  UNL1        0.0339
     36 H           1.1327    0.9114   -2.1195 H       1  UNL1        0.0339
     37 H           0.7169    1.4538    0.2884 H       1  UNL1        0.0626
     38 H           0.3433   -0.8370    3.3435 H       1  UNL1        0.0630
     39 H           0.5973   -3.0687    4.2159 H       1  UNL1        0.0654
     40 H           0.3315   -4.6640    0.1534 H       1  UNL1        0.0654
     41 H           0.0769   -2.4063   -0.6979 H       1  UNL1        0.0630
     42 H          -0.8152   -0.5980   -1.1322 H       1  UNL1        0.0626
     43 H          -1.3126    1.8563   -1.0945 H       1  UNL1        0.0339
     44 H          -1.4741    1.8456    0.6723 H       1  UNL1        0.0339
     45 H          -3.1001    1.0443   -2.5043 H       1  UNL1        0.0621
     46 H          -5.4690    0.5283   -2.7592 H       1  UNL1        0.0654
     47 H          -7.8197    0.6406    1.0609 H       1  UNL1        0.0660
     48 H          -7.4097   -1.0946    0.9440 H       1  UNL1        0.0660
     49 H          -8.9217   -0.5205    0.1634 H       1  UNL1        0.0660
     50 H          -5.8079    0.1574    1.4435 H       1  UNL1        0.0654
     51 H          -3.4283    0.6757    1.6993 H       1  UNL1        0.0621
     52 H           3.4920   -1.4085   -0.4955 H       1  UNL1        0.0621
     53 H           5.7747   -0.9283    0.0304 H       1  UNL1        0.0654
@<TRIPOS>BOND
     1     1     2    1
     2     2     3    1
     3     3     4   ar
     4     4     5   ar
     5     5     6   ar
     6     6     7    1
     7     7     8    1
     8     8     9    1
     9     9    10    1
    10    10    11    1
    11    11    12    2
    12    12    13    1
    13    13    14    2
    14    13    15    1
    15    15    16    2
    16    10    17    1
    17    17    18    1
    18    18    19    1
    19    19    20    1
    20    20    21   ar
    21    21    22   ar
    22    22    23   ar
    23    23    24    1
    24    24    25    1
    25    23    26   ar
    26    26    27   ar
    27     6    28   ar
    28    28    29   ar
    29    29     3   ar
    30    18     8    1
    31    27    20   ar
    32    16    10    1
    33     1    30    1
    34     1    31    1
    35     1    32    1
    36     4    33    1
    37     5    34    1
    38     7    35    1
    39     7    36    1
    40     8    37    1
    41    11    38    1
    42    12    39    1
    43    15    40    1
    44    16    41    1
    45    18    42    1
    46    19    43    1
    47    19    44    1
    48    21    45    1
    49    22    46    1
    50    25    47    1
    51    25    48    1
    52    25    49    1
    53    26    50    1
    54    27    51    1
    55    28    52    1
    56    29    53    1
