@<TRIPOS>MOLECULE
*****
 52 55 0 0 0
SMALL
GASTEIGER

@<TRIPOS>ATOM
      1 C           6.4918   -2.3272   -2.3097 C.3     1  UNL1        0.0790
      2 O           6.7249   -1.1453   -1.5667 O.3     1  UNL1       -0.4913
      3 C           5.6383   -0.5265   -0.9374 C.ar    1  UNL1        0.1650
      4 C           4.3645   -1.0463   -1.0314 C.ar    1  UNL1        0.0267
      5 C           3.2635   -0.4578   -0.4195 C.ar    1  UNL1        0.1430
      6 O           2.0618   -0.9673   -0.5208 O.2     1  UNL1       -0.4545
      7 C           1.0067   -0.4004    0.0675 C.ar    1  UNL1        0.1396
      8 C          -0.2498   -0.9691   -0.0627 C.ar    1  UNL1       -0.0142
      9 C          -1.3951   -0.4625    0.5033 C.ar    1  UNL1       -0.0299
     10 C          -2.7318   -1.0897    0.3498 C.3     1  UNL1        0.0242
     11 N          -3.4449   -0.6141   -0.7675 N.3     1  UNL1       -0.2970
     12 C          -2.8652   -0.7555   -2.0484 C.3     1  UNL1       -0.0121
     13 C          -4.3207    0.4588   -0.5344 C.3     1  UNL1        0.0241
     14 C          -5.4318    0.2376    0.3953 C.ar    1  UNL1       -0.0334
     15 C          -5.3283    0.5621    1.7219 C.ar    1  UNL1       -0.0573
     16 C          -6.3660    0.3521    2.6243 C.ar    1  UNL1       -0.0615
     17 C          -7.5304   -0.1945    2.1846 C.ar    1  UNL1       -0.0617
     18 C          -7.6539   -0.5282    0.8494 C.ar    1  UNL1       -0.0615
     19 C          -6.6190   -0.3160   -0.0372 C.ar    1  UNL1       -0.0573
     20 C          -1.2441    0.6890    1.2423 C.ar    1  UNL1       -0.0564
     21 C           0.0088    1.2876    1.3930 C.ar    1  UNL1       -0.0471
     22 C           1.1178    0.7494    0.8132 C.ar    1  UNL1        0.0646
     23 C           2.3820    1.3298    0.9496 C.ar    1  UNL1        0.2003
     24 O           2.4987    2.3672    1.6192 O.2     1  UNL1       -0.2864
     25 C           3.4279    0.6947    0.3176 C.ar    1  UNL1        0.0683
     26 C           4.7048    1.2193    0.4141 C.ar    1  UNL1       -0.0019
     27 C           5.7909    0.6270   -0.1974 C.ar    1  UNL1        0.1624
     28 O           7.0765    1.1445   -0.1073 O.3     1  UNL1       -0.4914
     29 C           7.3173    2.3336    0.6390 C.3     1  UNL1        0.0790
     30 H           5.6750   -2.2042   -3.0457 H       1  UNL1        0.0660
     31 H           6.2028   -3.1800   -1.6589 H       1  UNL1        0.0660
     32 H           7.4497   -2.6161   -2.7901 H       1  UNL1        0.0660
     33 H           4.2466   -1.9510   -1.6120 H       1  UNL1        0.0692
     34 H          -0.3483   -1.8773   -0.6494 H       1  UNL1        0.0658
     35 H          -2.6014   -2.1990    0.2842 H       1  UNL1        0.0476
     36 H          -3.2897   -0.8580    1.2803 H       1  UNL1        0.0476
     37 H          -2.1020    0.0251   -2.2203 H       1  UNL1        0.0391
     38 H          -2.2905   -1.7281   -2.0490 H       1  UNL1        0.0391
     39 H          -3.5883   -0.8572   -2.8782 H       1  UNL1        0.0391
     40 H          -3.6904    1.3373   -0.1987 H       1  UNL1        0.0476
     41 H          -4.7381    0.8313   -1.5223 H       1  UNL1        0.0476
     42 H          -4.4430    1.0065    2.1478 H       1  UNL1        0.0621
     43 H          -6.2873    0.6071    3.6731 H       1  UNL1        0.0618
     44 H          -8.3760   -0.3787    2.8588 H       1  UNL1        0.0618
     45 H          -8.6007   -0.9631    0.5356 H       1  UNL1        0.0618
     46 H          -6.7907   -0.6034   -1.0680 H       1  UNL1        0.0621
     47 H          -2.1061    1.1328    1.7098 H       1  UNL1        0.0621
     48 H           0.0960    2.1911    1.9791 H       1  UNL1        0.0626
     49 H           4.8326    2.1295    0.9966 H       1  UNL1        0.0663
     50 H           6.6583    3.1477    0.2659 H       1  UNL1        0.0660
     51 H           7.0157    2.1859    1.7131 H       1  UNL1        0.0660
     52 H           8.3806    2.5695    0.5560 H       1  UNL1        0.0660
@<TRIPOS>BOND
     1     1     2    1
     2     2     3    1
     3     3     4   ar
     4     4     5   ar
     5     5     6   ar
     6     6     7   ar
     7     7     8   ar
     8     8     9   ar
     9     9    10    1
    10    10    11    1
    11    11    12    1
    12    11    13    1
    13    13    14    1
    14    14    15   ar
    15    15    16   ar
    16    16    17   ar
    17    17    18   ar
    18    18    19   ar
    19     9    20   ar
    20    20    21   ar
    21    21    22   ar
    22    22    23   ar
    23    23    24    2
    24    23    25   ar
    25    25    26   ar
    26    26    27   ar
    27    27    28    1
    28    28    29    1
    29    27     3   ar
    30    25     5   ar
    31    22     7   ar
    32    19    14   ar
    33     1    30    1
    34     1    31    1
    35     1    32    1
    36     4    33    1
    37     8    34    1
    38    10    35    1
    39    10    36    1
    40    12    37    1
    41    12    38    1
    42    12    39    1
    43    13    40    1
    44    13    41    1
    45    15    42    1
    46    16    43    1
    47    17    44    1
    48    18    45    1
    49    19    46    1
    50    20    47    1
    51    21    48    1
    52    26    49    1
    53    29    50    1
    54    29    51    1
    55    29    52    1
