
     RDKit          3D

 52 55  0  0  0  0  0  0  0  0999 V2000
    6.4918   -2.3272   -2.3097 C   0  0  0  0  0  0  0  0  0  0  0  0
    6.7249   -1.1453   -1.5667 O   0  0  0  0  0  0  0  0  0  0  0  0
    5.6383   -0.5265   -0.9374 C   0  0  0  0  0  0  0  0  0  0  0  0
    4.3645   -1.0463   -1.0314 C   0  0  0  0  0  0  0  0  0  0  0  0
    3.2635   -0.4578   -0.4195 C   0  0  0  0  0  0  0  0  0  0  0  0
    2.0618   -0.9673   -0.5208 O   0  0  0  0  0  0  0  0  0  0  0  0
    1.0067   -0.4004    0.0675 C   0  0  0  0  0  0  0  0  0  0  0  0
   -0.2498   -0.9691   -0.0627 C   0  0  0  0  0  0  0  0  0  0  0  0
   -1.3951   -0.4625    0.5033 C   0  0  0  0  0  0  0  0  0  0  0  0
   -2.7318   -1.0897    0.3498 C   0  0  0  0  0  0  0  0  0  0  0  0
   -3.4449   -0.6141   -0.7675 N   0  0  0  0  0  0  0  0  0  0  0  0
   -2.8652   -0.7555   -2.0484 C   0  0  0  0  0  0  0  0  0  0  0  0
   -4.3207    0.4588   -0.5344 C   0  0  0  0  0  0  0  0  0  0  0  0
   -5.4318    0.2376    0.3953 C   0  0  0  0  0  0  0  0  0  0  0  0
   -5.3283    0.5621    1.7219 C   0  0  0  0  0  0  0  0  0  0  0  0
   -6.3660    0.3521    2.6243 C   0  0  0  0  0  0  0  0  0  0  0  0
   -7.5304   -0.1945    2.1846 C   0  0  0  0  0  0  0  0  0  0  0  0
   -7.6539   -0.5282    0.8494 C   0  0  0  0  0  0  0  0  0  0  0  0
   -6.6190   -0.3160   -0.0372 C   0  0  0  0  0  0  0  0  0  0  0  0
   -1.2441    0.6890    1.2423 C   0  0  0  0  0  0  0  0  0  0  0  0
    0.0088    1.2876    1.3930 C   0  0  0  0  0  0  0  0  0  0  0  0
    1.1178    0.7494    0.8132 C   0  0  0  0  0  0  0  0  0  0  0  0
    2.3820    1.3298    0.9496 C   0  0  0  0  0  0  0  0  0  0  0  0
    2.4987    2.3672    1.6192 O   0  0  0  0  0  0  0  0  0  0  0  0
    3.4279    0.6947    0.3176 C   0  0  0  0  0  0  0  0  0  0  0  0
    4.7048    1.2193    0.4141 C   0  0  0  0  0  0  0  0  0  0  0  0
    5.7909    0.6270   -0.1974 C   0  0  0  0  0  0  0  0  0  0  0  0
    7.0765    1.1445   -0.1073 O   0  0  0  0  0  0  0  0  0  0  0  0
    7.3173    2.3336    0.6390 C   0  0  0  0  0  0  0  0  0  0  0  0
    5.6750   -2.2042   -3.0457 H   0  0  0  0  0  0  0  0  0  0  0  0
    6.2028   -3.1800   -1.6589 H   0  0  0  0  0  0  0  0  0  0  0  0
    7.4497   -2.6161   -2.7901 H   0  0  0  0  0  0  0  0  0  0  0  0
    4.2466   -1.9510   -1.6120 H   0  0  0  0  0  0  0  0  0  0  0  0
   -0.3483   -1.8773   -0.6494 H   0  0  0  0  0  0  0  0  0  0  0  0
   -2.6014   -2.1990    0.2842 H   0  0  0  0  0  0  0  0  0  0  0  0
   -3.2897   -0.8580    1.2803 H   0  0  0  0  0  0  0  0  0  0  0  0
   -2.1020    0.0251   -2.2203 H   0  0  0  0  0  0  0  0  0  0  0  0
   -2.2905   -1.7281   -2.0490 H   0  0  0  0  0  0  0  0  0  0  0  0
   -3.5883   -0.8572   -2.8782 H   0  0  0  0  0  0  0  0  0  0  0  0
   -3.6904    1.3373   -0.1987 H   0  0  0  0  0  0  0  0  0  0  0  0
   -4.7381    0.8313   -1.5223 H   0  0  0  0  0  0  0  0  0  0  0  0
   -4.4430    1.0065    2.1478 H   0  0  0  0  0  0  0  0  0  0  0  0
   -6.2873    0.6071    3.6731 H   0  0  0  0  0  0  0  0  0  0  0  0
   -8.3760   -0.3787    2.8588 H   0  0  0  0  0  0  0  0  0  0  0  0
   -8.6007   -0.9631    0.5356 H   0  0  0  0  0  0  0  0  0  0  0  0
   -6.7907   -0.6034   -1.0680 H   0  0  0  0  0  0  0  0  0  0  0  0
   -2.1061    1.1328    1.7098 H   0  0  0  0  0  0  0  0  0  0  0  0
    0.0960    2.1911    1.9791 H   0  0  0  0  0  0  0  0  0  0  0  0
    4.8326    2.1295    0.9966 H   0  0  0  0  0  0  0  0  0  0  0  0
    6.6583    3.1477    0.2659 H   0  0  0  0  0  0  0  0  0  0  0  0
    7.0157    2.1859    1.7131 H   0  0  0  0  0  0  0  0  0  0  0  0
    8.3806    2.5695    0.5560 H   0  0  0  0  0  0  0  0  0  0  0  0
  1  2  1  0
  2  3  1  0
  3  4  2  0
  4  5  1  0
  5  6  1  0
  6  7  1  0
  7  8  2  0
  8  9  1  0
  9 10  1  0
 10 11  1  0
 11 12  1  0
 11 13  1  0
 13 14  1  0
 14 15  2  0
 15 16  1  0
 16 17  2  0
 17 18  1  0
 18 19  2  0
  9 20  2  0
 20 21  1  0
 21 22  2  0
 22 23  1  0
 23 24  2  0
 23 25  1  0
 25 26  1  0
 26 27  2  0
 27 28  1  0
 28 29  1  0
 27  3  1  0
 25  5  2  0
 22  7  1  0
 19 14  1  0
  1 30  1  0
  1 31  1  0
  1 32  1  0
  4 33  1  0
  8 34  1  0
 10 35  1  0
 10 36  1  0
 12 37  1  0
 12 38  1  0
 12 39  1  0
 13 40  1  0
 13 41  1  0
 15 42  1  0
 16 43  1  0
 17 44  1  0
 18 45  1  0
 19 46  1  0
 20 47  1  0
 21 48  1  0
 26 49  1  0
 29 50  1  0
 29 51  1  0
 29 52  1  0
M  END
$$$$
