@<TRIPOS>MOLECULE
*****
 72 76 0 0 0
SMALL
GASTEIGER

@<TRIPOS>ATOM
      1 C           7.3196   -0.8135   -0.0665 C.3     1  UNL1       -0.0127
      2 N           6.4658   -1.5901    0.7394 N.3     1  UNL1       -0.3029
      3 C           5.8992   -0.8869    1.8591 C.3     1  UNL1        0.0114
      4 C           5.0152    0.2295    1.2686 C.3     1  UNL1        0.0117
      5 N           4.2360   -0.1308    0.2462 N.3     1  UNL1       -0.2999
      6 C           3.2667    0.6107   -0.3934 C.3     1  UNL1        0.0004
      7 C           1.8645    0.7139    0.2931 C.3     1  UNL1       -0.0243
      8 C           0.9543    0.9013   -0.8685 C.3     1  UNL1        0.0176
      9 N          -0.4480    0.6183   -0.9376 N.am    1  UNL1       -0.2820
     10 C          -1.3945    1.7336   -0.8266 C.2     1  UNL1        0.3067
     11 O          -2.4743    1.6906   -1.3000 O.2     1  UNL1       -0.2523
     12 N          -0.9241    2.9607   -0.0567 N.am    1  UNL1       -0.2693
     13 C          -1.8028    4.0310    0.1446 C.ar    1  UNL1        0.0355
     14 C          -3.1674    3.9365   -0.1924 C.ar    1  UNL1       -0.0377
     15 C          -4.0486    4.9351    0.2436 C.ar    1  UNL1       -0.0241
     16 C          -3.5767    5.9679    0.9950 C.ar    1  UNL1        0.1351
     17 F          -4.4854    6.9516    1.4961 F       1  UNL1       -0.2049
     18 C          -2.3340    6.0926    1.3722 C.ar    1  UNL1        0.0916
     19 C          -1.7731    7.2451    2.0848 C.3     1  UNL1        0.4201
     20 F          -2.3099    8.4108    1.4911 F       1  UNL1       -0.1658
     21 F          -1.6766    7.2216    3.3997 F       1  UNL1       -0.1658
     22 F          -0.4054    7.3546    1.5702 F       1  UNL1       -0.1658
     23 C          -1.4498    5.0892    0.9148 C.ar    1  UNL1       -0.0260
     24 C          -0.8381   -0.7382   -0.9144 C.3     1  UNL1        0.0311
     25 C          -1.3328   -1.1226   -2.2568 C.3     1  UNL1       -0.0331
     26 C          -2.3573   -2.1925   -2.0438 C.3     1  UNL1       -0.0413
     27 C          -2.5397   -2.2581   -0.4740 C.3     1  UNL1        0.0007
     28 C          -3.2798   -3.4827   -0.0769 C.ar    1  UNL1       -0.0408
     29 C          -2.7179   -4.6820    0.0944 C.ar    1  UNL1       -0.0568
     30 C          -3.3576   -5.9120    0.1743 C.ar    1  UNL1       -0.0441
     31 C          -4.7088   -5.9122    0.0823 C.ar    1  UNL1        0.0518
     32 C          -5.5060   -6.8724    0.1623 C.1     1  UNL1        0.0992
     33 N          -6.4560   -8.0565    0.2523 N.1     1  UNL1       -0.1909
     34 C          -5.4391   -4.5939   -0.0796 C.ar    1  UNL1       -0.0441
     35 C          -4.7086   -3.3728   -0.1713 C.ar    1  UNL1       -0.0568
     36 C          -3.1883   -0.8819   -0.0300 C.3     1  UNL1       -0.0377
     37 C          -1.7088   -1.2342    0.1138 C.3     1  UNL1       -0.0119
     38 C           4.3425   -1.4034   -0.4837 C.3     1  UNL1        0.0117
     39 C           5.4652   -2.2898   -0.0753 C.3     1  UNL1        0.0114
     40 H           8.1499   -0.3839    0.5794 H       1  UNL1        0.0391
     41 H           7.8865   -1.5623   -0.7464 H       1  UNL1        0.0391
     42 H           6.8933   -0.0450   -0.6938 H       1  UNL1        0.0391
     43 H           6.6166   -0.3904    2.4818 H       1  UNL1        0.0439
     44 H           5.2583   -1.6392    2.4039 H       1  UNL1        0.0439
     45 H           5.8924    0.9055    0.8375 H       1  UNL1        0.0439
     46 H           4.5209    0.7769    2.1101 H       1  UNL1        0.0439
     47 H           3.0541    0.3616   -1.4958 H       1  UNL1        0.0427
     48 H           3.6153    1.7235   -0.4845 H       1  UNL1        0.0427
     49 H           1.7597   -0.1161    0.9874 H       1  UNL1        0.0293
     50 H           1.9239    1.6283    0.9140 H       1  UNL1        0.0293
     51 H           1.4652    0.3729   -1.8060 H       1  UNL1        0.0465
     52 H           1.1464    1.9741   -1.1992 H       1  UNL1        0.0465
     53 H           0.0702    2.8622    0.3327 H       1  UNL1        0.1564
     54 H          -3.6119    3.2231   -0.8077 H       1  UNL1        0.0637
     55 H          -5.1002    4.9134   -0.0331 H       1  UNL1        0.0647
     56 H          -0.4188    5.2260    1.1976 H       1  UNL1        0.0642
     57 H           0.1759   -1.3069   -0.8448 H       1  UNL1        0.0504
     58 H          -1.7456   -0.2828   -2.8276 H       1  UNL1        0.0283
     59 H          -0.5150   -1.5732   -2.8814 H       1  UNL1        0.0283
     60 H          -2.1817   -3.1456   -2.4688 H       1  UNL1        0.0274
     61 H          -3.3619   -1.8444   -2.4119 H       1  UNL1        0.0274
     62 H          -1.6616   -4.7271    0.3112 H       1  UNL1        0.0621
     63 H          -2.9862   -6.8626    0.4033 H       1  UNL1        0.0630
     64 H          -6.5397   -4.5443   -0.0552 H       1  UNL1        0.0630
     65 H          -5.0860   -2.4601   -0.1922 H       1  UNL1        0.0621
     66 H          -3.8060   -0.9307    0.8589 H       1  UNL1        0.0277
     67 H          -3.4848   -0.2843   -0.9056 H       1  UNL1        0.0277
     68 H          -1.2934   -1.3371    1.1550 H       1  UNL1        0.0327
     69 H           4.4043   -1.1151   -1.5854 H       1  UNL1        0.0439
     70 H           3.3953   -1.9269   -0.3560 H       1  UNL1        0.0439
     71 H           5.1471   -3.1548    0.4525 H       1  UNL1        0.0439
     72 H           5.9981   -2.6029   -0.9807 H       1  UNL1        0.0439
@<TRIPOS>BOND
     1     1     2    1
     2     2     3    1
     3     3     4    1
     4     4     5    1
     5     5     6    1
     6     6     7    1
     7     7     8    1
     8     8     9    1
     9     9    10   am
    10    10    11    2
    11    10    12   am
    12    12    13    1
    13    13    14   ar
    14    14    15   ar
    15    15    16   ar
    16    16    17    1
    17    16    18   ar
    18    18    19    1
    19    19    20    1
    20    19    21    1
    21    19    22    1
    22    18    23   ar
    23     9    24    1
    24    24    25    1
    25    25    26    1
    26    26    27    1
    27    27    28    1
    28    28    29   ar
    29    29    30   ar
    30    30    31   ar
    31    31    32    1
    32    32    33    3
    33    31    34   ar
    34    34    35   ar
    35    27    36    1
    36    36    37    1
    37     5    38    1
    38    38    39    1
    39    39     2    1
    40    23    13   ar
    41    37    24    1
    42    37    27    1
    43    35    28   ar
    44     1    40    1
    45     1    41    1
    46     1    42    1
    47     3    43    1
    48     3    44    1
    49     4    45    1
    50     4    46    1
    51     6    47    1
    52     6    48    1
    53     7    49    1
    54     7    50    1
    55     8    51    1
    56     8    52    1
    57    12    53    1
    58    14    54    1
    59    15    55    1
    60    23    56    1
    61    24    57    1
    62    25    58    1
    63    25    59    1
    64    26    60    1
    65    26    61    1
    66    29    62    1
    67    30    63    1
    68    34    64    1
    69    35    65    1
    70    36    66    1
    71    36    67    1
    72    37    68    1
    73    38    69    1
    74    38    70    1
    75    39    71    1
    76    39    72    1
