
     RDKit          3D

 72 76  0  0  0  0  0  0  0  0999 V2000
    7.3196   -0.8135   -0.0665 C   0  0  0  0  0  0  0  0  0  0  0  0
    6.4658   -1.5901    0.7394 N   0  0  0  0  0  0  0  0  0  0  0  0
    5.8992   -0.8869    1.8591 C   0  0  0  0  0  0  0  0  0  0  0  0
    5.0152    0.2295    1.2686 C   0  0  0  0  0  0  0  0  0  0  0  0
    4.2360   -0.1308    0.2462 N   0  0  0  0  0  0  0  0  0  0  0  0
    3.2667    0.6107   -0.3934 C   0  0  0  0  0  0  0  0  0  0  0  0
    1.8645    0.7139    0.2931 C   0  0  0  0  0  0  0  0  0  0  0  0
    0.9543    0.9013   -0.8685 C   0  0  0  0  0  0  0  0  0  0  0  0
   -0.4480    0.6183   -0.9376 N   0  0  0  0  0  0  0  0  0  0  0  0
   -1.3945    1.7336   -0.8266 C   0  0  0  0  0  0  0  0  0  0  0  0
   -2.4743    1.6906   -1.3000 O   0  0  0  0  0  0  0  0  0  0  0  0
   -0.9241    2.9607   -0.0567 N   0  0  0  0  0  0  0  0  0  0  0  0
   -1.8028    4.0310    0.1446 C   0  0  0  0  0  0  0  0  0  0  0  0
   -3.1674    3.9365   -0.1924 C   0  0  0  0  0  0  0  0  0  0  0  0
   -4.0486    4.9351    0.2436 C   0  0  0  0  0  0  0  0  0  0  0  0
   -3.5767    5.9679    0.9950 C   0  0  0  0  0  0  0  0  0  0  0  0
   -4.4854    6.9516    1.4961 F   0  0  0  0  0  0  0  0  0  0  0  0
   -2.3340    6.0926    1.3722 C   0  0  0  0  0  0  0  0  0  0  0  0
   -1.7731    7.2451    2.0848 C   0  0  0  0  0  0  0  0  0  0  0  0
   -2.3099    8.4108    1.4911 F   0  0  0  0  0  0  0  0  0  0  0  0
   -1.6766    7.2216    3.3997 F   0  0  0  0  0  0  0  0  0  0  0  0
   -0.4054    7.3546    1.5702 F   0  0  0  0  0  0  0  0  0  0  0  0
   -1.4498    5.0892    0.9148 C   0  0  0  0  0  0  0  0  0  0  0  0
   -0.8381   -0.7382   -0.9144 C   0  0  2  0  0  0  0  0  0  0  0  0
   -1.3328   -1.1226   -2.2568 C   0  0  0  0  0  0  0  0  0  0  0  0
   -2.3573   -2.1925   -2.0438 C   0  0  0  0  0  0  0  0  0  0  0  0
   -2.5397   -2.2581   -0.4740 C   0  0  2  0  0  0  0  0  0  0  0  0
   -3.2798   -3.4827   -0.0769 C   0  0  0  0  0  0  0  0  0  0  0  0
   -2.7179   -4.6820    0.0944 C   0  0  0  0  0  0  0  0  0  0  0  0
   -3.3576   -5.9120    0.1743 C   0  0  0  0  0  0  0  0  0  0  0  0
   -4.7088   -5.9122    0.0823 C   0  0  0  0  0  0  0  0  0  0  0  0
   -5.5060   -6.8724    0.1623 C   0  0  0  0  0  0  0  0  0  0  0  0
   -6.4560   -8.0565    0.2523 N   0  0  0  0  0  0  0  0  0  0  0  0
   -5.4391   -4.5939   -0.0796 C   0  0  0  0  0  0  0  0  0  0  0  0
   -4.7086   -3.3728   -0.1713 C   0  0  0  0  0  0  0  0  0  0  0  0
   -3.1883   -0.8819   -0.0300 C   0  0  0  0  0  0  0  0  0  0  0  0
   -1.7088   -1.2342    0.1138 C   0  0  2  0  0  0  0  0  0  0  0  0
    4.3425   -1.4034   -0.4837 C   0  0  0  0  0  0  0  0  0  0  0  0
    5.4652   -2.2898   -0.0753 C   0  0  0  0  0  0  0  0  0  0  0  0
    8.1499   -0.3839    0.5794 H   0  0  0  0  0  0  0  0  0  0  0  0
    7.8865   -1.5623   -0.7464 H   0  0  0  0  0  0  0  0  0  0  0  0
    6.8933   -0.0450   -0.6938 H   0  0  0  0  0  0  0  0  0  0  0  0
    6.6166   -0.3904    2.4818 H   0  0  0  0  0  0  0  0  0  0  0  0
    5.2583   -1.6392    2.4039 H   0  0  0  0  0  0  0  0  0  0  0  0
    5.8924    0.9055    0.8375 H   0  0  0  0  0  0  0  0  0  0  0  0
    4.5209    0.7769    2.1101 H   0  0  0  0  0  0  0  0  0  0  0  0
    3.0541    0.3616   -1.4958 H   0  0  0  0  0  0  0  0  0  0  0  0
    3.6153    1.7235   -0.4845 H   0  0  0  0  0  0  0  0  0  0  0  0
    1.7597   -0.1161    0.9874 H   0  0  0  0  0  0  0  0  0  0  0  0
    1.9239    1.6283    0.9140 H   0  0  0  0  0  0  0  0  0  0  0  0
    1.4652    0.3729   -1.8060 H   0  0  0  0  0  0  0  0  0  0  0  0
    1.1464    1.9741   -1.1992 H   0  0  0  0  0  0  0  0  0  0  0  0
    0.0702    2.8622    0.3327 H   0  0  0  0  0  0  0  0  0  0  0  0
   -3.6119    3.2231   -0.8077 H   0  0  0  0  0  0  0  0  0  0  0  0
   -5.1002    4.9134   -0.0331 H   0  0  0  0  0  0  0  0  0  0  0  0
   -0.4188    5.2260    1.1976 H   0  0  0  0  0  0  0  0  0  0  0  0
    0.1759   -1.3069   -0.8448 H   0  0  0  0  0  0  0  0  0  0  0  0
   -1.7456   -0.2828   -2.8276 H   0  0  0  0  0  0  0  0  0  0  0  0
   -0.5150   -1.5732   -2.8814 H   0  0  0  0  0  0  0  0  0  0  0  0
   -2.1817   -3.1456   -2.4688 H   0  0  0  0  0  0  0  0  0  0  0  0
   -3.3619   -1.8444   -2.4119 H   0  0  0  0  0  0  0  0  0  0  0  0
   -1.6616   -4.7271    0.3112 H   0  0  0  0  0  0  0  0  0  0  0  0
   -2.9862   -6.8626    0.4033 H   0  0  0  0  0  0  0  0  0  0  0  0
   -6.5397   -4.5443   -0.0552 H   0  0  0  0  0  0  0  0  0  0  0  0
   -5.0860   -2.4601   -0.1922 H   0  0  0  0  0  0  0  0  0  0  0  0
   -3.8060   -0.9307    0.8589 H   0  0  0  0  0  0  0  0  0  0  0  0
   -3.4848   -0.2843   -0.9056 H   0  0  0  0  0  0  0  0  0  0  0  0
   -1.2934   -1.3371    1.1550 H   0  0  0  0  0  0  0  0  0  0  0  0
    4.4043   -1.1151   -1.5854 H   0  0  0  0  0  0  0  0  0  0  0  0
    3.3953   -1.9269   -0.3560 H   0  0  0  0  0  0  0  0  0  0  0  0
    5.1471   -3.1548    0.4525 H   0  0  0  0  0  0  0  0  0  0  0  0
    5.9981   -2.6029   -0.9807 H   0  0  0  0  0  0  0  0  0  0  0  0
  1  2  1  0
  2  3  1  0
  3  4  1  0
  4  5  1  0
  5  6  1  0
  6  7  1  0
  7  8  1  0
  8  9  1  0
  9 10  1  0
 10 11  2  0
 10 12  1  0
 12 13  1  0
 13 14  2  0
 14 15  1  0
 15 16  2  0
 16 17  1  0
 16 18  1  0
 18 19  1  0
 19 20  1  0
 19 21  1  0
 19 22  1  0
 18 23  2  0
  9 24  1  0
 24 25  1  0
 25 26  1  0
 26 27  1  0
 27 28  1  1
 28 29  2  0
 29 30  1  0
 30 31  2  0
 31 32  1  0
 32 33  3  0
 31 34  1  0
 34 35  2  0
 27 36  1  0
 36 37  1  0
  5 38  1  0
 38 39  1  0
 39  2  1  0
 23 13  1  0
 37 24  1  0
 37 27  1  0
 35 28  1  0
  1 40  1  0
  1 41  1  0
  1 42  1  0
  3 43  1  0
  3 44  1  0
  4 45  1  0
  4 46  1  0
  6 47  1  0
  6 48  1  0
  7 49  1  0
  7 50  1  0
  8 51  1  0
  8 52  1  0
 12 53  1  0
 14 54  1  0
 15 55  1  0
 23 56  1  0
 24 57  1  1
 25 58  1  0
 25 59  1  0
 26 60  1  0
 26 61  1  0
 29 62  1  0
 30 63  1  0
 34 64  1  0
 35 65  1  0
 36 66  1  0
 36 67  1  0
 37 68  1  1
 38 69  1  0
 38 70  1  0
 39 71  1  0
 39 72  1  0
M  END
$$$$
