@<TRIPOS>MOLECULE
*****
 66 69 0 0 0
SMALL
GASTEIGER

@<TRIPOS>ATOM
      1 C           5.3758    3.1199    0.4425 C.3     1  UNL1        0.0790
      2 O           6.3445    2.1392    0.5565 O.3     1  UNL1       -0.4913
      3 C           6.1858    0.8138    0.3324 C.ar    1  UNL1        0.1669
      4 C           4.9761    0.3006   -0.0490 C.ar    1  UNL1        0.0052
      5 C           4.8049   -1.0594   -0.2803 C.ar    1  UNL1        0.0407
      6 N           3.5409   -1.6374   -0.6201 N.pl3   1  UNL1       -0.2833
      7 C           2.3694   -1.0767   -0.0482 C.ar    1  UNL1        0.2213
      8 N           2.4832   -0.1302    0.9248 N.ar    1  UNL1       -0.2197
      9 C           1.4378    0.4392    1.5069 C.ar    1  UNL1        0.0698
     10 C           0.1718    0.0407    1.0932 C.ar    1  UNL1        0.1813
     11 F          -0.8751    0.6329    1.7318 F       1  UNL1       -0.2003
     12 C           0.0237   -0.9151    0.1092 C.ar    1  UNL1        0.1647
     13 N          -1.2604   -1.2829   -0.2828 N.pl3   1  UNL1       -0.2819
     14 C          -2.2635   -0.3153   -0.6102 C.ar    1  UNL1        0.1264
     15 C          -2.0363    1.0071   -0.7990 C.ar    1  UNL1       -0.0179
     16 C          -3.0791    1.8757   -1.0528 C.ar    1  UNL1       -0.0132
     17 C          -4.3921    1.4230   -1.1231 C.ar    1  UNL1        0.1623
     18 C          -4.5932    0.0697   -0.9271 C.ar    1  UNL1        0.1736
     19 N          -3.5470   -0.7311   -0.6847 N.ar    1  UNL1       -0.2130
     20 N          -5.9363   -0.4291   -0.9780 N.am    1  UNL1       -0.2251
     21 C          -6.2212   -1.8265   -0.8017 C.3     1  UNL1        0.1330
     22 O          -6.4966   -2.2533    0.4519 O.3     1  UNL1       -0.2670
     23 P          -5.3647   -2.0719    1.6408 P.3     1  UNL1        0.4739
     24 O          -5.9857   -2.6422    2.9351 O.2     1  UNL1       -0.2275
     25 O          -3.9460   -2.9591    1.4182 O.3     1  UNL1       -0.3026
     26 O          -5.0570   -0.4387    1.9962 O.3     1  UNL1       -0.3026
     27 C          -7.0163    0.4785   -1.2263 C.2     1  UNL1        0.2660
     28 O          -8.1341    0.1081   -1.6305 O.2     1  UNL1       -0.2708
     29 C          -6.7702    1.9201   -0.9839 C.3     1  UNL1        0.1807
     30 C          -7.8206    2.7433   -1.6525 C.3     1  UNL1       -0.0164
     31 C          -6.8838    2.1331    0.5197 C.3     1  UNL1       -0.0164
     32 O          -5.4525    2.2718   -1.3750 O.3     1  UNL1       -0.4736
     33 N           1.1201   -1.4496   -0.4360 N.ar    1  UNL1       -0.1962
     34 C           5.8569   -1.9335   -0.1330 C.ar    1  UNL1        0.0052
     35 C           7.1022   -1.4387    0.2535 C.ar    1  UNL1        0.1669
     36 O           8.1977   -2.2874    0.4154 O.3     1  UNL1       -0.4913
     37 C           8.0247   -3.6724    0.1793 C.3     1  UNL1        0.0790
     38 C           7.2555   -0.0914    0.4805 C.ar    1  UNL1        0.2036
     39 O           8.4556    0.4748    0.8686 O.3     1  UNL1       -0.4885
     40 C           9.3561    0.9289   -0.1241 C.3     1  UNL1        0.0791
     41 H           5.6706    3.9356   -0.2773 H       1  UNL1        0.0660
     42 H           4.3785    2.8061    0.1235 H       1  UNL1        0.0660
     43 H           5.2593    3.5955    1.4631 H       1  UNL1        0.0660
     44 H           4.1088    0.9154   -0.2092 H       1  UNL1        0.0674
     45 H           3.4597   -2.4536   -1.2719 H       1  UNL1        0.1550
     46 H           1.6099    1.1792    2.2717 H       1  UNL1        0.0861
     47 H          -1.4851   -2.2965   -0.3359 H       1  UNL1        0.1551
     48 H          -1.0414    1.4080   -0.7716 H       1  UNL1        0.0653
     49 H          -2.9290    2.9405   -1.2067 H       1  UNL1        0.0656
     50 H          -5.4176   -2.4463   -1.2735 H       1  UNL1        0.0781
     51 H          -7.1419   -2.0238   -1.4187 H       1  UNL1        0.0781
     52 H          -3.8127   -3.2527    0.4987 H       1  UNL1        0.2220
     53 H          -5.8393   -0.0287    2.4321 H       1  UNL1        0.2220
     54 H          -7.8182    2.7056   -2.7470 H       1  UNL1        0.0273
     55 H          -7.8069    3.7746   -1.2340 H       1  UNL1        0.0273
     56 H          -8.8124    2.3275   -1.3114 H       1  UNL1        0.0273
     57 H          -5.8780    2.0766    0.9901 H       1  UNL1        0.0273
     58 H          -7.5501    1.3677    0.9574 H       1  UNL1        0.0273
     59 H          -7.3444    3.1290    0.6989 H       1  UNL1        0.0273
     60 H           5.7918   -2.9997   -0.2980 H       1  UNL1        0.0674
     61 H           7.2056   -4.0332    0.8515 H       1  UNL1        0.0660
     62 H           7.6745   -3.7727   -0.8627 H       1  UNL1        0.0660
     63 H           8.9748   -4.2148    0.3389 H       1  UNL1        0.0660
     64 H           8.8790    0.8876   -1.1230 H       1  UNL1        0.0660
     65 H          10.2291    0.2490   -0.1698 H       1  UNL1        0.0660
     66 H           9.6846    1.9453    0.1323 H       1  UNL1        0.0660
@<TRIPOS>BOND
     1     1     2    1
     2     2     3    1
     3     3     4   ar
     4     4     5   ar
     5     5     6    1
     6     6     7    1
     7     7     8   ar
     8     8     9   ar
     9     9    10   ar
    10    10    11    1
    11    10    12   ar
    12    12    13    1
    13    13    14    1
    14    14    15   ar
    15    15    16   ar
    16    16    17   ar
    17    17    18   ar
    18    18    19   ar
    19    18    20    1
    20    20    21    1
    21    21    22    1
    22    22    23    1
    23    23    24    2
    24    23    25    1
    25    23    26    1
    26    20    27   am
    27    27    28    2
    28    27    29    1
    29    29    30    1
    30    29    31    1
    31    29    32    1
    32    12    33   ar
    33     5    34   ar
    34    34    35   ar
    35    35    36    1
    36    36    37    1
    37    35    38   ar
    38    38    39    1
    39    39    40    1
    40    38     3   ar
    41    33     7   ar
    42    19    14   ar
    43    32    17    1
    44     1    41    1
    45     1    42    1
    46     1    43    1
    47     4    44    1
    48     6    45    1
    49     9    46    1
    50    13    47    1
    51    15    48    1
    52    16    49    1
    53    21    50    1
    54    21    51    1
    55    25    52    1
    56    26    53    1
    57    30    54    1
    58    30    55    1
    59    30    56    1
    60    31    57    1
    61    31    58    1
    62    31    59    1
    63    34    60    1
    64    37    61    1
    65    37    62    1
    66    37    63    1
    67    40    64    1
    68    40    65    1
    69    40    66    1
