
     RDKit          3D

 66 69  0  0  0  0  0  0  0  0999 V2000
    5.3758    3.1199    0.4425 C   0  0  0  0  0  0  0  0  0  0  0  0
    6.3445    2.1392    0.5565 O   0  0  0  0  0  0  0  0  0  0  0  0
    6.1858    0.8138    0.3324 C   0  0  0  0  0  0  0  0  0  0  0  0
    4.9761    0.3006   -0.0490 C   0  0  0  0  0  0  0  0  0  0  0  0
    4.8049   -1.0594   -0.2803 C   0  0  0  0  0  0  0  0  0  0  0  0
    3.5409   -1.6374   -0.6201 N   0  0  0  0  0  0  0  0  0  0  0  0
    2.3694   -1.0767   -0.0482 C   0  0  0  0  0  0  0  0  0  0  0  0
    2.4832   -0.1302    0.9248 N   0  0  0  0  0  0  0  0  0  0  0  0
    1.4378    0.4392    1.5069 C   0  0  0  0  0  0  0  0  0  0  0  0
    0.1718    0.0407    1.0932 C   0  0  0  0  0  0  0  0  0  0  0  0
   -0.8751    0.6329    1.7318 F   0  0  0  0  0  0  0  0  0  0  0  0
    0.0237   -0.9151    0.1092 C   0  0  0  0  0  0  0  0  0  0  0  0
   -1.2604   -1.2829   -0.2828 N   0  0  0  0  0  0  0  0  0  0  0  0
   -2.2635   -0.3153   -0.6102 C   0  0  0  0  0  0  0  0  0  0  0  0
   -2.0363    1.0071   -0.7990 C   0  0  0  0  0  0  0  0  0  0  0  0
   -3.0791    1.8757   -1.0528 C   0  0  0  0  0  0  0  0  0  0  0  0
   -4.3921    1.4230   -1.1231 C   0  0  0  0  0  0  0  0  0  0  0  0
   -4.5932    0.0697   -0.9271 C   0  0  0  0  0  0  0  0  0  0  0  0
   -3.5470   -0.7311   -0.6847 N   0  0  0  0  0  0  0  0  0  0  0  0
   -5.9363   -0.4291   -0.9780 N   0  0  0  0  0  0  0  0  0  0  0  0
   -6.2212   -1.8265   -0.8017 C   0  0  0  0  0  0  0  0  0  0  0  0
   -6.4966   -2.2533    0.4519 O   0  0  0  0  0  0  0  0  0  0  0  0
   -5.3647   -2.0719    1.6408 P   0  0  0  0  0  5  0  0  0  0  0  0
   -5.9857   -2.6422    2.9351 O   0  0  0  0  0  0  0  0  0  0  0  0
   -3.9460   -2.9591    1.4182 O   0  0  0  0  0  0  0  0  0  0  0  0
   -5.0570   -0.4387    1.9962 O   0  0  0  0  0  0  0  0  0  0  0  0
   -7.0163    0.4785   -1.2263 C   0  0  0  0  0  0  0  0  0  0  0  0
   -8.1341    0.1081   -1.6305 O   0  0  0  0  0  0  0  0  0  0  0  0
   -6.7702    1.9201   -0.9839 C   0  0  0  0  0  0  0  0  0  0  0  0
   -7.8206    2.7433   -1.6525 C   0  0  0  0  0  0  0  0  0  0  0  0
   -6.8838    2.1331    0.5197 C   0  0  0  0  0  0  0  0  0  0  0  0
   -5.4525    2.2718   -1.3750 O   0  0  0  0  0  0  0  0  0  0  0  0
    1.1201   -1.4496   -0.4360 N   0  0  0  0  0  0  0  0  0  0  0  0
    5.8569   -1.9335   -0.1330 C   0  0  0  0  0  0  0  0  0  0  0  0
    7.1022   -1.4387    0.2535 C   0  0  0  0  0  0  0  0  0  0  0  0
    8.1977   -2.2874    0.4154 O   0  0  0  0  0  0  0  0  0  0  0  0
    8.0247   -3.6724    0.1793 C   0  0  0  0  0  0  0  0  0  0  0  0
    7.2555   -0.0914    0.4805 C   0  0  0  0  0  0  0  0  0  0  0  0
    8.4556    0.4748    0.8686 O   0  0  0  0  0  0  0  0  0  0  0  0
    9.3561    0.9289   -0.1241 C   0  0  0  0  0  0  0  0  0  0  0  0
    5.6706    3.9356   -0.2773 H   0  0  0  0  0  0  0  0  0  0  0  0
    4.3785    2.8061    0.1235 H   0  0  0  0  0  0  0  0  0  0  0  0
    5.2593    3.5955    1.4631 H   0  0  0  0  0  0  0  0  0  0  0  0
    4.1088    0.9154   -0.2092 H   0  0  0  0  0  0  0  0  0  0  0  0
    3.4597   -2.4536   -1.2719 H   0  0  0  0  0  0  0  0  0  0  0  0
    1.6099    1.1792    2.2717 H   0  0  0  0  0  0  0  0  0  0  0  0
   -1.4851   -2.2965   -0.3359 H   0  0  0  0  0  0  0  0  0  0  0  0
   -1.0414    1.4080   -0.7716 H   0  0  0  0  0  0  0  0  0  0  0  0
   -2.9290    2.9405   -1.2067 H   0  0  0  0  0  0  0  0  0  0  0  0
   -5.4176   -2.4463   -1.2735 H   0  0  0  0  0  0  0  0  0  0  0  0
   -7.1419   -2.0238   -1.4187 H   0  0  0  0  0  0  0  0  0  0  0  0
   -3.8127   -3.2527    0.4987 H   0  0  0  0  0  0  0  0  0  0  0  0
   -5.8393   -0.0287    2.4321 H   0  0  0  0  0  0  0  0  0  0  0  0
   -7.8182    2.7056   -2.7470 H   0  0  0  0  0  0  0  0  0  0  0  0
   -7.8069    3.7746   -1.2340 H   0  0  0  0  0  0  0  0  0  0  0  0
   -8.8124    2.3275   -1.3114 H   0  0  0  0  0  0  0  0  0  0  0  0
   -5.8780    2.0766    0.9901 H   0  0  0  0  0  0  0  0  0  0  0  0
   -7.5501    1.3677    0.9574 H   0  0  0  0  0  0  0  0  0  0  0  0
   -7.3444    3.1290    0.6989 H   0  0  0  0  0  0  0  0  0  0  0  0
    5.7918   -2.9997   -0.2980 H   0  0  0  0  0  0  0  0  0  0  0  0
    7.2056   -4.0332    0.8515 H   0  0  0  0  0  0  0  0  0  0  0  0
    7.6745   -3.7727   -0.8627 H   0  0  0  0  0  0  0  0  0  0  0  0
    8.9748   -4.2148    0.3389 H   0  0  0  0  0  0  0  0  0  0  0  0
    8.8790    0.8876   -1.1230 H   0  0  0  0  0  0  0  0  0  0  0  0
   10.2291    0.2490   -0.1698 H   0  0  0  0  0  0  0  0  0  0  0  0
    9.6846    1.9453    0.1323 H   0  0  0  0  0  0  0  0  0  0  0  0
  1  2  1  0
  2  3  1  0
  3  4  2  0
  4  5  1  0
  5  6  1  0
  6  7  1  0
  7  8  2  0
  8  9  1  0
  9 10  2  0
 10 11  1  0
 10 12  1  0
 12 13  1  0
 13 14  1  0
 14 15  2  0
 15 16  1  0
 16 17  2  0
 17 18  1  0
 18 19  2  0
 18 20  1  0
 20 21  1  0
 21 22  1  0
 22 23  1  0
 23 24  2  0
 23 25  1  0
 23 26  1  0
 20 27  1  0
 27 28  2  0
 27 29  1  0
 29 30  1  0
 29 31  1  0
 29 32  1  0
 12 33  2  0
  5 34  2  0
 34 35  1  0
 35 36  1  0
 36 37  1  0
 35 38  2  0
 38 39  1  0
 39 40  1  0
 38  3  1  0
 33  7  1  0
 19 14  1  0
 32 17  1  0
  1 41  1  0
  1 42  1  0
  1 43  1  0
  4 44  1  0
  6 45  1  0
  9 46  1  0
 13 47  1  0
 15 48  1  0
 16 49  1  0
 21 50  1  0
 21 51  1  0
 25 52  1  0
 26 53  1  0
 30 54  1  0
 30 55  1  0
 30 56  1  0
 31 57  1  0
 31 58  1  0
 31 59  1  0
 34 60  1  0
 37 61  1  0
 37 62  1  0
 37 63  1  0
 40 64  1  0
 40 65  1  0
 40 66  1  0
M  END
$$$$
