
     RDKit          3D

 67 71  0  0  0  0  0  0  0  0999 V2000
    2.6843    0.6217    3.5077 O   0  0  0  0  0  0  0  0  0  0  0  0
    2.0171    1.4439    2.8480 C   0  0  0  0  0  0  0  0  0  0  0  0
    2.1463    2.7927    3.1049 O   0  0  0  0  0  0  0  0  0  0  0  0
    1.0846    0.9399    1.7841 C   0  0  2  0  0  0  0  0  0  0  0  0
   -0.2929    1.4468    2.2572 C   0  0  0  0  0  0  0  0  0  0  0  0
   -1.2998    0.6411    1.5703 N   0  0  0  0  0  0  0  0  0  0  0  0
   -2.1777    1.3290    0.7116 C   0  0  0  0  0  0  0  0  0  0  0  0
   -1.9841    2.6198    0.6170 O   0  0  0  0  0  0  0  0  0  0  0  0
   -3.2346    0.8605   -0.0610 N   0  0  0  0  0  0  0  0  0  0  0  0
   -4.1338    1.6407   -0.8467 C   0  0  0  0  0  0  0  0  0  0  0  0
   -4.1727    3.0066   -0.8084 C   0  0  0  0  0  0  0  0  0  0  0  0
   -5.0726    3.6981   -1.6398 C   0  0  0  0  0  0  0  0  0  0  0  0
   -5.9154    3.0303   -2.4903 C   0  0  0  0  0  0  0  0  0  0  0  0
   -5.8893    1.6536   -2.5403 C   0  0  0  0  0  0  0  0  0  0  0  0
   -5.0141    0.9762   -1.7325 C   0  0  0  0  0  0  0  0  0  0  0  0
   -3.4751   -0.5575   -0.1236 C   0  0  0  0  0  0  0  0  0  0  0  0
   -2.9420   -1.2827   -1.1832 C   0  0  0  0  0  0  0  0  0  0  0  0
   -3.1462   -2.6300   -1.3223 C   0  0  0  0  0  0  0  0  0  0  0  0
   -3.9195   -3.2755   -0.3542 C   0  0  0  0  0  0  0  0  0  0  0  0
   -4.4555   -2.5816    0.6994 C   0  0  0  0  0  0  0  0  0  0  0  0
   -4.2344   -1.2319    0.8133 C   0  0  0  0  0  0  0  0  0  0  0  0
   -1.3030   -0.7554    1.8650 C   0  0  0  0  0  0  0  0  0  0  0  0
    0.0544   -1.1447    2.5141 C   0  0  0  0  0  0  0  0  0  0  0  0
    1.0970   -0.4639    1.6793 N   0  0  0  0  0  0  0  0  0  0  0  0
    1.9417   -1.2822    0.9315 C   0  0  0  0  0  0  0  0  0  0  0  0
    1.7042   -2.5567    1.1425 O   0  0  0  0  0  0  0  0  0  0  0  0
    2.9571   -0.9856    0.0316 N   0  0  0  0  0  0  0  0  0  0  0  0
    3.8025   -1.9524   -0.6093 C   0  0  0  0  0  0  0  0  0  0  0  0
    3.8268   -3.2925   -0.3614 C   0  0  0  0  0  0  0  0  0  0  0  0
    4.6809   -4.1633   -1.0597 C   0  0  0  0  0  0  0  0  0  0  0  0
    5.5214   -3.6857   -2.0177 C   0  0  0  0  0  0  0  0  0  0  0  0
    5.5222   -2.3488   -2.2900 C   0  0  0  0  0  0  0  0  0  0  0  0
    4.6848   -1.5109   -1.6025 C   0  0  0  0  0  0  0  0  0  0  0  0
    3.2209    0.3763   -0.3653 C   0  0  0  0  0  0  0  0  0  0  0  0
    2.6127    0.9206   -1.4652 C   0  0  0  0  0  0  0  0  0  0  0  0
    2.9151    2.2051   -1.8413 C   0  0  0  0  0  0  0  0  0  0  0  0
    3.8267    2.9433   -1.1155 C   0  0  0  0  0  0  0  0  0  0  0  0
    4.4448    2.4084   -0.0085 C   0  0  0  0  0  0  0  0  0  0  0  0
    4.1215    1.1183    0.3443 C   0  0  0  0  0  0  0  0  0  0  0  0
    2.9910    3.1827    3.5517 H   0  0  0  0  0  0  0  0  0  0  0  0
    1.3126    1.4684    0.8718 H   0  0  0  0  0  0  0  0  0  0  0  0
   -0.3609    2.5237    2.0011 H   0  0  0  0  0  0  0  0  0  0  0  0
   -0.3974    1.2581    3.3310 H   0  0  0  0  0  0  0  0  0  0  0  0
   -3.5507    3.5918   -0.1515 H   0  0  0  0  0  0  0  0  0  0  0  0
   -5.0557    4.7886   -1.5642 H   0  0  0  0  0  0  0  0  0  0  0  0
   -6.6037    3.5750   -3.1262 H   0  0  0  0  0  0  0  0  0  0  0  0
   -6.5635    1.1555   -3.2180 H   0  0  0  0  0  0  0  0  0  0  0  0
   -4.9955   -0.1036   -1.7721 H   0  0  0  0  0  0  0  0  0  0  0  0
   -2.3458   -0.7771   -1.9267 H   0  0  0  0  0  0  0  0  0  0  0  0
   -2.7256   -3.2067   -2.1591 H   0  0  0  0  0  0  0  0  0  0  0  0
   -4.0861   -4.3478   -0.4583 H   0  0  0  0  0  0  0  0  0  0  0  0
   -5.0450   -3.0808    1.4358 H   0  0  0  0  0  0  0  0  0  0  0  0
   -4.6353   -0.6356    1.6273 H   0  0  0  0  0  0  0  0  0  0  0  0
   -1.4167   -1.4387    1.0277 H   0  0  0  0  0  0  0  0  0  0  0  0
   -2.0390   -0.9866    2.6635 H   0  0  0  0  0  0  0  0  0  0  0  0
    0.0993   -0.7000    3.5037 H   0  0  0  0  0  0  0  0  0  0  0  0
    0.1266   -2.2121    2.4852 H   0  0  0  0  0  0  0  0  0  0  0  0
    3.1847   -3.7173    0.4008 H   0  0  0  0  0  0  0  0  0  0  0  0
    4.6238   -5.2267   -0.7849 H   0  0  0  0  0  0  0  0  0  0  0  0
    6.1800   -4.3679   -2.5543 H   0  0  0  0  0  0  0  0  0  0  0  0
    6.1868   -1.9695   -3.0473 H   0  0  0  0  0  0  0  0  0  0  0  0
    4.7387   -0.4546   -1.8725 H   0  0  0  0  0  0  0  0  0  0  0  0
    1.9067    0.3535   -2.0310 H   0  0  0  0  0  0  0  0  0  0  0  0
    2.4534    2.6826   -2.7141 H   0  0  0  0  0  0  0  0  0  0  0  0
    4.0549    3.9460   -1.4189 H   0  0  0  0  0  0  0  0  0  0  0  0
    5.1489    3.0284    0.5228 H   0  0  0  0  0  0  0  0  0  0  0  0
    4.6089    0.6992    1.2151 H   0  0  0  0  0  0  0  0  0  0  0  0
  1  2  2  0
  2  3  1  0
  2  4  1  0
  4  5  1  0
  5  6  1  0
  6  7  1  0
  7  8  2  0
  7  9  1  0
  9 10  1  0
 10 11  2  0
 11 12  1  0
 12 13  2  0
 13 14  1  0
 14 15  2  0
  9 16  1  0
 16 17  2  0
 17 18  1  0
 18 19  2  0
 19 20  1  0
 20 21  2  0
  6 22  1  0
 22 23  1  0
 23 24  1  0
 24 25  1  0
 25 26  2  0
 25 27  1  0
 27 28  1  0
 28 29  2  0
 29 30  1  0
 30 31  2  0
 31 32  1  0
 32 33  2  0
 27 34  1  0
 34 35  2  0
 35 36  1  0
 36 37  2  0
 37 38  1  0
 38 39  2  0
 24  4  1  0
 33 28  1  0
 39 34  1  0
 15 10  1  0
 21 16  1  0
  3 40  1  0
  4 41  1  6
  5 42  1  0
  5 43  1  0
 11 44  1  0
 12 45  1  0
 13 46  1  0
 14 47  1  0
 15 48  1  0
 17 49  1  0
 18 50  1  0
 19 51  1  0
 20 52  1  0
 21 53  1  0
 22 54  1  0
 22 55  1  0
 23 56  1  0
 23 57  1  0
 29 58  1  0
 30 59  1  0
 31 60  1  0
 32 61  1  0
 33 62  1  0
 35 63  1  0
 36 64  1  0
 37 65  1  0
 38 66  1  0
 39 67  1  0
M  END
$$$$
