@<TRIPOS>MOLECULE
*****
 67 71 0 0 0
SMALL
GASTEIGER

@<TRIPOS>ATOM
      1 O           2.6843    0.6217    3.5077 O.2     1  UNL1       -0.2488
      2 C           2.0171    1.4439    2.8480 C.2     1  UNL1        0.3271
      3 O           2.1463    2.7927    3.1049 O.3     1  UNL1       -0.4793
      4 C           1.0846    0.9399    1.7841 C.3     1  UNL1        0.1399
      5 C          -0.2929    1.4468    2.2572 C.3     1  UNL1        0.0453
      6 N          -1.2998    0.6411    1.5703 N.am    1  UNL1       -0.2811
      7 C          -2.1777    1.3290    0.7116 C.2     1  UNL1        0.3136
      8 O          -1.9841    2.6198    0.6170 O.2     1  UNL1       -0.2517
      9 N          -3.2346    0.8605   -0.0610 N.am    1  UNL1       -0.2243
     10 C          -4.1338    1.6407   -0.8467 C.ar    1  UNL1        0.0428
     11 C          -4.1727    3.0066   -0.8084 C.ar    1  UNL1       -0.0399
     12 C          -5.0726    3.6981   -1.6398 C.ar    1  UNL1       -0.0600
     13 C          -5.9154    3.0303   -2.4903 C.ar    1  UNL1       -0.0616
     14 C          -5.8893    1.6536   -2.5403 C.ar    1  UNL1       -0.0600
     15 C          -5.0141    0.9762   -1.7325 C.ar    1  UNL1       -0.0399
     16 C          -3.4751   -0.5575   -0.1236 C.ar    1  UNL1        0.0428
     17 C          -2.9420   -1.2827   -1.1832 C.ar    1  UNL1       -0.0399
     18 C          -3.1462   -2.6300   -1.3223 C.ar    1  UNL1       -0.0600
     19 C          -3.9195   -3.2755   -0.3542 C.ar    1  UNL1       -0.0616
     20 C          -4.4555   -2.5816    0.6994 C.ar    1  UNL1       -0.0600
     21 C          -4.2344   -1.2319    0.8133 C.ar    1  UNL1       -0.0399
     22 C          -1.3030   -0.7554    1.8650 C.3     1  UNL1        0.0321
     23 C           0.0544   -1.1447    2.5141 C.3     1  UNL1        0.0329
     24 N           1.0970   -0.4639    1.6793 N.am    1  UNL1       -0.2684
     25 C           1.9417   -1.2822    0.9315 C.2     1  UNL1        0.3143
     26 O           1.7042   -2.5567    1.1425 O.2     1  UNL1       -0.2517
     27 N           2.9571   -0.9856    0.0316 N.am    1  UNL1       -0.2243
     28 C           3.8025   -1.9524   -0.6093 C.ar    1  UNL1        0.0428
     29 C           3.8268   -3.2925   -0.3614 C.ar    1  UNL1       -0.0399
     30 C           4.6809   -4.1633   -1.0597 C.ar    1  UNL1       -0.0600
     31 C           5.5214   -3.6857   -2.0177 C.ar    1  UNL1       -0.0616
     32 C           5.5222   -2.3488   -2.2900 C.ar    1  UNL1       -0.0600
     33 C           4.6848   -1.5109   -1.6025 C.ar    1  UNL1       -0.0399
     34 C           3.2209    0.3763   -0.3653 C.ar    1  UNL1        0.0428
     35 C           2.6127    0.9206   -1.4652 C.ar    1  UNL1       -0.0399
     36 C           2.9151    2.2051   -1.8413 C.ar    1  UNL1       -0.0600
     37 C           3.8267    2.9433   -1.1155 C.ar    1  UNL1       -0.0616
     38 C           4.4448    2.4084   -0.0085 C.ar    1  UNL1       -0.0600
     39 C           4.1215    1.1183    0.3443 C.ar    1  UNL1       -0.0399
     40 H           2.9910    3.1827    3.5517 H       1  UNL1        0.2951
     41 H           1.3126    1.4684    0.8718 H       1  UNL1        0.0633
     42 H          -0.3609    2.5237    2.0011 H       1  UNL1        0.0489
     43 H          -0.3974    1.2581    3.3310 H       1  UNL1        0.0489
     44 H          -3.5507    3.5918   -0.1515 H       1  UNL1        0.0636
     45 H          -5.0557    4.7886   -1.5642 H       1  UNL1        0.0618
     46 H          -6.6037    3.5750   -3.1262 H       1  UNL1        0.0618
     47 H          -6.5635    1.1555   -3.2180 H       1  UNL1        0.0618
     48 H          -4.9955   -0.1036   -1.7721 H       1  UNL1        0.0636
     49 H          -2.3458   -0.7771   -1.9267 H       1  UNL1        0.0636
     50 H          -2.7256   -3.2067   -2.1591 H       1  UNL1        0.0618
     51 H          -4.0861   -4.3478   -0.4583 H       1  UNL1        0.0618
     52 H          -5.0450   -3.0808    1.4358 H       1  UNL1        0.0618
     53 H          -4.6353   -0.6356    1.6273 H       1  UNL1        0.0636
     54 H          -1.4167   -1.4387    1.0277 H       1  UNL1        0.0480
     55 H          -2.0390   -0.9866    2.6635 H       1  UNL1        0.0480
     56 H           0.0993   -0.7000    3.5037 H       1  UNL1        0.0481
     57 H           0.1266   -2.2121    2.4852 H       1  UNL1        0.0481
     58 H           3.1847   -3.7173    0.4008 H       1  UNL1        0.0636
     59 H           4.6238   -5.2267   -0.7849 H       1  UNL1        0.0618
     60 H           6.1800   -4.3679   -2.5543 H       1  UNL1        0.0618
     61 H           6.1868   -1.9695   -3.0473 H       1  UNL1        0.0618
     62 H           4.7387   -0.4546   -1.8725 H       1  UNL1        0.0636
     63 H           1.9067    0.3535   -2.0310 H       1  UNL1        0.0636
     64 H           2.4534    2.6826   -2.7141 H       1  UNL1        0.0618
     65 H           4.0549    3.9460   -1.4189 H       1  UNL1        0.0618
     66 H           5.1489    3.0284    0.5228 H       1  UNL1        0.0618
     67 H           4.6089    0.6992    1.2151 H       1  UNL1        0.0636
@<TRIPOS>BOND
     1     1     2    2
     2     2     3    1
     3     2     4    1
     4     4     5    1
     5     5     6    1
     6     6     7   am
     7     7     8    2
     8     7     9   am
     9     9    10    1
    10    10    11   ar
    11    11    12   ar
    12    12    13   ar
    13    13    14   ar
    14    14    15   ar
    15     9    16    1
    16    16    17   ar
    17    17    18   ar
    18    18    19   ar
    19    19    20   ar
    20    20    21   ar
    21     6    22    1
    22    22    23    1
    23    23    24    1
    24    24    25   am
    25    25    26    2
    26    25    27   am
    27    27    28    1
    28    28    29   ar
    29    29    30   ar
    30    30    31   ar
    31    31    32   ar
    32    32    33   ar
    33    27    34    1
    34    34    35   ar
    35    35    36   ar
    36    36    37   ar
    37    37    38   ar
    38    38    39   ar
    39    24     4    1
    40    33    28   ar
    41    39    34   ar
    42    15    10   ar
    43    21    16   ar
    44     3    40    1
    45     4    41    1
    46     5    42    1
    47     5    43    1
    48    11    44    1
    49    12    45    1
    50    13    46    1
    51    14    47    1
    52    15    48    1
    53    17    49    1
    54    18    50    1
    55    19    51    1
    56    20    52    1
    57    21    53    1
    58    22    54    1
    59    22    55    1
    60    23    56    1
    61    23    57    1
    62    29    58    1
    63    30    59    1
    64    31    60    1
    65    32    61    1
    66    33    62    1
    67    35    63    1
    68    36    64    1
    69    37    65    1
    70    38    66    1
    71    39    67    1
