@<TRIPOS>MOLECULE
*****
 29 30 0 0 0
SMALL
GASTEIGER

@<TRIPOS>ATOM
      1 O          -2.2873   -0.0445    2.5405 O.2     1  UNL1       -0.2451
      2 C          -2.9429    0.2806    1.5481 C.2     1  UNL1        0.3387
      3 O          -4.1884    0.8742    1.8448 O.3     1  UNL1       -0.4771
      4 C          -2.5738    0.1191    0.1535 C.ar    1  UNL1        0.0825
      5 C          -3.4335    0.5734   -0.8506 C.ar    1  UNL1       -0.0278
      6 C          -3.1298    0.4599   -2.1685 C.ar    1  UNL1        0.0285
      7 N          -1.9849   -0.0976   -2.5482 N.ar    1  UNL1       -0.2614
      8 C          -1.1373   -0.5449   -1.6121 C.ar    1  UNL1        0.0492
      9 C          -1.3932   -0.4557   -0.2396 C.ar    1  UNL1        0.0598
     10 N          -0.4507   -1.0060    0.6511 N.pl3   1  UNL1       -0.3379
     11 C           0.8272   -1.5840    0.3248 C.3     1  UNL1        0.0344
     12 C           1.9224   -0.6077    0.1456 C.ar    1  UNL1       -0.0304
     13 C           2.3611   -0.1345   -1.0561 C.ar    1  UNL1       -0.0571
     14 C           3.3974    0.8085   -1.1073 C.ar    1  UNL1       -0.0615
     15 C           4.0104    1.2928    0.0219 C.ar    1  UNL1       -0.0617
     16 C           3.5516    0.8004    1.2242 C.ar    1  UNL1       -0.0615
     17 C           2.5418   -0.1206    1.3124 C.ar    1  UNL1       -0.0571
     18 H          -4.6261    0.5784    2.7059 H       1  UNL1        0.2954
     19 H          -4.3605    1.0232   -0.5051 H       1  UNL1        0.0641
     20 H          -3.8277    0.8278   -2.9349 H       1  UNL1        0.0830
     21 H          -0.2256   -1.0154   -1.9510 H       1  UNL1        0.0848
     22 H          -0.6926   -1.0106    1.6830 H       1  UNL1        0.1465
     23 H           0.7282   -2.1786   -0.6206 H       1  UNL1        0.0511
     24 H           1.1699   -2.2702    1.1540 H       1  UNL1        0.0511
     25 H           1.9455   -0.4724   -2.0070 H       1  UNL1        0.0621
     26 H           3.7248    1.1681   -2.0924 H       1  UNL1        0.0618
     27 H           4.8155    2.0261   -0.0263 H       1  UNL1        0.0618
     28 H           4.0538    1.1987    2.1183 H       1  UNL1        0.0618
     29 H           2.2048   -0.4885    2.2916 H       1  UNL1        0.0621
@<TRIPOS>BOND
     1     1     2    2
     2     2     3    1
     3     2     4    1
     4     4     5   ar
     5     5     6   ar
     6     6     7   ar
     7     7     8   ar
     8     8     9   ar
     9     9    10    1
    10    10    11    1
    11    11    12    1
    12    12    13   ar
    13    13    14   ar
    14    14    15   ar
    15    15    16   ar
    16    16    17   ar
    17     9     4   ar
    18    17    12   ar
    19     3    18    1
    20     5    19    1
    21     6    20    1
    22     8    21    1
    23    10    22    1
    24    11    23    1
    25    11    24    1
    26    13    25    1
    27    14    26    1
    28    15    27    1
    29    16    28    1
    30    17    29    1
