
     RDKit          3D

 29 30  0  0  0  0  0  0  0  0999 V2000
   -2.2873   -0.0445    2.5405 O   0  0  0  0  0  0  0  0  0  0  0  0
   -2.9429    0.2806    1.5481 C   0  0  0  0  0  0  0  0  0  0  0  0
   -4.1884    0.8742    1.8448 O   0  0  0  0  0  0  0  0  0  0  0  0
   -2.5738    0.1191    0.1535 C   0  0  0  0  0  0  0  0  0  0  0  0
   -3.4335    0.5734   -0.8506 C   0  0  0  0  0  0  0  0  0  0  0  0
   -3.1298    0.4599   -2.1685 C   0  0  0  0  0  0  0  0  0  0  0  0
   -1.9849   -0.0976   -2.5482 N   0  0  0  0  0  0  0  0  0  0  0  0
   -1.1373   -0.5449   -1.6121 C   0  0  0  0  0  0  0  0  0  0  0  0
   -1.3932   -0.4557   -0.2396 C   0  0  0  0  0  0  0  0  0  0  0  0
   -0.4507   -1.0060    0.6511 N   0  0  0  0  0  0  0  0  0  0  0  0
    0.8272   -1.5840    0.3248 C   0  0  0  0  0  0  0  0  0  0  0  0
    1.9224   -0.6077    0.1456 C   0  0  0  0  0  0  0  0  0  0  0  0
    2.3611   -0.1345   -1.0561 C   0  0  0  0  0  0  0  0  0  0  0  0
    3.3974    0.8085   -1.1073 C   0  0  0  0  0  0  0  0  0  0  0  0
    4.0104    1.2928    0.0219 C   0  0  0  0  0  0  0  0  0  0  0  0
    3.5516    0.8004    1.2242 C   0  0  0  0  0  0  0  0  0  0  0  0
    2.5418   -0.1206    1.3124 C   0  0  0  0  0  0  0  0  0  0  0  0
   -4.6261    0.5784    2.7059 H   0  0  0  0  0  0  0  0  0  0  0  0
   -4.3605    1.0232   -0.5051 H   0  0  0  0  0  0  0  0  0  0  0  0
   -3.8277    0.8278   -2.9349 H   0  0  0  0  0  0  0  0  0  0  0  0
   -0.2256   -1.0154   -1.9510 H   0  0  0  0  0  0  0  0  0  0  0  0
   -0.6926   -1.0106    1.6830 H   0  0  0  0  0  0  0  0  0  0  0  0
    0.7282   -2.1786   -0.6206 H   0  0  0  0  0  0  0  0  0  0  0  0
    1.1699   -2.2702    1.1540 H   0  0  0  0  0  0  0  0  0  0  0  0
    1.9455   -0.4724   -2.0070 H   0  0  0  0  0  0  0  0  0  0  0  0
    3.7248    1.1681   -2.0924 H   0  0  0  0  0  0  0  0  0  0  0  0
    4.8155    2.0261   -0.0263 H   0  0  0  0  0  0  0  0  0  0  0  0
    4.0538    1.1987    2.1183 H   0  0  0  0  0  0  0  0  0  0  0  0
    2.2048   -0.4885    2.2916 H   0  0  0  0  0  0  0  0  0  0  0  0
  1  2  2  0
  2  3  1  0
  2  4  1  0
  4  5  2  0
  5  6  1  0
  6  7  2  0
  7  8  1  0
  8  9  2  0
  9 10  1  0
 10 11  1  0
 11 12  1  0
 12 13  2  0
 13 14  1  0
 14 15  2  0
 15 16  1  0
 16 17  2  0
  9  4  1  0
 17 12  1  0
  3 18  1  0
  5 19  1  0
  6 20  1  0
  8 21  1  0
 10 22  1  0
 11 23  1  0
 11 24  1  0
 13 25  1  0
 14 26  1  0
 15 27  1  0
 16 28  1  0
 17 29  1  0
M  END
$$$$
