
     RDKit          3D

 30 32  0  0  0  0  0  0  0  0999 V2000
    5.6541    2.8475    1.0606 Cl  0  0  0  0  0  0  0  0  0  0  0  0
    4.4486    1.6301    0.7056 C   0  0  0  0  0  0  0  0  0  0  0  0
    3.1970    1.7720    1.2355 C   0  0  0  0  0  0  0  0  0  0  0  0
    2.1611    0.8942    1.0380 C   0  0  0  0  0  0  0  0  0  0  0  0
    0.5667    1.0374    1.6954 Cl  0  0  0  0  0  0  0  0  0  0  0  0
    2.3612   -0.2211    0.2549 C   0  0  0  0  0  0  0  0  0  0  0  0
    3.6433   -0.3735   -0.2924 C   0  0  0  0  0  0  0  0  0  0  0  0
    4.6659    0.5170   -0.0820 C   0  0  0  0  0  0  0  0  0  0  0  0
    1.4252   -1.3228   -0.1280 C   0  0  2  0  0  0  0  0  0  0  0  0
    0.7795   -1.0383   -1.4381 C   0  0  0  0  0  0  0  0  0  0  0  0
   -0.5231    0.1512   -1.0156 S   0  0  0  0  0  0  0  0  0  0  0  0
   -1.3171   -0.7586    0.3032 C   0  0  0  0  0  0  0  0  0  0  0  0
    0.1046   -1.4883    1.0780 S   0  0  0  0  0  0  0  0  0  0  0  0
   -2.5899   -0.8857    0.6471 C   0  0  0  0  0  0  0  0  0  0  0  0
   -2.9552   -1.6983    1.7777 C   0  0  0  0  0  0  0  0  0  0  0  0
   -3.2646   -2.3412    2.6905 N   0  0  0  0  0  0  0  0  0  0  0  0
   -3.5323   -0.1829   -0.1579 N   0  0  0  0  0  0  0  0  0  0  0  0
   -4.2509   -0.2906   -1.2945 C   0  0  0  0  0  0  0  0  0  0  0  0
   -5.0022    0.8645   -1.4532 C   0  0  0  0  0  0  0  0  0  0  0  0
   -4.7376    1.6702   -0.4123 N   0  0  0  0  0  0  0  0  0  0  0  0
   -3.8349    1.0316    0.3871 C   0  0  0  0  0  0  0  0  0  0  0  0
    2.9799    2.6363    1.8640 H   0  0  0  0  0  0  0  0  0  0  0  0
    3.9224   -1.2143   -0.9276 H   0  0  0  0  0  0  0  0  0  0  0  0
    5.6501    0.3957   -0.5049 H   0  0  0  0  0  0  0  0  0  0  0  0
    1.9975   -2.3038   -0.1475 H   0  0  0  0  0  0  0  0  0  0  0  0
    1.4585   -0.6599   -2.2094 H   0  0  0  0  0  0  0  0  0  0  0  0
    0.2537   -1.9557   -1.8023 H   0  0  0  0  0  0  0  0  0  0  0  0
   -4.0692   -1.2415   -1.8018 H   0  0  0  0  0  0  0  0  0  0  0  0
   -5.6208    0.8910   -2.3348 H   0  0  0  0  0  0  0  0  0  0  0  0
   -3.5712    1.6377    1.2644 H   0  0  0  0  0  0  0  0  0  0  0  0
  1  2  1  0
  2  3  2  0
  3  4  1  0
  4  5  1  0
  4  6  2  0
  6  7  1  0
  7  8  2  0
  6  9  1  0
  9 10  1  0
 10 11  1  0
 11 12  1  0
 12 13  1  0
 12 14  2  0
 14 15  1  0
 15 16  3  0
 14 17  1  0
 17 18  1  0
 18 19  2  0
 19 20  1  0
 20 21  2  0
  8  2  1  0
 13  9  1  0
 21 17  1  0
  3 22  1  0
  7 23  1  0
  8 24  1  0
  9 25  1  6
 10 26  1  0
 10 27  1  0
 18 28  1  0
 19 29  1  0
 21 30  1  0
M  END
$$$$
