@<TRIPOS>MOLECULE
*****
 57 61 0 0 0
SMALL
GASTEIGER

@<TRIPOS>ATOM
      1 C          -7.3549    1.5486   -0.1828 C.3     1  UNL1       -0.0396
      2 C          -5.8740    1.4987   -0.0254 C.ar    1  UNL1       -0.0483
      3 C          -5.2354    2.2778    0.9124 C.ar    1  UNL1       -0.0580
      4 C          -3.8617    2.2216    1.0467 C.ar    1  UNL1       -0.0473
      5 C          -3.1445    1.3602    0.2126 C.ar    1  UNL1        0.0640
      6 C          -1.6962    1.3354    0.3886 C.2     1  UNL1        0.2491
      7 O          -1.0266    2.1475   -0.2949 O.2     1  UNL1       -0.2699
      8 N          -1.0906    0.4487    1.2758 N.am    1  UNL1       -0.2897
      9 C          -1.9439   -0.4759    2.0431 C.3     1  UNL1        0.0388
     10 C          -1.3683   -1.8781    1.9925 C.3     1  UNL1        0.0635
     11 O           0.0007   -1.9164    2.2384 O.3     1  UNL1       -0.3764
     12 C           0.6203   -1.1650    1.2468 C.3     1  UNL1        0.0666
     13 C           0.3254    0.3130    1.5446 C.3     1  UNL1        0.0537
     14 C           1.2099    1.1205    0.6724 C.3     1  UNL1       -0.0041
     15 C           2.6393    0.9864    0.9280 C.ar    1  UNL1       -0.0097
     16 C           3.3774    0.2080    0.0313 C.ar    1  UNL1       -0.0465
     17 C           4.7224    0.0132    0.1736 C.ar    1  UNL1        0.0025
     18 C           5.5680   -0.7770   -0.7077 C.ar    1  UNL1        0.0933
     19 C           5.0648   -1.4272   -1.8119 C.ar    1  UNL1       -0.0325
     20 C           5.8808   -2.1874   -2.6586 C.ar    1  UNL1       -0.0398
     21 C           7.2234   -2.2814   -2.3706 C.ar    1  UNL1        0.0500
     22 N           7.6771   -1.6322   -1.2834 N.ar    1  UNL1       -0.1571
     23 N           6.8900   -0.9199   -0.4973 N.ar    1  UNL1       -0.1493
     24 C           5.3334    0.6306    1.2633 C.ar    1  UNL1       -0.0498
     25 C           4.6084    1.3987    2.1491 C.ar    1  UNL1       -0.0256
     26 C           3.2521    1.5927    2.0019 C.ar    1  UNL1        0.1267
     27 F           2.5541    2.3554    2.8883 F       1  UNL1       -0.2052
     28 C          -3.7726    0.5824   -0.7219 C.ar    1  UNL1        0.0985
     29 N          -3.0371   -0.2874   -1.5635 N.ar    1  UNL1       -0.1496
     30 N          -2.0384    0.0270   -2.3891 N.ar    1  UNL1       -0.1556
     31 C          -1.5751   -1.0456   -3.0304 C.ar    1  UNL1        0.0697
     32 C          -2.3366   -2.0979   -2.5734 C.ar    1  UNL1        0.0697
     33 N          -3.2032   -1.5902   -1.6915 N.ar    1  UNL1       -0.1556
     34 C          -5.1349    0.6489   -0.8437 C.ar    1  UNL1       -0.0309
     35 H          -7.8247    2.0889    0.6605 H       1  UNL1        0.0278
     36 H          -7.5267    2.1221   -1.1385 H       1  UNL1        0.0278
     37 H          -7.7191    0.4972   -0.2732 H       1  UNL1        0.0278
     38 H          -5.8063    2.9352    1.5460 H       1  UNL1        0.0620
     39 H          -3.3409    2.8254    1.7776 H       1  UNL1        0.0626
     40 H          -1.9198   -0.1400    3.0906 H       1  UNL1        0.0487
     41 H          -2.9621   -0.5275    1.6374 H       1  UNL1        0.0487
     42 H          -1.5480   -2.3387    0.9982 H       1  UNL1        0.0575
     43 H          -1.8528   -2.4429    2.8125 H       1  UNL1        0.0575
     44 H           0.1085   -1.3838    0.2872 H       1  UNL1        0.0578
     45 H           1.6774   -1.3649    1.1211 H       1  UNL1        0.0578
     46 H           0.4479    0.5204    2.6277 H       1  UNL1        0.0526
     47 H           0.9576    2.2073    0.8824 H       1  UNL1        0.0333
     48 H           1.0143    0.9942   -0.4065 H       1  UNL1        0.0333
     49 H           2.8845   -0.2672   -0.8153 H       1  UNL1        0.0628
     50 H           4.0091   -1.3686   -2.0609 H       1  UNL1        0.0640
     51 H           5.4764   -2.6990   -3.5307 H       1  UNL1        0.0634
     52 H           7.9127   -2.8636   -2.9975 H       1  UNL1        0.0848
     53 H           6.4014    0.5031    1.4167 H       1  UNL1        0.0625
     54 H           5.0855    1.8892    3.0117 H       1  UNL1        0.0646
     55 H          -0.7780   -1.1258   -3.7592 H       1  UNL1        0.0864
     56 H          -2.2560   -3.1552   -2.8698 H       1  UNL1        0.0864
     57 H          -5.6943    0.0605   -1.5631 H       1  UNL1        0.0642
@<TRIPOS>BOND
     1     1     2    1
     2     2     3   ar
     3     3     4   ar
     4     4     5   ar
     5     5     6    1
     6     6     7    2
     7     6     8   am
     8     8     9    1
     9     9    10    1
    10    10    11    1
    11    11    12    1
    12    12    13    1
    13    13    14    1
    14    14    15    1
    15    15    16   ar
    16    16    17   ar
    17    17    18    1
    18    18    19   ar
    19    19    20   ar
    20    20    21   ar
    21    21    22   ar
    22    22    23   ar
    23    17    24   ar
    24    24    25   ar
    25    25    26   ar
    26    26    27    1
    27     5    28   ar
    28    28    29    1
    29    29    30   ar
    30    30    31   ar
    31    31    32   ar
    32    32    33   ar
    33    28    34   ar
    34    34     2   ar
    35    13     8    1
    36    26    15   ar
    37    33    29   ar
    38    23    18   ar
    39     1    35    1
    40     1    36    1
    41     1    37    1
    42     3    38    1
    43     4    39    1
    44     9    40    1
    45     9    41    1
    46    10    42    1
    47    10    43    1
    48    12    44    1
    49    12    45    1
    50    13    46    1
    51    14    47    1
    52    14    48    1
    53    16    49    1
    54    19    50    1
    55    20    51    1
    56    21    52    1
    57    24    53    1
    58    25    54    1
    59    31    55    1
    60    32    56    1
    61    34    57    1
