@<TRIPOS>MOLECULE
*****
 53 55 0 0 0
SMALL
GASTEIGER

@<TRIPOS>ATOM
      1 C           5.2129   -2.7519    0.4340 C.3     1  UNL1        0.0365
      2 O           4.6817   -1.6095    1.0059 O.3     1  UNL1       -0.3814
      3 C           3.8709   -0.9618    0.0798 C.3     1  UNL1        0.0630
      4 C           3.2938    0.3167    0.7660 C.3     1  UNL1        0.0357
      5 N           2.4827    0.9139   -0.2668 N.pl3   1  UNL1       -0.3247
      6 C           3.0280    1.4606   -1.4978 C.3     1  UNL1        0.0129
      7 C           2.3105    0.9796   -2.7121 C.3     1  UNL1       -0.0306
      8 C           0.8837    0.6072   -2.5458 C.3     1  UNL1       -0.0154
      9 C           0.0506    1.2995   -3.6202 C.3     1  UNL1       -0.0583
     10 C           0.3016    0.8443   -1.2195 C.ar    1  UNL1       -0.0196
     11 C          -1.0725    0.9233   -1.0834 C.ar    1  UNL1       -0.0528
     12 C          -1.6813    1.1489    0.1349 C.ar    1  UNL1       -0.0391
     13 C          -3.1394    1.2410    0.3491 C.3     1  UNL1        0.0024
     14 C          -3.7672   -0.0114    0.7948 C.ar    1  UNL1        0.0146
     15 C          -4.0945   -0.1744    2.1355 C.ar    1  UNL1        0.0379
     16 N          -4.6576   -1.3132    2.5607 N.ar    1  UNL1       -0.2227
     17 C          -4.9273   -2.3347    1.7205 C.ar    1  UNL1        0.2142
     18 N          -5.5331   -3.5314    2.2461 N.pl3   1  UNL1       -0.3274
     19 N          -4.6246   -2.2046    0.4334 N.ar    1  UNL1       -0.1999
     20 C          -4.0505   -1.0612   -0.0399 C.ar    1  UNL1        0.1247
     21 N          -3.7579   -0.9753   -1.4250 N.pl3   1  UNL1       -0.3428
     22 C          -0.8534    1.3006    1.2602 C.ar    1  UNL1       -0.0146
     23 C           0.5155    1.2279    1.1588 C.ar    1  UNL1        0.1416
     24 O           1.3714    1.3717    2.2319 O.3     1  UNL1       -0.4932
     25 C           0.7913    1.6079    3.5101 C.3     1  UNL1        0.0789
     26 C           1.0793    0.9986   -0.0886 C.ar    1  UNL1        0.0755
     27 H           4.4512   -3.4840    0.1039 H       1  UNL1        0.0523
     28 H           5.8390   -2.4856   -0.4576 H       1  UNL1        0.0523
     29 H           5.8594   -3.2440    1.2086 H       1  UNL1        0.0523
     30 H           4.4009   -0.6759   -0.8256 H       1  UNL1        0.0575
     31 H           2.9911   -1.6261   -0.0786 H       1  UNL1        0.0575
     32 H           4.1719    0.9027    1.0480 H       1  UNL1        0.0486
     33 H           2.7256   -0.1302    1.6024 H       1  UNL1        0.0486
     34 H           2.9608    2.5671   -1.4590 H       1  UNL1        0.0464
     35 H           4.1114    1.2394   -1.6000 H       1  UNL1        0.0464
     36 H           2.4150    1.7662   -3.4912 H       1  UNL1        0.0286
     37 H           2.8764    0.1030   -3.0992 H       1  UNL1        0.0286
     38 H           0.7392   -0.4936   -2.7589 H       1  UNL1        0.0347
     39 H          -0.1993    2.3067   -3.2420 H       1  UNL1        0.0236
     40 H          -0.8603    0.7461   -3.8728 H       1  UNL1        0.0236
     41 H           0.6719    1.3967   -4.5501 H       1  UNL1        0.0236
     42 H          -1.7084    0.8086   -1.9674 H       1  UNL1        0.0624
     43 H          -3.3334    2.0233    1.1269 H       1  UNL1        0.0363
     44 H          -3.6293    1.6346   -0.5909 H       1  UNL1        0.0363
     45 H          -3.9024    0.6085    2.8570 H       1  UNL1        0.0834
     46 H          -6.3670   -3.4991    2.8712 H       1  UNL1        0.1452
     47 H          -5.1418   -4.4563    2.0066 H       1  UNL1        0.1452
     48 H          -3.9450   -0.0373   -1.8701 H       1  UNL1        0.1437
     49 H          -3.3824   -1.7909   -1.9625 H       1  UNL1        0.1437
     50 H          -1.2726    1.4800    2.2448 H       1  UNL1        0.0657
     51 H           1.5307    1.5352    4.3305 H       1  UNL1        0.0660
     52 H           0.2910    2.6173    3.5175 H       1  UNL1        0.0660
     53 H          -0.0082    0.8755    3.7352 H       1  UNL1        0.0660
@<TRIPOS>BOND
     1     1     2    1
     2     2     3    1
     3     3     4    1
     4     4     5    1
     5     5     6    1
     6     6     7    1
     7     7     8    1
     8     8     9    1
     9     8    10    1
    10    10    11   ar
    11    11    12   ar
    12    12    13    1
    13    13    14    1
    14    14    15   ar
    15    15    16   ar
    16    16    17   ar
    17    17    18    1
    18    17    19   ar
    19    19    20   ar
    20    20    21    1
    21    12    22   ar
    22    22    23   ar
    23    23    24    1
    24    24    25    1
    25    23    26   ar
    26    26     5    1
    27    26    10   ar
    28    20    14   ar
    29     1    27    1
    30     1    28    1
    31     1    29    1
    32     3    30    1
    33     3    31    1
    34     4    32    1
    35     4    33    1
    36     6    34    1
    37     6    35    1
    38     7    36    1
    39     7    37    1
    40     8    38    1
    41     9    39    1
    42     9    40    1
    43     9    41    1
    44    11    42    1
    45    13    43    1
    46    13    44    1
    47    15    45    1
    48    18    46    1
    49    18    47    1
    50    21    48    1
    51    21    49    1
    52    22    50    1
    53    25    51    1
    54    25    52    1
    55    25    53    1
