
     RDKit          3D

 53 55  0  0  0  0  0  0  0  0999 V2000
    5.2129   -2.7519    0.4340 C   0  0  0  0  0  0  0  0  0  0  0  0
    4.6817   -1.6095    1.0059 O   0  0  0  0  0  0  0  0  0  0  0  0
    3.8709   -0.9618    0.0798 C   0  0  0  0  0  0  0  0  0  0  0  0
    3.2938    0.3167    0.7660 C   0  0  0  0  0  0  0  0  0  0  0  0
    2.4827    0.9139   -0.2668 N   0  0  0  0  0  0  0  0  0  0  0  0
    3.0280    1.4606   -1.4978 C   0  0  0  0  0  0  0  0  0  0  0  0
    2.3105    0.9796   -2.7121 C   0  0  0  0  0  0  0  0  0  0  0  0
    0.8837    0.6072   -2.5458 C   0  0  0  0  0  0  0  0  0  0  0  0
    0.0506    1.2995   -3.6202 C   0  0  0  0  0  0  0  0  0  0  0  0
    0.3016    0.8443   -1.2195 C   0  0  0  0  0  0  0  0  0  0  0  0
   -1.0725    0.9233   -1.0834 C   0  0  0  0  0  0  0  0  0  0  0  0
   -1.6813    1.1489    0.1349 C   0  0  0  0  0  0  0  0  0  0  0  0
   -3.1394    1.2410    0.3491 C   0  0  0  0  0  0  0  0  0  0  0  0
   -3.7672   -0.0114    0.7948 C   0  0  0  0  0  0  0  0  0  0  0  0
   -4.0945   -0.1744    2.1355 C   0  0  0  0  0  0  0  0  0  0  0  0
   -4.6576   -1.3132    2.5607 N   0  0  0  0  0  0  0  0  0  0  0  0
   -4.9273   -2.3347    1.7205 C   0  0  0  0  0  0  0  0  0  0  0  0
   -5.5331   -3.5314    2.2461 N   0  0  0  0  0  0  0  0  0  0  0  0
   -4.6246   -2.2046    0.4334 N   0  0  0  0  0  0  0  0  0  0  0  0
   -4.0505   -1.0612   -0.0399 C   0  0  0  0  0  0  0  0  0  0  0  0
   -3.7579   -0.9753   -1.4250 N   0  0  0  0  0  0  0  0  0  0  0  0
   -0.8534    1.3006    1.2602 C   0  0  0  0  0  0  0  0  0  0  0  0
    0.5155    1.2279    1.1588 C   0  0  0  0  0  0  0  0  0  0  0  0
    1.3714    1.3717    2.2319 O   0  0  0  0  0  0  0  0  0  0  0  0
    0.7913    1.6079    3.5101 C   0  0  0  0  0  0  0  0  0  0  0  0
    1.0793    0.9986   -0.0886 C   0  0  0  0  0  0  0  0  0  0  0  0
    4.4512   -3.4840    0.1039 H   0  0  0  0  0  0  0  0  0  0  0  0
    5.8390   -2.4856   -0.4576 H   0  0  0  0  0  0  0  0  0  0  0  0
    5.8594   -3.2440    1.2086 H   0  0  0  0  0  0  0  0  0  0  0  0
    4.4009   -0.6759   -0.8256 H   0  0  0  0  0  0  0  0  0  0  0  0
    2.9911   -1.6261   -0.0786 H   0  0  0  0  0  0  0  0  0  0  0  0
    4.1719    0.9027    1.0480 H   0  0  0  0  0  0  0  0  0  0  0  0
    2.7256   -0.1302    1.6024 H   0  0  0  0  0  0  0  0  0  0  0  0
    2.9608    2.5671   -1.4590 H   0  0  0  0  0  0  0  0  0  0  0  0
    4.1114    1.2394   -1.6000 H   0  0  0  0  0  0  0  0  0  0  0  0
    2.4150    1.7662   -3.4912 H   0  0  0  0  0  0  0  0  0  0  0  0
    2.8764    0.1030   -3.0992 H   0  0  0  0  0  0  0  0  0  0  0  0
    0.7392   -0.4936   -2.7589 H   0  0  0  0  0  0  0  0  0  0  0  0
   -0.1993    2.3067   -3.2420 H   0  0  0  0  0  0  0  0  0  0  0  0
   -0.8603    0.7461   -3.8728 H   0  0  0  0  0  0  0  0  0  0  0  0
    0.6719    1.3967   -4.5501 H   0  0  0  0  0  0  0  0  0  0  0  0
   -1.7084    0.8086   -1.9674 H   0  0  0  0  0  0  0  0  0  0  0  0
   -3.3334    2.0233    1.1269 H   0  0  0  0  0  0  0  0  0  0  0  0
   -3.6293    1.6346   -0.5909 H   0  0  0  0  0  0  0  0  0  0  0  0
   -3.9024    0.6085    2.8570 H   0  0  0  0  0  0  0  0  0  0  0  0
   -6.3670   -3.4991    2.8712 H   0  0  0  0  0  0  0  0  0  0  0  0
   -5.1418   -4.4563    2.0066 H   0  0  0  0  0  0  0  0  0  0  0  0
   -3.9450   -0.0373   -1.8701 H   0  0  0  0  0  0  0  0  0  0  0  0
   -3.3824   -1.7909   -1.9625 H   0  0  0  0  0  0  0  0  0  0  0  0
   -1.2726    1.4800    2.2448 H   0  0  0  0  0  0  0  0  0  0  0  0
    1.5307    1.5352    4.3305 H   0  0  0  0  0  0  0  0  0  0  0  0
    0.2910    2.6173    3.5175 H   0  0  0  0  0  0  0  0  0  0  0  0
   -0.0082    0.8755    3.7352 H   0  0  0  0  0  0  0  0  0  0  0  0
  1  2  1  0
  2  3  1  0
  3  4  1  0
  4  5  1  0
  5  6  1  0
  6  7  1  0
  7  8  1  0
  8  9  1  0
  8 10  1  0
 10 11  2  0
 11 12  1  0
 12 13  1  0
 13 14  1  0
 14 15  2  0
 15 16  1  0
 16 17  2  0
 17 18  1  0
 17 19  1  0
 19 20  2  0
 20 21  1  0
 12 22  2  0
 22 23  1  0
 23 24  1  0
 24 25  1  0
 23 26  2  0
 26  5  1  0
 26 10  1  0
 20 14  1  0
  1 27  1  0
  1 28  1  0
  1 29  1  0
  3 30  1  0
  3 31  1  0
  4 32  1  0
  4 33  1  0
  6 34  1  0
  6 35  1  0
  7 36  1  0
  7 37  1  0
  8 38  1  0
  9 39  1  0
  9 40  1  0
  9 41  1  0
 11 42  1  0
 13 43  1  0
 13 44  1  0
 15 45  1  0
 18 46  1  0
 18 47  1  0
 21 48  1  0
 21 49  1  0
 22 50  1  0
 25 51  1  0
 25 52  1  0
 25 53  1  0
M  END
$$$$
