
     RDKit          3D

 45 49  0  0  0  0  0  0  0  0999 V2000
    5.7239    1.9152    2.6831 C   0  0  0  0  0  0  0  0  0  0  0  0
    5.3895    0.7688    1.7535 C   0  0  0  0  0  0  0  0  0  0  0  0
    6.3196   -0.0195    1.4949 O   0  0  0  0  0  0  0  0  0  0  0  0
    4.0743    0.6685    1.2501 N   0  0  0  0  0  0  0  0  0  0  0  0
    3.6556   -0.3492    0.3848 C   0  0  0  0  0  0  0  0  0  0  0  0
    4.4502   -1.3536   -0.0733 C   0  0  0  0  0  0  0  0  0  0  0  0
    3.9623   -2.3422   -0.9402 C   0  0  0  0  0  0  0  0  0  0  0  0
    2.6536   -2.2980   -1.3375 C   0  0  0  0  0  0  0  0  0  0  0  0
    1.8767   -3.0858   -2.1554 C   0  0  0  0  0  0  0  0  0  0  0  0
    0.6166   -2.5202   -2.1637 C   0  0  0  0  0  0  0  0  0  0  0  0
    0.5808   -1.4213   -1.3895 N   0  0  0  0  0  0  0  0  0  0  0  0
   -0.5616   -0.5977   -1.1747 C   0  0  0  0  0  0  0  0  0  0  0  0
   -1.2432   -0.6000    0.0257 C   0  0  0  0  0  0  0  0  0  0  0  0
   -2.3528    0.1858    0.2646 C   0  0  0  0  0  0  0  0  0  0  0  0
   -3.0018    0.1354    1.5264 N   0  0  0  0  0  0  0  0  0  0  0  0
   -4.1641    0.8861    1.8981 C   0  0  0  0  0  0  0  0  0  0  0  0
   -5.4483    0.6760    1.1575 C   0  0  0  0  0  0  0  0  0  0  0  0
   -5.2752    0.0984    2.5445 C   0  0  0  0  0  0  0  0  0  0  0  0
   -2.8084    1.0023   -0.7098 N   0  0  0  0  0  0  0  0  0  0  0  0
   -3.8359    1.8630   -0.7722 N   0  0  0  0  0  0  0  0  0  0  0  0
   -3.8781    2.4530   -1.9767 C   0  0  0  0  0  0  0  0  0  0  0  0
   -2.8204    1.9224   -2.6823 C   0  0  0  0  0  0  0  0  0  0  0  0
   -2.4270    2.2297   -4.0383 C   0  0  0  0  0  0  0  0  0  0  0  0
   -2.1138    2.4976   -5.1305 N   0  0  0  0  0  0  0  0  0  0  0  0
   -2.1483    1.0083   -1.8805 C   0  0  0  0  0  0  0  0  0  0  0  0
   -1.0591    0.2340   -2.1089 N   0  0  0  0  0  0  0  0  0  0  0  0
    1.8165   -1.2920   -0.8922 C   0  0  0  0  0  0  0  0  0  0  0  0
    2.3211   -0.3441   -0.0488 C   0  0  0  0  0  0  0  0  0  0  0  0
    6.1694    2.7274    2.1045 H   0  0  0  0  0  0  0  0  0  0  0  0
    6.3930    1.4878    3.4579 H   0  0  0  0  0  0  0  0  0  0  0  0
    4.7741    2.1929    3.1834 H   0  0  0  0  0  0  0  0  0  0  0  0
    3.3775    1.4281    1.5647 H   0  0  0  0  0  0  0  0  0  0  0  0
    5.4830   -1.4732    0.1796 H   0  0  0  0  0  0  0  0  0  0  0  0
    4.6089   -3.1381   -1.2977 H   0  0  0  0  0  0  0  0  0  0  0  0
    2.2280   -3.9711   -2.6736 H   0  0  0  0  0  0  0  0  0  0  0  0
   -0.1939   -2.9612   -2.7448 H   0  0  0  0  0  0  0  0  0  0  0  0
   -0.8475   -1.2752    0.7985 H   0  0  0  0  0  0  0  0  0  0  0  0
   -2.5931   -0.5085    2.2489 H   0  0  0  0  0  0  0  0  0  0  0  0
   -4.0380    1.8977    2.3338 H   0  0  0  0  0  0  0  0  0  0  0  0
   -5.5155   -0.0763    0.3438 H   0  0  0  0  0  0  0  0  0  0  0  0
   -6.1776    1.5117    1.0579 H   0  0  0  0  0  0  0  0  0  0  0  0
   -5.1676   -1.0123    2.6398 H   0  0  0  0  0  0  0  0  0  0  0  0
   -5.8890    0.5439    3.3303 H   0  0  0  0  0  0  0  0  0  0  0  0
   -4.5913    3.1986   -2.3411 H   0  0  0  0  0  0  0  0  0  0  0  0
    1.6766    0.4459    0.3050 H   0  0  0  0  0  0  0  0  0  0  0  0
  1  2  1  0
  2  3  2  0
  2  4  1  0
  4  5  1  0
  5  6  2  0
  6  7  1  0
  7  8  2  0
  8  9  1  0
  9 10  2  0
 10 11  1  0
 11 12  1  0
 12 13  1  0
 13 14  2  0
 14 15  1  0
 15 16  1  0
 16 17  1  0
 17 18  1  0
 14 19  1  0
 19 20  1  0
 20 21  2  0
 21 22  1  0
 22 23  1  0
 23 24  3  0
 22 25  2  0
 25 26  1  0
 11 27  1  0
 27 28  2  0
 28  5  1  0
 27  8  1  0
 26 12  2  0
 18 16  1  0
 25 19  1  0
  1 29  1  0
  1 30  1  0
  1 31  1  0
  4 32  1  0
  6 33  1  0
  7 34  1  0
  9 35  1  0
 10 36  1  0
 13 37  1  0
 15 38  1  0
 16 39  1  0
 17 40  1  0
 17 41  1  0
 18 42  1  0
 18 43  1  0
 21 44  1  0
 28 45  1  0
M  END
$$$$
