@<TRIPOS>MOLECULE
*****
 45 49 0 0 0
SMALL
GASTEIGER

@<TRIPOS>ATOM
      1 C           5.7239    1.9152    2.6831 C.3     1  UNL1        0.0125
      2 C           5.3895    0.7688    1.7535 C.2     1  UNL1        0.2141
      3 O           6.3196   -0.0195    1.4949 O.2     1  UNL1       -0.2758
      4 N           4.0743    0.6685    1.2501 N.am    1  UNL1       -0.2857
      5 C           3.6556   -0.3492    0.3848 C.ar    1  UNL1        0.0354
      6 C           4.4502   -1.3536   -0.0733 C.ar    1  UNL1       -0.0398
      7 C           3.9623   -2.3422   -0.9402 C.ar    1  UNL1       -0.0508
      8 C           2.6536   -2.2980   -1.3375 C.ar    1  UNL1        0.0004
      9 C           1.8767   -3.0858   -2.1554 C.ar    1  UNL1       -0.0360
     10 C           0.6166   -2.5202   -2.1637 C.ar    1  UNL1        0.0123
     11 N           0.5808   -1.4213   -1.3895 N.ar    1  UNL1       -0.3006
     12 C          -0.5616   -0.5977   -1.1747 C.ar    1  UNL1        0.1436
     13 C          -1.2432   -0.6000    0.0257 C.ar    1  UNL1        0.0211
     14 C          -2.3528    0.1858    0.2646 C.ar    1  UNL1        0.1262
     15 N          -3.0018    0.1354    1.5264 N.pl3   1  UNL1       -0.3260
     16 C          -4.1641    0.8861    1.8981 C.3     1  UNL1        0.0221
     17 C          -5.4483    0.6760    1.1575 C.3     1  UNL1       -0.0329
     18 C          -5.2752    0.0984    2.5445 C.3     1  UNL1       -0.0329
     19 N          -2.8084    1.0023   -0.7098 N.ar    1  UNL1       -0.1992
     20 N          -3.8359    1.8630   -0.7722 N.ar    1  UNL1       -0.1704
     21 C          -3.8781    2.4530   -1.9767 C.ar    1  UNL1        0.0694
     22 C          -2.8204    1.9224   -2.6823 C.ar    1  UNL1        0.1156
     23 C          -2.4270    2.2297   -4.0383 C.1     1  UNL1        0.1045
     24 N          -2.1138    2.4976   -5.1305 N.1     1  UNL1       -0.1907
     25 C          -2.1483    1.0083   -1.8805 C.ar    1  UNL1        0.1770
     26 N          -1.0591    0.2340   -2.1089 N.ar    1  UNL1       -0.2089
     27 C           1.8165   -1.2920   -0.8922 C.ar    1  UNL1        0.0569
     28 C           2.3211   -0.3441   -0.0488 C.ar    1  UNL1       -0.0160
     29 H           6.1694    2.7274    2.1045 H       1  UNL1        0.0323
     30 H           6.3930    1.4878    3.4579 H       1  UNL1        0.0323
     31 H           4.7741    2.1929    3.1834 H       1  UNL1        0.0323
     32 H           3.3775    1.4281    1.5647 H       1  UNL1        0.1548
     33 H           5.4830   -1.4732    0.1796 H       1  UNL1        0.0636
     34 H           4.6089   -3.1381   -1.2977 H       1  UNL1        0.0625
     35 H           2.2280   -3.9711   -2.6736 H       1  UNL1        0.0639
     36 H          -0.1939   -2.9612   -2.7448 H       1  UNL1        0.0813
     37 H          -0.8475   -1.2752    0.7985 H       1  UNL1        0.0689
     38 H          -2.5931   -0.5085    2.2489 H       1  UNL1        0.1477
     39 H          -4.0380    1.8977    2.3338 H       1  UNL1        0.0498
     40 H          -5.5155   -0.0763    0.3438 H       1  UNL1        0.0284
     41 H          -6.1776    1.5117    1.0579 H       1  UNL1        0.0284
     42 H          -5.1676   -1.0123    2.6398 H       1  UNL1        0.0284
     43 H          -5.8890    0.5439    3.3303 H       1  UNL1        0.0284
     44 H          -4.5913    3.1986   -2.3411 H       1  UNL1        0.0862
     45 H           1.6766    0.4459    0.3050 H       1  UNL1        0.0657
@<TRIPOS>BOND
     1     1     2    1
     2     2     3    2
     3     2     4   am
     4     4     5    1
     5     5     6   ar
     6     6     7   ar
     7     7     8   ar
     8     8     9   ar
     9     9    10   ar
    10    10    11   ar
    11    11    12    1
    12    12    13   ar
    13    13    14   ar
    14    14    15    1
    15    15    16    1
    16    16    17    1
    17    17    18    1
    18    14    19   ar
    19    19    20   ar
    20    20    21   ar
    21    21    22   ar
    22    22    23    1
    23    23    24    3
    24    22    25   ar
    25    25    26   ar
    26    11    27   ar
    27    27    28   ar
    28    28     5   ar
    29    27     8   ar
    30    26    12   ar
    31    18    16    1
    32    25    19   ar
    33     1    29    1
    34     1    30    1
    35     1    31    1
    36     4    32    1
    37     6    33    1
    38     7    34    1
    39     9    35    1
    40    10    36    1
    41    13    37    1
    42    15    38    1
    43    16    39    1
    44    17    40    1
    45    17    41    1
    46    18    42    1
    47    18    43    1
    48    21    44    1
    49    28    45    1
