@<TRIPOS>MOLECULE
*****
 88 88 0 0 0
SMALL
GASTEIGER

@<TRIPOS>ATOM
      1 C           5.8242   -3.4189    3.2498 C.3     1  UNL1       -0.0653
      2 C           5.7161   -2.3613    2.1168 C.3     1  UNL1       -0.0559
      3 C           6.3253   -1.1111    2.6199 C.3     1  UNL1       -0.0533
      4 C           6.3574    0.0825    1.7654 C.3     1  UNL1       -0.0531
      5 C           7.0654    0.1561    0.5081 C.3     1  UNL1       -0.0531
      6 C           6.8289   -0.6458   -0.6845 C.3     1  UNL1       -0.0531
      7 C           5.5298   -0.5879   -1.4044 C.3     1  UNL1       -0.0531
      8 C           4.3754   -1.0590   -0.6535 C.3     1  UNL1       -0.0531
      9 C           3.0624   -1.0021   -1.4643 C.3     1  UNL1       -0.0529
     10 C           2.7407    0.3880   -1.8943 C.3     1  UNL1       -0.0497
     11 C           1.5297    0.5891   -2.6751 C.3     1  UNL1       -0.0155
     12 C           0.1660    0.3401   -2.2346 C.3     1  UNL1        0.1065
     13 C          -0.3164   -0.9700   -1.8026 C.3     1  UNL1        0.0223
     14 C          -1.7776   -1.0342   -1.4196 C.3     1  UNL1        0.1193
     15 O          -2.0420   -2.3984   -1.0225 O.3     1  UNL1       -0.4601
     16 C          -2.1311   -2.6357   -2.4118 C.2     1  UNL1        0.3141
     17 O          -1.8403   -3.4936   -3.2554 O.2     1  UNL1       -0.2504
     18 C          -2.7817   -1.2960   -2.4374 C.3     1  UNL1        0.0934
     19 C          -4.1849   -1.4553   -1.8899 C.3     1  UNL1       -0.0366
     20 C          -4.7068   -0.2776   -1.1805 C.3     1  UNL1       -0.0522
     21 C          -6.0783   -0.4721   -0.6498 C.3     1  UNL1       -0.0530
     22 C          -6.3550   -1.3959    0.4528 C.3     1  UNL1       -0.0533
     23 C          -6.0085   -2.8323    0.3794 C.3     1  UNL1       -0.0559
     24 C          -6.5657   -3.5026    1.6735 C.3     1  UNL1       -0.0653
     25 O          -0.2192    1.3140   -1.2326 O.3     1  UNL1       -0.4599
     26 C          -1.1357    2.3064   -1.4238 C.2     1  UNL1        0.3279
     27 O          -1.6722    2.3481   -2.5859 O.2     1  UNL1       -0.2487
     28 C          -1.5035    3.2814   -0.3797 C.3     1  UNL1        0.1204
     29 C          -2.0036    2.5997    0.8870 C.3     1  UNL1       -0.0218
     30 C          -2.3114    3.6084    1.9366 C.3     1  UNL1       -0.0445
     31 C          -1.0664    4.4196    2.3066 C.3     1  UNL1       -0.0626
     32 C          -2.7134    2.8554    3.2126 C.3     1  UNL1       -0.0626
     33 N          -2.4782    4.1684   -0.9759 N.am    1  UNL1       -0.3050
     34 C          -3.8623    4.0771   -0.8286 C.2     1  UNL1        0.2006
     35 O          -4.4146    3.1809   -0.1569 O.2     1  UNL1       -0.2795
     36 H           6.8380   -3.8196    3.1901 H       1  UNL1        0.0230
     37 H           5.1203   -4.2469    2.9860 H       1  UNL1        0.0230
     38 H           5.5909   -2.9221    4.1973 H       1  UNL1        0.0230
     39 H           4.6202   -2.2542    1.9543 H       1  UNL1        0.0263
     40 H           6.2354   -2.7791    1.2512 H       1  UNL1        0.0263
     41 H           5.7320   -0.8300    3.5488 H       1  UNL1        0.0265
     42 H           7.3838   -1.3425    3.0107 H       1  UNL1        0.0265
     43 H           6.8692    0.9447    2.4126 H       1  UNL1        0.0265
     44 H           5.3168    0.5382    1.7508 H       1  UNL1        0.0265
     45 H           8.2216    0.0534    0.6920 H       1  UNL1        0.0265
     46 H           7.0052    1.2697    0.1396 H       1  UNL1        0.0265
     47 H           7.1418   -1.7227   -0.4760 H       1  UNL1        0.0265
     48 H           7.6722   -0.3827   -1.4545 H       1  UNL1        0.0265
     49 H           5.3489    0.5120   -1.6447 H       1  UNL1        0.0265
     50 H           5.6593   -1.1354   -2.3793 H       1  UNL1        0.0265
     51 H           4.4881   -2.1742   -0.4626 H       1  UNL1        0.0265
     52 H           4.1486   -0.6204    0.3008 H       1  UNL1        0.0265
     53 H           3.3246   -1.5729   -2.4051 H       1  UNL1        0.0265
     54 H           2.3637   -1.5346   -0.8442 H       1  UNL1        0.0265
     55 H           3.6104    0.6512   -2.5949 H       1  UNL1        0.0266
     56 H           2.9153    1.1409   -1.0799 H       1  UNL1        0.0266
     57 H           1.5461    1.6780   -3.0525 H       1  UNL1        0.0301
     58 H           1.7388    0.0649   -3.6822 H       1  UNL1        0.0301
     59 H          -0.4963    0.6577   -3.1105 H       1  UNL1        0.0735
     60 H          -0.0351   -1.8202   -2.4388 H       1  UNL1        0.0337
     61 H           0.1808   -1.2060   -0.8055 H       1  UNL1        0.0337
     62 H          -2.0964   -0.3491   -0.6218 H       1  UNL1        0.0743
     63 H          -2.7885   -0.7726   -3.3901 H       1  UNL1        0.0450
     64 H          -4.3413   -2.3935   -1.3974 H       1  UNL1        0.0274
     65 H          -4.8270   -1.5412   -2.8457 H       1  UNL1        0.0274
     66 H          -4.6589    0.6666   -1.7847 H       1  UNL1        0.0266
     67 H          -4.0474   -0.1413   -0.2560 H       1  UNL1        0.0266
     68 H          -6.6984   -0.8712   -1.5435 H       1  UNL1        0.0265
     69 H          -6.6023    0.5296   -0.4987 H       1  UNL1        0.0265
     70 H          -5.9294   -1.0107    1.4371 H       1  UNL1        0.0265
     71 H          -7.4932   -1.3752    0.6335 H       1  UNL1        0.0265
     72 H          -4.8961   -3.0125    0.5315 H       1  UNL1        0.0263
     73 H          -6.3785   -3.4128   -0.4508 H       1  UNL1        0.0263
     74 H          -6.3911   -4.5929    1.5829 H       1  UNL1        0.0230
     75 H          -6.0167   -3.1409    2.5556 H       1  UNL1        0.0230
     76 H          -7.6365   -3.3226    1.7552 H       1  UNL1        0.0230
     77 H          -0.6333    3.8706   -0.0274 H       1  UNL1        0.0614
     78 H          -2.7986    1.8817    0.7403 H       1  UNL1        0.0291
     79 H          -1.0931    2.0319    1.2686 H       1  UNL1        0.0291
     80 H          -3.0933    4.3284    1.7525 H       1  UNL1        0.0296
     81 H          -0.2457    3.7447    2.6121 H       1  UNL1        0.0232
     82 H          -1.3626    4.9937    3.2251 H       1  UNL1        0.0232
     83 H          -0.8022    5.1551    1.5479 H       1  UNL1        0.0232
     84 H          -2.7210    3.5288    4.0934 H       1  UNL1        0.0232
     85 H          -2.0356    2.0269    3.4269 H       1  UNL1        0.0232
     86 H          -3.7599    2.4741    3.1170 H       1  UNL1        0.0232
     87 H          -2.0605    4.9487   -1.5735 H       1  UNL1        0.1492
     88 H          -4.4853    4.8434   -1.3382 H       1  UNL1        0.1251
@<TRIPOS>BOND
     1     1     2    1
     2     2     3    1
     3     3     4    1
     4     4     5    1
     5     5     6    1
     6     6     7    1
     7     7     8    1
     8     8     9    1
     9     9    10    1
    10    10    11    1
    11    11    12    1
    12    12    13    1
    13    13    14    1
    14    14    15    1
    15    15    16    1
    16    16    17    2
    17    16    18    1
    18    18    19    1
    19    19    20    1
    20    20    21    1
    21    21    22    1
    22    22    23    1
    23    23    24    1
    24    12    25    1
    25    25    26    1
    26    26    27    2
    27    26    28    1
    28    28    29    1
    29    29    30    1
    30    30    31    1
    31    30    32    1
    32    28    33    1
    33    33    34   am
    34    34    35    2
    35    18    14    1
    36     1    36    1
    37     1    37    1
    38     1    38    1
    39     2    39    1
    40     2    40    1
    41     3    41    1
    42     3    42    1
    43     4    43    1
    44     4    44    1
    45     5    45    1
    46     5    46    1
    47     6    47    1
    48     6    48    1
    49     7    49    1
    50     7    50    1
    51     8    51    1
    52     8    52    1
    53     9    53    1
    54     9    54    1
    55    10    55    1
    56    10    56    1
    57    11    57    1
    58    11    58    1
    59    12    59    1
    60    13    60    1
    61    13    61    1
    62    14    62    1
    63    18    63    1
    64    19    64    1
    65    19    65    1
    66    20    66    1
    67    20    67    1
    68    21    68    1
    69    21    69    1
    70    22    70    1
    71    22    71    1
    72    23    72    1
    73    23    73    1
    74    24    74    1
    75    24    75    1
    76    24    76    1
    77    28    77    1
    78    29    78    1
    79    29    79    1
    80    30    80    1
    81    31    81    1
    82    31    82    1
    83    31    83    1
    84    32    84    1
    85    32    85    1
    86    32    86    1
    87    33    87    1
    88    34    88    1
