
     RDKit          3D

 88 88  0  0  0  0  0  0  0  0999 V2000
    5.8242   -3.4189    3.2498 C   0  0  0  0  0  0  0  0  0  0  0  0
    5.7161   -2.3613    2.1168 C   0  0  0  0  0  0  0  0  0  0  0  0
    6.3253   -1.1111    2.6199 C   0  0  0  0  0  0  0  0  0  0  0  0
    6.3574    0.0825    1.7654 C   0  0  0  0  0  0  0  0  0  0  0  0
    7.0654    0.1561    0.5081 C   0  0  0  0  0  0  0  0  0  0  0  0
    6.8289   -0.6458   -0.6845 C   0  0  0  0  0  0  0  0  0  0  0  0
    5.5298   -0.5879   -1.4044 C   0  0  0  0  0  0  0  0  0  0  0  0
    4.3754   -1.0590   -0.6535 C   0  0  0  0  0  0  0  0  0  0  0  0
    3.0624   -1.0021   -1.4643 C   0  0  0  0  0  0  0  0  0  0  0  0
    2.7407    0.3880   -1.8943 C   0  0  0  0  0  0  0  0  0  0  0  0
    1.5297    0.5891   -2.6751 C   0  0  0  0  0  0  0  0  0  0  0  0
    0.1660    0.3401   -2.2346 C   0  0  1  0  0  0  0  0  0  0  0  0
   -0.3164   -0.9700   -1.8026 C   0  0  0  0  0  0  0  0  0  0  0  0
   -1.7776   -1.0342   -1.4196 C   0  0  2  0  0  0  0  0  0  0  0  0
   -2.0420   -2.3984   -1.0225 O   0  0  0  0  0  0  0  0  0  0  0  0
   -2.1311   -2.6357   -2.4118 C   0  0  0  0  0  0  0  0  0  0  0  0
   -1.8403   -3.4936   -3.2554 O   0  0  0  0  0  0  0  0  0  0  0  0
   -2.7817   -1.2960   -2.4374 C   0  0  1  0  0  0  0  0  0  0  0  0
   -4.1849   -1.4553   -1.8899 C   0  0  0  0  0  0  0  0  0  0  0  0
   -4.7068   -0.2776   -1.1805 C   0  0  0  0  0  0  0  0  0  0  0  0
   -6.0783   -0.4721   -0.6498 C   0  0  0  0  0  0  0  0  0  0  0  0
   -6.3550   -1.3959    0.4528 C   0  0  0  0  0  0  0  0  0  0  0  0
   -6.0085   -2.8323    0.3794 C   0  0  0  0  0  0  0  0  0  0  0  0
   -6.5657   -3.5026    1.6735 C   0  0  0  0  0  0  0  0  0  0  0  0
   -0.2192    1.3140   -1.2326 O   0  0  0  0  0  0  0  0  0  0  0  0
   -1.1357    2.3064   -1.4238 C   0  0  0  0  0  0  0  0  0  0  0  0
   -1.6722    2.3481   -2.5859 O   0  0  0  0  0  0  0  0  0  0  0  0
   -1.5035    3.2814   -0.3797 C   0  0  2  0  0  0  0  0  0  0  0  0
   -2.0036    2.5997    0.8870 C   0  0  0  0  0  0  0  0  0  0  0  0
   -2.3114    3.6084    1.9366 C   0  0  0  0  0  0  0  0  0  0  0  0
   -1.0664    4.4196    2.3066 C   0  0  0  0  0  0  0  0  0  0  0  0
   -2.7134    2.8554    3.2126 C   0  0  0  0  0  0  0  0  0  0  0  0
   -2.4782    4.1684   -0.9759 N   0  0  0  0  0  0  0  0  0  0  0  0
   -3.8623    4.0771   -0.8286 C   0  0  0  0  0  0  0  0  0  0  0  0
   -4.4146    3.1809   -0.1569 O   0  0  0  0  0  0  0  0  0  0  0  0
    6.8380   -3.8196    3.1901 H   0  0  0  0  0  0  0  0  0  0  0  0
    5.1203   -4.2469    2.9860 H   0  0  0  0  0  0  0  0  0  0  0  0
    5.5909   -2.9221    4.1973 H   0  0  0  0  0  0  0  0  0  0  0  0
    4.6202   -2.2542    1.9543 H   0  0  0  0  0  0  0  0  0  0  0  0
    6.2354   -2.7791    1.2512 H   0  0  0  0  0  0  0  0  0  0  0  0
    5.7320   -0.8300    3.5488 H   0  0  0  0  0  0  0  0  0  0  0  0
    7.3838   -1.3425    3.0107 H   0  0  0  0  0  0  0  0  0  0  0  0
    6.8692    0.9447    2.4126 H   0  0  0  0  0  0  0  0  0  0  0  0
    5.3168    0.5382    1.7508 H   0  0  0  0  0  0  0  0  0  0  0  0
    8.2216    0.0534    0.6920 H   0  0  0  0  0  0  0  0  0  0  0  0
    7.0052    1.2697    0.1396 H   0  0  0  0  0  0  0  0  0  0  0  0
    7.1418   -1.7227   -0.4760 H   0  0  0  0  0  0  0  0  0  0  0  0
    7.6722   -0.3827   -1.4545 H   0  0  0  0  0  0  0  0  0  0  0  0
    5.3489    0.5120   -1.6447 H   0  0  0  0  0  0  0  0  0  0  0  0
    5.6593   -1.1354   -2.3793 H   0  0  0  0  0  0  0  0  0  0  0  0
    4.4881   -2.1742   -0.4626 H   0  0  0  0  0  0  0  0  0  0  0  0
    4.1486   -0.6204    0.3008 H   0  0  0  0  0  0  0  0  0  0  0  0
    3.3246   -1.5729   -2.4051 H   0  0  0  0  0  0  0  0  0  0  0  0
    2.3637   -1.5346   -0.8442 H   0  0  0  0  0  0  0  0  0  0  0  0
    3.6104    0.6512   -2.5949 H   0  0  0  0  0  0  0  0  0  0  0  0
    2.9153    1.1409   -1.0799 H   0  0  0  0  0  0  0  0  0  0  0  0
    1.5461    1.6780   -3.0525 H   0  0  0  0  0  0  0  0  0  0  0  0
    1.7388    0.0649   -3.6822 H   0  0  0  0  0  0  0  0  0  0  0  0
   -0.4963    0.6577   -3.1105 H   0  0  0  0  0  0  0  0  0  0  0  0
   -0.0351   -1.8202   -2.4388 H   0  0  0  0  0  0  0  0  0  0  0  0
    0.1808   -1.2060   -0.8055 H   0  0  0  0  0  0  0  0  0  0  0  0
   -2.0964   -0.3491   -0.6218 H   0  0  0  0  0  0  0  0  0  0  0  0
   -2.7885   -0.7726   -3.3901 H   0  0  0  0  0  0  0  0  0  0  0  0
   -4.3413   -2.3935   -1.3974 H   0  0  0  0  0  0  0  0  0  0  0  0
   -4.8270   -1.5412   -2.8457 H   0  0  0  0  0  0  0  0  0  0  0  0
   -4.6589    0.6666   -1.7847 H   0  0  0  0  0  0  0  0  0  0  0  0
   -4.0474   -0.1413   -0.2560 H   0  0  0  0  0  0  0  0  0  0  0  0
   -6.6984   -0.8712   -1.5435 H   0  0  0  0  0  0  0  0  0  0  0  0
   -6.6023    0.5296   -0.4987 H   0  0  0  0  0  0  0  0  0  0  0  0
   -5.9294   -1.0107    1.4371 H   0  0  0  0  0  0  0  0  0  0  0  0
   -7.4932   -1.3752    0.6335 H   0  0  0  0  0  0  0  0  0  0  0  0
   -4.8961   -3.0125    0.5315 H   0  0  0  0  0  0  0  0  0  0  0  0
   -6.3785   -3.4128   -0.4508 H   0  0  0  0  0  0  0  0  0  0  0  0
   -6.3911   -4.5929    1.5829 H   0  0  0  0  0  0  0  0  0  0  0  0
   -6.0167   -3.1409    2.5556 H   0  0  0  0  0  0  0  0  0  0  0  0
   -7.6365   -3.3226    1.7552 H   0  0  0  0  0  0  0  0  0  0  0  0
   -0.6333    3.8706   -0.0274 H   0  0  0  0  0  0  0  0  0  0  0  0
   -2.7986    1.8817    0.7403 H   0  0  0  0  0  0  0  0  0  0  0  0
   -1.0931    2.0319    1.2686 H   0  0  0  0  0  0  0  0  0  0  0  0
   -3.0933    4.3284    1.7525 H   0  0  0  0  0  0  0  0  0  0  0  0
   -0.2457    3.7447    2.6121 H   0  0  0  0  0  0  0  0  0  0  0  0
   -1.3626    4.9937    3.2251 H   0  0  0  0  0  0  0  0  0  0  0  0
   -0.8022    5.1551    1.5479 H   0  0  0  0  0  0  0  0  0  0  0  0
   -2.7210    3.5288    4.0934 H   0  0  0  0  0  0  0  0  0  0  0  0
   -2.0356    2.0269    3.4269 H   0  0  0  0  0  0  0  0  0  0  0  0
   -3.7599    2.4741    3.1170 H   0  0  0  0  0  0  0  0  0  0  0  0
   -2.0605    4.9487   -1.5735 H   0  0  0  0  0  0  0  0  0  0  0  0
   -4.4853    4.8434   -1.3382 H   0  0  0  0  0  0  0  0  0  0  0  0
  1  2  1  0
  2  3  1  0
  3  4  1  0
  4  5  1  0
  5  6  1  0
  6  7  1  0
  7  8  1  0
  8  9  1  0
  9 10  1  0
 10 11  1  0
 11 12  1  0
 12 13  1  0
 13 14  1  0
 14 15  1  0
 15 16  1  0
 16 17  2  0
 16 18  1  0
 18 19  1  0
 19 20  1  0
 20 21  1  0
 21 22  1  0
 22 23  1  0
 23 24  1  0
 12 25  1  0
 25 26  1  0
 26 27  2  0
 26 28  1  0
 28 29  1  0
 29 30  1  0
 30 31  1  0
 30 32  1  0
 28 33  1  0
 33 34  1  0
 34 35  2  0
 18 14  1  0
  1 36  1  0
  1 37  1  0
  1 38  1  0
  2 39  1  0
  2 40  1  0
  3 41  1  0
  3 42  1  0
  4 43  1  0
  4 44  1  0
  5 45  1  0
  5 46  1  0
  6 47  1  0
  6 48  1  0
  7 49  1  0
  7 50  1  0
  8 51  1  0
  8 52  1  0
  9 53  1  0
  9 54  1  0
 10 55  1  0
 10 56  1  0
 11 57  1  0
 11 58  1  0
 12 59  1  6
 13 60  1  0
 13 61  1  0
 14 62  1  1
 18 63  1  6
 19 64  1  0
 19 65  1  0
 20 66  1  0
 20 67  1  0
 21 68  1  0
 21 69  1  0
 22 70  1  0
 22 71  1  0
 23 72  1  0
 23 73  1  0
 24 74  1  0
 24 75  1  0
 24 76  1  0
 28 77  1  1
 29 78  1  0
 29 79  1  0
 30 80  1  0
 31 81  1  0
 31 82  1  0
 31 83  1  0
 32 84  1  0
 32 85  1  0
 32 86  1  0
 33 87  1  0
 34 88  1  0
M  END
$$$$
