@<TRIPOS>MOLECULE
*****
 43 46 0 0 0
SMALL
GASTEIGER

@<TRIPOS>ATOM
      1 N           9.5621    0.2895   -0.6371 N.1     1  UNL1       -0.1908
      2 C           8.4005    0.2755   -0.5216 C.1     1  UNL1        0.1007
      3 C           6.9763    0.2782   -0.3937 C.ar    1  UNL1        0.0712
      4 C           6.2036   -0.6500   -1.0705 C.ar    1  UNL1        0.0459
      5 N           4.8618   -0.6485   -0.9508 N.ar    1  UNL1       -0.2476
      6 C           4.2060    0.2364   -0.1826 C.ar    1  UNL1        0.1439
      7 C           2.7346    0.1379   -0.1318 C.2     1  UNL1        0.2680
      8 O           2.1549    0.9664    0.5845 O.2     1  UNL1       -0.2681
      9 N           2.0164   -0.8265   -0.8424 N.am    1  UNL1       -0.2802
     10 C           0.6246   -1.0296   -0.8823 C.ar    1  UNL1        0.0342
     11 C           0.1081   -2.0460   -1.6586 C.ar    1  UNL1       -0.0377
     12 C          -1.2472   -2.3079   -1.7490 C.ar    1  UNL1       -0.0243
     13 C          -2.0963   -1.4997   -1.0190 C.ar    1  UNL1        0.1292
     14 F          -3.4254   -1.7412   -1.0958 F       1  UNL1       -0.2051
     15 C          -1.6358   -0.4718   -0.2287 C.ar    1  UNL1        0.0228
     16 C          -2.6369    0.3304    0.5339 C.3     1  UNL1        0.1603
     17 C          -1.9437    1.3996    1.3644 C.3     1  UNL1        0.2686
     18 F          -1.2467    2.2996    0.6023 F       1  UNL1       -0.2062
     19 F          -2.8485    2.0640    2.1567 F       1  UNL1       -0.2062
     20 N          -3.3020   -0.5644    1.4129 N.2     1  UNL1       -0.2194
     21 C          -4.5438   -0.7850    1.4294 C.2     1  UNL1        0.2764
     22 N          -5.1408   -1.7176    2.3634 N.pl3   1  UNL1       -0.3134
     23 O          -5.3845   -0.1367    0.5471 O.2     1  UNL1       -0.4622
     24 C          -4.9299    0.6984   -0.4650 C.3     1  UNL1        0.1091
     25 C          -4.4773    2.0861    0.0262 C.3     1  UNL1       -0.0064
     26 C          -3.5315    1.0817   -0.4248 C.3     1  UNL1        0.0344
     27 C          -0.2780   -0.2503   -0.1705 C.ar    1  UNL1       -0.0321
     28 C           4.9122    1.1678    0.5027 C.ar    1  UNL1        0.0726
     29 CL          4.1010    2.3258    1.5038 Cl      1  UNL1       -0.0811
     30 C           6.2943    1.1957    0.4030 C.ar    1  UNL1       -0.0223
     31 H           6.7276   -1.3803   -1.7030 H       1  UNL1        0.0843
     32 H           2.6345   -1.4845   -1.4253 H       1  UNL1        0.1552
     33 H           0.8344   -2.6523   -2.2145 H       1  UNL1        0.0637
     34 H          -1.5868   -3.1160   -2.3723 H       1  UNL1        0.0647
     35 H          -1.2521    0.8895    2.1122 H       1  UNL1        0.1047
     36 H          -5.2551   -1.4848    3.3589 H       1  UNL1        0.1466
     37 H          -5.4460   -2.6256    1.9846 H       1  UNL1        0.1466
     38 H          -5.5203    0.6781   -1.3953 H       1  UNL1        0.0737
     39 H          -4.7678    2.3414    1.0413 H       1  UNL1        0.0306
     40 H          -4.7468    2.9258   -0.6904 H       1  UNL1        0.0306
     41 H          -3.0282    1.2776   -1.4064 H       1  UNL1        0.0366
     42 H           0.0422    0.5484    0.4632 H       1  UNL1        0.0640
     43 H           6.8760    1.9246    0.9367 H       1  UNL1        0.0646
@<TRIPOS>BOND
     1     1     2    3
     2     2     3    1
     3     3     4   ar
     4     4     5   ar
     5     5     6   ar
     6     6     7    1
     7     7     8    2
     8     7     9   am
     9     9    10    1
    10    10    11   ar
    11    11    12   ar
    12    12    13   ar
    13    13    14    1
    14    13    15   ar
    15    15    16    1
    16    16    17    1
    17    17    18    1
    18    17    19    1
    19    16    20    1
    20    20    21    2
    21    21    22    1
    22    21    23    1
    23    23    24    1
    24    24    25    1
    25    25    26    1
    26    15    27   ar
    27     6    28   ar
    28    28    29    1
    29    28    30   ar
    30    30     3   ar
    31    27    10   ar
    32    26    16    1
    33    26    24    1
    34     4    31    1
    35     9    32    1
    36    11    33    1
    37    12    34    1
    38    17    35    1
    39    22    36    1
    40    22    37    1
    41    24    38    1
    42    25    39    1
    43    25    40    1
    44    26    41    1
    45    27    42    1
    46    30    43    1
