
     RDKit          3D

 47 49  0  0  0  0  0  0  0  0999 V2000
    8.6349   -0.2464   -0.9561 C   0  0  0  0  0  0  0  0  0  0  0  0
    7.6263   -0.9228   -1.6835 O   0  0  0  0  0  0  0  0  0  0  0  0
    6.2757   -0.7511   -1.3609 C   0  0  0  0  0  0  0  0  0  0  0  0
    5.2810   -1.4031   -2.0596 C   0  0  0  0  0  0  0  0  0  0  0  0
    3.9514   -1.2203   -1.7256 C   0  0  0  0  0  0  0  0  0  0  0  0
    3.5881   -0.3877   -0.6928 C   0  0  0  0  0  0  0  0  0  0  0  0
    2.1501   -0.1953   -0.3378 C   0  0  0  0  0  0  0  0  0  0  0  0
    1.2725   -0.7978   -0.9871 O   0  0  0  0  0  0  0  0  0  0  0  0
    1.7911    0.6588    0.7205 N   0  0  0  0  0  0  0  0  0  0  0  0
    0.4891    0.9468    1.1789 C   0  0  0  0  0  0  0  0  0  0  0  0
    0.3890    1.8281    2.2446 C   0  0  0  0  0  0  0  0  0  0  0  0
   -0.7882    2.1664    2.7524 N   0  0  0  0  0  0  0  0  0  0  0  0
   -1.9167    1.6663    2.2501 C   0  0  0  0  0  0  0  0  0  0  0  0
   -3.0862    2.0621    2.8085 F   0  0  0  0  0  0  0  0  0  0  0  0
   -1.8824    0.7732    1.1763 C   0  0  0  0  0  0  0  0  0  0  0  0
   -3.1974    0.2781    0.7262 C   0  0  2  0  0  0  0  0  0  0  0  0
   -3.8714   -0.4852    1.8277 C   0  0  0  0  0  0  0  0  0  0  0  0
   -3.1006   -0.6634   -0.4594 C   0  0  0  0  0  0  0  0  0  0  0  0
   -4.3891   -0.7990   -1.2064 C   0  0  1  0  0  0  0  0  0  0  0  0
   -4.9952   -2.1824   -1.1607 C   0  0  0  0  0  0  0  0  0  0  0  0
   -6.1838   -2.1337   -1.9081 F   0  0  0  0  0  0  0  0  0  0  0  0
   -4.1647   -3.1334   -1.6956 F   0  0  0  0  0  0  0  0  0  0  0  0
   -5.3895   -2.5528    0.1055 F   0  0  0  0  0  0  0  0  0  0  0  0
   -5.3999    0.1119   -0.7527 O   0  0  0  0  0  0  0  0  0  0  0  0
   -5.0220    1.3900   -0.3667 C   0  0  0  0  0  0  0  0  0  0  0  0
   -5.7251    2.5704   -0.7070 N   0  0  0  0  0  0  0  0  0  0  0  0
   -3.9576    1.4786    0.3485 N   0  0  0  0  0  0  0  0  0  0  0  0
   -0.6694    0.4317    0.6618 C   0  0  0  0  0  0  0  0  0  0  0  0
    4.5671    0.2384   -0.0237 N   0  0  0  0  0  0  0  0  0  0  0  0
    5.8704    0.0751   -0.3322 C   0  0  0  0  0  0  0  0  0  0  0  0
    8.4007   -0.4474    0.1309 H   0  0  0  0  0  0  0  0  0  0  0  0
    8.5667    0.8516   -1.0723 H   0  0  0  0  0  0  0  0  0  0  0  0
    9.6294   -0.6544   -1.1251 H   0  0  0  0  0  0  0  0  0  0  0  0
    5.5594   -2.0612   -2.8752 H   0  0  0  0  0  0  0  0  0  0  0  0
    3.1601   -1.7375   -2.2797 H   0  0  0  0  0  0  0  0  0  0  0  0
    2.6090    1.1263    1.2124 H   0  0  0  0  0  0  0  0  0  0  0  0
    1.2675    2.2804    2.7111 H   0  0  0  0  0  0  0  0  0  0  0  0
   -3.5770   -0.1313    2.8508 H   0  0  0  0  0  0  0  0  0  0  0  0
   -3.5952   -1.5663    1.8168 H   0  0  0  0  0  0  0  0  0  0  0  0
   -4.9699   -0.4326    1.7148 H   0  0  0  0  0  0  0  0  0  0  0  0
   -2.6778   -1.6123   -0.0970 H   0  0  0  0  0  0  0  0  0  0  0  0
   -2.3299   -0.2264   -1.1631 H   0  0  0  0  0  0  0  0  0  0  0  0
   -4.2279   -0.5413   -2.2949 H   0  0  0  0  0  0  0  0  0  0  0  0
   -6.6003    2.7909   -0.2045 H   0  0  0  0  0  0  0  0  0  0  0  0
   -5.3794    3.2136   -1.4471 H   0  0  0  0  0  0  0  0  0  0  0  0
   -0.6370   -0.2523   -0.1529 H   0  0  0  0  0  0  0  0  0  0  0  0
    6.6538    0.5985    0.2298 H   0  0  0  0  0  0  0  0  0  0  0  0
  1  2  1  0
  2  3  1  0
  3  4  2  0
  4  5  1  0
  5  6  2  0
  6  7  1  0
  7  8  2  0
  7  9  1  0
  9 10  1  0
 10 11  2  0
 11 12  1  0
 12 13  2  0
 13 14  1  0
 13 15  1  0
 15 16  1  0
 16 17  1  1
 16 18  1  0
 18 19  1  0
 19 20  1  0
 20 21  1  0
 20 22  1  0
 20 23  1  0
 19 24  1  0
 24 25  1  0
 25 26  1  0
 25 27  2  0
 15 28  2  0
  6 29  1  0
 29 30  2  0
 30  3  1  0
 28 10  1  0
 27 16  1  0
  1 31  1  0
  1 32  1  0
  1 33  1  0
  4 34  1  0
  5 35  1  0
  9 36  1  0
 11 37  1  0
 17 38  1  0
 17 39  1  0
 17 40  1  0
 18 41  1  0
 18 42  1  0
 19 43  1  6
 26 44  1  0
 26 45  1  0
 28 46  1  0
 30 47  1  0
M  END
$$$$
