@<TRIPOS>MOLECULE
*****
 47 49 0 0 0
SMALL
GASTEIGER

@<TRIPOS>ATOM
      1 C           8.6349   -0.2464   -0.9561 C.3     1  UNL1        0.0789
      2 O           7.6263   -0.9228   -1.6835 O.3     1  UNL1       -0.4936
      3 C           6.2757   -0.7511   -1.3609 C.ar    1  UNL1        0.1381
      4 C           5.2810   -1.4031   -2.0596 C.ar    1  UNL1       -0.0163
      5 C           3.9514   -1.2203   -1.7256 C.ar    1  UNL1       -0.0277
      6 C           3.5881   -0.3877   -0.6928 C.ar    1  UNL1        0.1259
      7 C           2.1501   -0.1953   -0.3378 C.2     1  UNL1        0.2666
      8 O           1.2725   -0.7978   -0.9871 O.2     1  UNL1       -0.2682
      9 N           1.7911    0.6588    0.7205 N.am    1  UNL1       -0.2789
     10 C           0.4891    0.9468    1.1789 C.ar    1  UNL1        0.0525
     11 C           0.3890    1.8281    2.2446 C.ar    1  UNL1        0.0519
     12 N          -0.7882    2.1664    2.7524 N.ar    1  UNL1       -0.2255
     13 C          -1.9167    1.6663    2.2501 C.ar    1  UNL1        0.2188
     14 F          -3.0862    2.0621    2.8085 F       1  UNL1       -0.1835
     15 C          -1.8824    0.7732    1.1763 C.ar    1  UNL1        0.0359
     16 C          -3.1974    0.2781    0.7262 C.3     1  UNL1        0.0966
     17 C          -3.8714   -0.4852    1.8277 C.3     1  UNL1       -0.0352
     18 C          -3.1006   -0.6634   -0.4594 C.3     1  UNL1        0.0224
     19 C          -4.3891   -0.7990   -1.2064 C.3     1  UNL1        0.1997
     20 C          -4.9952   -2.1824   -1.1607 C.3     1  UNL1        0.4266
     21 F          -6.1838   -2.1337   -1.9081 F       1  UNL1       -0.1669
     22 F          -4.1647   -3.1334   -1.6956 F       1  UNL1       -0.1669
     23 F          -5.3895   -2.5528    0.1055 F       1  UNL1       -0.1669
     24 O          -5.3999    0.1119   -0.7527 O.2     1  UNL1       -0.4534
     25 C          -5.0220    1.3900   -0.3667 C.2     1  UNL1        0.2765
     26 N          -5.7251    2.5704   -0.7070 N.pl3   1  UNL1       -0.3134
     27 N          -3.9576    1.4786    0.3485 N.2     1  UNL1       -0.2256
     28 C          -0.6694    0.4317    0.6618 C.ar    1  UNL1       -0.0292
     29 N           4.5671    0.2384   -0.0237 N.ar    1  UNL1       -0.2467
     30 C           5.8704    0.0751   -0.3322 C.ar    1  UNL1        0.0700
     31 H           8.4007   -0.4474    0.1309 H       1  UNL1        0.0660
     32 H           8.5667    0.8516   -1.0723 H       1  UNL1        0.0660
     33 H           9.6294   -0.6544   -1.1251 H       1  UNL1        0.0660
     34 H           5.5594   -2.0612   -2.8752 H       1  UNL1        0.0655
     35 H           3.1601   -1.7375   -2.2797 H       1  UNL1        0.0641
     36 H           2.6090    1.1263    1.2124 H       1  UNL1        0.1552
     37 H           1.2675    2.2804    2.7111 H       1  UNL1        0.0849
     38 H          -3.5770   -0.1313    2.8508 H       1  UNL1        0.0256
     39 H          -3.5952   -1.5663    1.8168 H       1  UNL1        0.0256
     40 H          -4.9699   -0.4326    1.7148 H       1  UNL1        0.0256
     41 H          -2.6778   -1.6123   -0.0970 H       1  UNL1        0.0330
     42 H          -2.3299   -0.2264   -1.1631 H       1  UNL1        0.0330
     43 H          -4.2279   -0.5413   -2.2949 H       1  UNL1        0.0826
     44 H          -6.6003    2.7909   -0.2045 H       1  UNL1        0.1466
     45 H          -5.3794    3.2136   -1.4471 H       1  UNL1        0.1466
     46 H          -0.6370   -0.2523   -0.1529 H       1  UNL1        0.0641
     47 H           6.6538    0.5985    0.2298 H       1  UNL1        0.0867
@<TRIPOS>BOND
     1     1     2    1
     2     2     3    1
     3     3     4   ar
     4     4     5   ar
     5     5     6   ar
     6     6     7    1
     7     7     8    2
     8     7     9   am
     9     9    10    1
    10    10    11   ar
    11    11    12   ar
    12    12    13   ar
    13    13    14    1
    14    13    15   ar
    15    15    16    1
    16    16    17    1
    17    16    18    1
    18    18    19    1
    19    19    20    1
    20    20    21    1
    21    20    22    1
    22    20    23    1
    23    19    24    1
    24    24    25    1
    25    25    26    1
    26    25    27    2
    27    15    28   ar
    28     6    29   ar
    29    29    30   ar
    30    30     3   ar
    31    28    10   ar
    32    27    16    1
    33     1    31    1
    34     1    32    1
    35     1    33    1
    36     4    34    1
    37     5    35    1
    38     9    36    1
    39    11    37    1
    40    17    38    1
    41    17    39    1
    42    17    40    1
    43    18    41    1
    44    18    42    1
    45    19    43    1
    46    26    44    1
    47    26    45    1
    48    28    46    1
    49    30    47    1
