@<TRIPOS>MOLECULE
*****
 54 57 0 0 0
SMALL
GASTEIGER

@<TRIPOS>ATOM
      1 C           6.6949    1.2287    0.6282 C.3     1  UNL1       -0.0306
      2 C           6.7575   -0.0913   -0.1454 C.3     1  UNL1        0.0897
      3 O           5.4602   -0.5612   -0.3647 O.3     1  UNL1       -0.4643
      4 C           5.1189   -1.7161   -1.0254 C.2     1  UNL1        0.3177
      5 O           6.0322   -2.4281   -1.4807 O.2     1  UNL1       -0.2498
      6 C           3.6742   -2.0656   -1.1678 C.3     1  UNL1        0.0927
      7 C           2.7028   -1.1065   -0.5659 C.ar    1  UNL1       -0.0285
      8 C           2.9040   -0.5888    0.7098 C.ar    1  UNL1       -0.0554
      9 C           2.0331    0.3011    1.3038 C.ar    1  UNL1       -0.0357
     10 C           0.9020    0.7193    0.6345 C.ar    1  UNL1        0.0700
     11 C           0.6876    0.2154   -0.6317 C.ar    1  UNL1        0.0881
     12 C           1.5679   -0.6800   -1.2240 C.ar    1  UNL1       -0.0300
     13 N          -0.4144    0.6222   -1.2860 N.ar    1  UNL1       -0.2444
     14 C          -1.2791    1.5075   -0.6938 C.ar    1  UNL1        0.1105
     15 C          -2.4548    1.8847   -1.4915 C.3     1  UNL1        0.0201
     16 C          -3.6948    1.2122   -1.0704 C.ar    1  UNL1       -0.0414
     17 C          -4.0162   -0.0617   -1.5135 C.ar    1  UNL1       -0.0574
     18 C          -5.1820   -0.6736   -1.1156 C.ar    1  UNL1       -0.0466
     19 C          -6.0565   -0.0444   -0.2729 C.ar    1  UNL1        0.0647
     20 C          -7.2918   -0.6673    0.1614 C.2     1  UNL1        0.3081
     21 N          -7.9218   -1.4952   -0.5731 N.2     1  UNL1       -0.0994
     22 N          -7.8282   -0.3584    1.4386 N.pl3   1  UNL1       -0.2466
     23 C          -5.7331    1.2150    0.1614 C.ar    1  UNL1       -0.0466
     24 C          -4.5656    1.8532   -0.2245 C.ar    1  UNL1       -0.0574
     25 C          -1.0431    1.9907    0.5595 C.ar    1  UNL1        0.2732
     26 O          -1.8429    2.7972    1.0812 O.2     1  UNL1       -0.2657
     27 N           0.0576    1.5881    1.2209 N.ar    1  UNL1       -0.3083
     28 C           0.2910    2.1141    2.5561 C.3     1  UNL1        0.0154
     29 C           3.2260   -2.9870   -2.2524 C.3     1  UNL1       -0.0318
     30 C           3.4307   -3.5575   -0.8947 C.3     1  UNL1       -0.0318
     31 H           6.4565    1.0008    1.6815 H       1  UNL1        0.0262
     32 H           7.6820    1.7457    0.5451 H       1  UNL1        0.0262
     33 H           5.8684    1.8468    0.1837 H       1  UNL1        0.0262
     34 H           7.3044    0.0451   -1.1157 H       1  UNL1        0.0694
     35 H           7.3055   -0.8066    0.5111 H       1  UNL1        0.0694
     36 H           3.7922   -0.9142    1.2412 H       1  UNL1        0.0621
     37 H           2.1958    0.7006    2.2993 H       1  UNL1        0.0639
     38 H           1.3657   -1.0609   -2.2347 H       1  UNL1        0.0642
     39 H          -2.3115    1.6894   -2.5801 H       1  UNL1        0.0378
     40 H          -2.6000    2.9848   -1.3609 H       1  UNL1        0.0378
     41 H          -3.3056   -0.5421   -2.1830 H       1  UNL1        0.0621
     42 H          -5.3749   -1.6737   -1.4991 H       1  UNL1        0.0626
     43 H          -7.6304   -1.8005   -1.5232 H       1  UNL1        0.3633
     44 H          -8.7499    0.1192    1.5273 H       1  UNL1        0.2884
     45 H          -7.3234   -0.5969    2.3168 H       1  UNL1        0.2884
     46 H          -6.3935    1.7341    0.8200 H       1  UNL1        0.0626
     47 H          -4.3939    2.8595    0.1677 H       1  UNL1        0.0621
     48 H           0.4969    1.2643    3.2717 H       1  UNL1        0.0457
     49 H           1.0990    2.8554    2.5941 H       1  UNL1        0.0457
     50 H          -0.6595    2.5642    2.9568 H       1  UNL1        0.0457
     51 H           2.1683   -2.8983   -2.5697 H       1  UNL1        0.0279
     52 H           3.9355   -3.3003   -3.0489 H       1  UNL1        0.0279
     53 H           2.5820   -3.7500   -0.2107 H       1  UNL1        0.0279
     54 H           4.2741   -4.2332   -0.7675 H       1  UNL1        0.0279
@<TRIPOS>BOND
     1     1     2    1
     2     2     3    1
     3     3     4    1
     4     4     5    2
     5     4     6    1
     6     6     7    1
     7     7     8   ar
     8     8     9   ar
     9     9    10   ar
    10    10    11   ar
    11    11    12   ar
    12    11    13   ar
    13    13    14   ar
    14    14    15    1
    15    15    16    1
    16    16    17   ar
    17    17    18   ar
    18    18    19   ar
    19    19    20    1
    20    20    21    2
    21    20    22    1
    22    19    23   ar
    23    23    24   ar
    24    14    25   ar
    25    25    26    2
    26    25    27   ar
    27    27    28    1
    28     6    29    1
    29    29    30    1
    30    30     6    1
    31    12     7   ar
    32    24    16   ar
    33    27    10   ar
    34     1    31    1
    35     1    32    1
    36     1    33    1
    37     2    34    1
    38     2    35    1
    39     8    36    1
    40     9    37    1
    41    12    38    1
    42    15    39    1
    43    15    40    1
    44    17    41    1
    45    18    42    1
    46    21    43    1
    47    22    44    1
    48    22    45    1
    49    23    46    1
    50    24    47    1
    51    28    48    1
    52    28    49    1
    53    28    50    1
    54    29    51    1
    55    29    52    1
    56    30    53    1
    57    30    54    1
