
     RDKit          3D

 54 57  0  0  0  0  0  0  0  0999 V2000
    6.6949    1.2287    0.6282 C   0  0  0  0  0  0  0  0  0  0  0  0
    6.7575   -0.0913   -0.1454 C   0  0  0  0  0  0  0  0  0  0  0  0
    5.4602   -0.5612   -0.3647 O   0  0  0  0  0  0  0  0  0  0  0  0
    5.1189   -1.7161   -1.0254 C   0  0  0  0  0  0  0  0  0  0  0  0
    6.0322   -2.4281   -1.4807 O   0  0  0  0  0  0  0  0  0  0  0  0
    3.6742   -2.0656   -1.1678 C   0  0  0  0  0  0  0  0  0  0  0  0
    2.7028   -1.1065   -0.5659 C   0  0  0  0  0  0  0  0  0  0  0  0
    2.9040   -0.5888    0.7098 C   0  0  0  0  0  0  0  0  0  0  0  0
    2.0331    0.3011    1.3038 C   0  0  0  0  0  0  0  0  0  0  0  0
    0.9020    0.7193    0.6345 C   0  0  0  0  0  0  0  0  0  0  0  0
    0.6876    0.2154   -0.6317 C   0  0  0  0  0  0  0  0  0  0  0  0
    1.5679   -0.6800   -1.2240 C   0  0  0  0  0  0  0  0  0  0  0  0
   -0.4144    0.6222   -1.2860 N   0  0  0  0  0  0  0  0  0  0  0  0
   -1.2791    1.5075   -0.6938 C   0  0  0  0  0  0  0  0  0  0  0  0
   -2.4548    1.8847   -1.4915 C   0  0  0  0  0  0  0  0  0  0  0  0
   -3.6948    1.2122   -1.0704 C   0  0  0  0  0  0  0  0  0  0  0  0
   -4.0162   -0.0617   -1.5135 C   0  0  0  0  0  0  0  0  0  0  0  0
   -5.1820   -0.6736   -1.1156 C   0  0  0  0  0  0  0  0  0  0  0  0
   -6.0565   -0.0444   -0.2729 C   0  0  0  0  0  0  0  0  0  0  0  0
   -7.2918   -0.6673    0.1614 C   0  0  0  0  0  0  0  0  0  0  0  0
   -7.9218   -1.4952   -0.5731 N   0  0  0  0  0  0  0  0  0  0  0  0
   -7.8282   -0.3584    1.4386 N   0  0  0  0  0  0  0  0  0  0  0  0
   -5.7331    1.2150    0.1614 C   0  0  0  0  0  0  0  0  0  0  0  0
   -4.5656    1.8532   -0.2245 C   0  0  0  0  0  0  0  0  0  0  0  0
   -1.0431    1.9907    0.5595 C   0  0  0  0  0  0  0  0  0  0  0  0
   -1.8429    2.7972    1.0812 O   0  0  0  0  0  0  0  0  0  0  0  0
    0.0576    1.5881    1.2209 N   0  0  0  0  0  0  0  0  0  0  0  0
    0.2910    2.1141    2.5561 C   0  0  0  0  0  0  0  0  0  0  0  0
    3.2260   -2.9870   -2.2524 C   0  0  0  0  0  0  0  0  0  0  0  0
    3.4307   -3.5575   -0.8947 C   0  0  0  0  0  0  0  0  0  0  0  0
    6.4565    1.0008    1.6815 H   0  0  0  0  0  0  0  0  0  0  0  0
    7.6820    1.7457    0.5451 H   0  0  0  0  0  0  0  0  0  0  0  0
    5.8684    1.8468    0.1837 H   0  0  0  0  0  0  0  0  0  0  0  0
    7.3044    0.0451   -1.1157 H   0  0  0  0  0  0  0  0  0  0  0  0
    7.3055   -0.8066    0.5111 H   0  0  0  0  0  0  0  0  0  0  0  0
    3.7922   -0.9142    1.2412 H   0  0  0  0  0  0  0  0  0  0  0  0
    2.1958    0.7006    2.2993 H   0  0  0  0  0  0  0  0  0  0  0  0
    1.3657   -1.0609   -2.2347 H   0  0  0  0  0  0  0  0  0  0  0  0
   -2.3115    1.6894   -2.5801 H   0  0  0  0  0  0  0  0  0  0  0  0
   -2.6000    2.9848   -1.3609 H   0  0  0  0  0  0  0  0  0  0  0  0
   -3.3056   -0.5421   -2.1830 H   0  0  0  0  0  0  0  0  0  0  0  0
   -5.3749   -1.6737   -1.4991 H   0  0  0  0  0  0  0  0  0  0  0  0
   -7.6304   -1.8005   -1.5232 H   0  0  0  0  0  0  0  0  0  0  0  0
   -8.7499    0.1192    1.5273 H   0  0  0  0  0  0  0  0  0  0  0  0
   -7.3234   -0.5969    2.3168 H   0  0  0  0  0  0  0  0  0  0  0  0
   -6.3935    1.7341    0.8200 H   0  0  0  0  0  0  0  0  0  0  0  0
   -4.3939    2.8595    0.1677 H   0  0  0  0  0  0  0  0  0  0  0  0
    0.4969    1.2643    3.2717 H   0  0  0  0  0  0  0  0  0  0  0  0
    1.0990    2.8554    2.5941 H   0  0  0  0  0  0  0  0  0  0  0  0
   -0.6595    2.5642    2.9568 H   0  0  0  0  0  0  0  0  0  0  0  0
    2.1683   -2.8983   -2.5697 H   0  0  0  0  0  0  0  0  0  0  0  0
    3.9355   -3.3003   -3.0489 H   0  0  0  0  0  0  0  0  0  0  0  0
    2.5820   -3.7500   -0.2107 H   0  0  0  0  0  0  0  0  0  0  0  0
    4.2741   -4.2332   -0.7675 H   0  0  0  0  0  0  0  0  0  0  0  0
  1  2  1  0
  2  3  1  0
  3  4  1  0
  4  5  2  0
  4  6  1  0
  6  7  1  0
  7  8  2  0
  8  9  1  0
  9 10  2  0
 10 11  1  0
 11 12  2  0
 11 13  1  0
 13 14  2  0
 14 15  1  0
 15 16  1  0
 16 17  2  0
 17 18  1  0
 18 19  2  0
 19 20  1  0
 20 21  2  3
 20 22  1  0
 19 23  1  0
 23 24  2  0
 14 25  1  0
 25 26  2  0
 25 27  1  0
 27 28  1  0
  6 29  1  0
 29 30  1  0
 30  6  1  0
 12  7  1  0
 24 16  1  0
 27 10  1  0
  1 31  1  0
  1 32  1  0
  1 33  1  0
  2 34  1  0
  2 35  1  0
  8 36  1  0
  9 37  1  0
 12 38  1  0
 15 39  1  0
 15 40  1  0
 17 41  1  0
 18 42  1  0
 21 43  1  0
 22 44  1  0
 22 45  1  0
 23 46  1  0
 24 47  1  0
 28 48  1  0
 28 49  1  0
 28 50  1  0
 29 51  1  0
 29 52  1  0
 30 53  1  0
 30 54  1  0
M  END
$$$$
