@<TRIPOS>MOLECULE
*****
 9 8 0 0 0
SMALL
GASTEIGER

@<TRIPOS>ATOM
      1 C          -1.1431    0.2838    0.0641 C.3     1  UNL1        0.0100
      2 P           0.5179   -0.3913    0.2206 P.3     1  UNL1        0.1876
      3 O           1.7233    0.7334   -0.0945 O.3     1  UNL1       -0.3457
      4 O           0.6299   -1.5558   -0.7584 O.2     1  UNL1       -0.2946
      5 H          -1.8421   -0.5310   -0.2372 H       1  UNL1        0.0326
      6 H          -1.1879    1.0900   -0.7032 H       1  UNL1        0.0326
      7 H          -1.4645    0.6402    1.0532 H       1  UNL1        0.0326
      8 H           0.7595   -0.9109    1.4924 H       1  UNL1        0.1276
      9 H           2.0069    0.6417   -1.0369 H       1  UNL1        0.2174
@<TRIPOS>BOND
     1     1     2    1
     2     2     3    1
     3     2     4    2
     4     1     5    1
     5     1     6    1
     6     1     7    1
     7     2     8    1
     8     3     9    1
