
     RDKit          3D

 39 41  0  0  0  0  0  0  0  0999 V2000
   -3.8048    2.2683   -0.6048 C   0  0  0  0  0  0  0  0  0  0  0  0
   -2.6266    1.3913   -0.9227 C   0  0  0  0  0  0  0  0  0  0  0  0
   -2.3610    0.5078    0.2777 C   0  0  0  0  0  0  0  0  0  0  0  0
   -3.5543   -0.3563    0.5941 C   0  0  0  0  0  0  0  0  0  0  0  0
   -3.3553   -1.2582    1.7769 C   0  0  0  0  0  0  0  0  0  0  0  0
   -1.1707   -0.2457    0.0086 N   0  0  0  0  0  0  0  0  0  0  0  0
   -1.0718   -1.5495   -0.3894 C   0  0  0  0  0  0  0  0  0  0  0  0
    0.2806   -1.7981   -0.5111 C   0  0  0  0  0  0  0  0  0  0  0  0
    1.0113   -0.6768   -0.1969 C   0  0  0  0  0  0  0  0  0  0  0  0
    0.0711    0.2692    0.1217 C   0  0  0  0  0  0  0  0  0  0  0  0
    0.5256    1.5261    0.4865 C   0  0  0  0  0  0  0  0  0  0  0  0
    1.8821    1.8344    0.5331 C   0  0  0  0  0  0  0  0  0  0  0  0
    2.7726    0.8342    0.1998 C   0  0  0  0  0  0  0  0  0  0  0  0
    2.3636   -0.4302   -0.1688 C   0  0  0  0  0  0  0  0  0  0  0  0
    3.2358   -1.4272   -0.5006 C   0  0  0  0  0  0  0  0  0  0  0  0
    2.8736   -2.7441   -0.8867 N   0  0  0  0  0  0  0  0  0  0  0  0
    4.5556   -1.1343   -0.4574 N   0  0  0  0  0  0  0  0  0  0  0  0
    4.9839    0.0965   -0.0996 C   0  0  0  0  0  0  0  0  0  0  0  0
    6.3711    0.4074   -0.0533 N   0  0  0  0  0  0  0  0  0  0  0  0
    4.0990    1.0499    0.2194 N   0  0  0  0  0  0  0  0  0  0  0  0
   -4.0230    2.2977    0.4871 H   0  0  0  0  0  0  0  0  0  0  0  0
   -3.4902    3.3205   -0.8488 H   0  0  0  0  0  0  0  0  0  0  0  0
   -4.7102    2.0459   -1.2035 H   0  0  0  0  0  0  0  0  0  0  0  0
   -2.7591    0.7944   -1.8439 H   0  0  0  0  0  0  0  0  0  0  0  0
   -1.6926    1.9807   -1.0935 H   0  0  0  0  0  0  0  0  0  0  0  0
   -2.1833    1.2023    1.1346 H   0  0  0  0  0  0  0  0  0  0  0  0
   -4.4203    0.3089    0.7883 H   0  0  0  0  0  0  0  0  0  0  0  0
   -3.8283   -0.9341   -0.3202 H   0  0  0  0  0  0  0  0  0  0  0  0
   -4.0190   -0.9465    2.6320 H   0  0  0  0  0  0  0  0  0  0  0  0
   -2.3132   -1.2230    2.1826 H   0  0  0  0  0  0  0  0  0  0  0  0
   -3.6606   -2.3035    1.5657 H   0  0  0  0  0  0  0  0  0  0  0  0
   -1.9446   -2.1826   -0.5509 H   0  0  0  0  0  0  0  0  0  0  0  0
    0.5602   -2.7894   -0.8208 H   0  0  0  0  0  0  0  0  0  0  0  0
   -0.1528    2.3388    0.7558 H   0  0  0  0  0  0  0  0  0  0  0  0
    2.2094    2.8243    0.8215 H   0  0  0  0  0  0  0  0  0  0  0  0
    2.7117   -3.3034   -1.7702 H   0  0  0  0  0  0  0  0  0  0  0  0
    2.7815   -3.1240    0.0985 H   0  0  0  0  0  0  0  0  0  0  0  0
    7.1453   -0.2627    0.0674 H   0  0  0  0  0  0  0  0  0  0  0  0
    6.7079    1.3911   -0.1441 H   0  0  0  0  0  0  0  0  0  0  0  0
  1  2  1  0
  2  3  1  0
  3  4  1  0
  4  5  1  0
  3  6  1  0
  6  7  1  0
  7  8  2  0
  8  9  1  0
  9 10  2  0
 10 11  1  0
 11 12  2  0
 12 13  1  0
 13 14  2  0
 14 15  1  0
 15 16  1  0
 15 17  2  0
 17 18  1  0
 18 19  1  0
 18 20  2  0
 10  6  1  0
 20 13  1  0
 14  9  1  0
  1 21  1  0
  1 22  1  0
  1 23  1  0
  2 24  1  0
  2 25  1  0
  3 26  1  0
  4 27  1  0
  4 28  1  0
  5 29  1  0
  5 30  1  0
  5 31  1  0
  7 32  1  0
  8 33  1  0
 11 34  1  0
 12 35  1  0
 16 36  1  0
 16 37  1  0
 19 38  1  0
 19 39  1  0
M  END
$$$$
