@<TRIPOS>MOLECULE
*****
 39 41 0 0 0
SMALL
GASTEIGER

@<TRIPOS>ATOM
      1 C          -3.8048    2.2683   -0.6048 C.3     1  UNL1       -0.0634
      2 C          -2.6266    1.3913   -0.9227 C.3     1  UNL1       -0.0350
      3 C          -2.3610    0.5078    0.2777 C.3     1  UNL1        0.0340
      4 C          -3.5543   -0.3563    0.5941 C.3     1  UNL1       -0.0350
      5 C          -3.3553   -1.2582    1.7769 C.3     1  UNL1       -0.0634
      6 N          -1.1707   -0.2457    0.0086 N.ar    1  UNL1       -0.3436
      7 C          -1.0718   -1.5495   -0.3894 C.ar    1  UNL1        0.0060
      8 C           0.2806   -1.7981   -0.5111 C.ar    1  UNL1       -0.0357
      9 C           1.0113   -0.6768   -0.1969 C.ar    1  UNL1        0.0123
     10 C           0.0711    0.2692    0.1217 C.ar    1  UNL1        0.0501
     11 C           0.5256    1.5261    0.4865 C.ar    1  UNL1       -0.0356
     12 C           1.8821    1.8344    0.5331 C.ar    1  UNL1       -0.0335
     13 C           2.7726    0.8342    0.1998 C.ar    1  UNL1        0.0786
     14 C           2.3636   -0.4302   -0.1688 C.ar    1  UNL1        0.0492
     15 C           3.2358   -1.4272   -0.5006 C.ar    1  UNL1        0.1297
     16 N           2.8736   -2.7441   -0.8867 N.pl3   1  UNL1       -0.3425
     17 N           4.5556   -1.1343   -0.4574 N.ar    1  UNL1       -0.1995
     18 C           4.9839    0.0965   -0.0996 C.ar    1  UNL1        0.2148
     19 N           6.3711    0.4074   -0.0533 N.pl3   1  UNL1       -0.3274
     20 N           4.0990    1.0499    0.2194 N.ar    1  UNL1       -0.2145
     21 H          -4.0230    2.2977    0.4871 H       1  UNL1        0.0230
     22 H          -3.4902    3.3205   -0.8488 H       1  UNL1        0.0230
     23 H          -4.7102    2.0459   -1.2035 H       1  UNL1        0.0230
     24 H          -2.7591    0.7944   -1.8439 H       1  UNL1        0.0282
     25 H          -1.6926    1.9807   -1.0935 H       1  UNL1        0.0282
     26 H          -2.1833    1.2023    1.1346 H       1  UNL1        0.0527
     27 H          -4.4203    0.3089    0.7883 H       1  UNL1        0.0282
     28 H          -3.8283   -0.9341   -0.3202 H       1  UNL1        0.0282
     29 H          -4.0190   -0.9465    2.6320 H       1  UNL1        0.0230
     30 H          -2.3132   -1.2230    2.1826 H       1  UNL1        0.0230
     31 H          -3.6606   -2.3035    1.5657 H       1  UNL1        0.0230
     32 H          -1.9446   -2.1826   -0.5509 H       1  UNL1        0.0809
     33 H           0.5602   -2.7894   -0.8208 H       1  UNL1        0.0639
     34 H          -0.1528    2.3388    0.7558 H       1  UNL1        0.0639
     35 H           2.2094    2.8243    0.8215 H       1  UNL1        0.0640
     36 H           2.7117   -3.3034   -1.7702 H       1  UNL1        0.1437
     37 H           2.7815   -3.1240    0.0985 H       1  UNL1        0.1437
     38 H           7.1453   -0.2627    0.0674 H       1  UNL1        0.1452
     39 H           6.7079    1.3911   -0.1441 H       1  UNL1        0.1452
@<TRIPOS>BOND
     1     1     2    1
     2     2     3    1
     3     3     4    1
     4     4     5    1
     5     3     6    1
     6     6     7   ar
     7     7     8   ar
     8     8     9   ar
     9     9    10   ar
    10    10    11   ar
    11    11    12   ar
    12    12    13   ar
    13    13    14   ar
    14    14    15   ar
    15    15    16    1
    16    15    17   ar
    17    17    18   ar
    18    18    19    1
    19    18    20   ar
    20    10     6   ar
    21    20    13   ar
    22    14     9   ar
    23     1    21    1
    24     1    22    1
    25     1    23    1
    26     2    24    1
    27     2    25    1
    28     3    26    1
    29     4    27    1
    30     4    28    1
    31     5    29    1
    32     5    30    1
    33     5    31    1
    34     7    32    1
    35     8    33    1
    36    11    34    1
    37    12    35    1
    38    16    36    1
    39    16    37    1
    40    19    38    1
    41    19    39    1
