
     RDKit          3D

 60 63  0  0  0  0  0  0  0  0999 V2000
    1.1322   -1.2277    2.8910 C   0  0  0  0  0  0  0  0  0  0  0  0
    0.9597    0.0085    2.0305 C   0  0  1  0  0  0  0  0  0  0  0  0
    2.1546    0.2085    1.2102 C   0  0  0  0  0  0  0  0  0  0  0  0
    3.3011   -0.4747    1.5404 C   0  0  0  0  0  0  0  0  0  0  0  0
    4.4797   -0.3655    0.8394 C   0  0  0  0  0  0  0  0  0  0  0  0
    4.5105    0.4702   -0.2467 C   0  0  0  0  0  0  0  0  0  0  0  0
    5.7423    0.6025   -1.0028 C   0  0  0  0  0  0  0  0  0  0  0  0
    6.0583    1.7880   -1.6361 C   0  0  0  0  0  0  0  0  0  0  0  0
    7.2388    1.9332   -2.3673 C   0  0  0  0  0  0  0  0  0  0  0  0
    8.1323    0.8711   -2.4735 C   0  0  0  0  0  0  0  0  0  0  0  0
    9.2618    1.0572   -3.1911 F   0  0  0  0  0  0  0  0  0  0  0  0
    7.8185   -0.3122   -1.8423 C   0  0  0  0  0  0  0  0  0  0  0  0
    6.6457   -0.4321   -1.1251 C   0  0  0  0  0  0  0  0  0  0  0  0
    3.3775    1.1603   -0.5918 C   0  0  0  0  0  0  0  0  0  0  0  0
    2.1943    1.0520    0.1102 C   0  0  0  0  0  0  0  0  0  0  0  0
   -0.2453   -0.1616    1.2790 N   0  0  0  0  0  0  0  0  0  0  0  0
   -1.3358    0.7595    1.4714 C   0  0  0  0  0  0  0  0  0  0  0  0
   -2.6841    0.0495    1.3663 C   0  0  0  0  0  0  0  0  0  0  0  0
   -2.7690   -0.5657    0.0115 C   0  0  2  0  0  0  0  0  0  0  0  0
   -2.8135    0.4983   -1.0445 C   0  0  0  0  0  0  0  0  0  0  0  0
   -4.0300    1.3646   -0.8149 C   0  0  0  0  0  0  0  0  0  0  0  0
   -4.1155    2.4576   -1.8899 C   0  0  0  0  0  0  0  0  0  0  0  0
   -5.2760    3.1946   -1.5768 O   0  0  0  0  0  0  0  0  0  0  0  0
   -3.9982   -1.4010   -0.1566 C   0  0  0  0  0  0  0  0  0  0  0  0
   -4.9243   -1.5613    0.8295 C   0  0  0  0  0  0  0  0  0  0  0  0
   -6.0393   -2.3464    0.6141 C   0  0  0  0  0  0  0  0  0  0  0  0
   -6.2442   -2.9849   -0.5960 C   0  0  0  0  0  0  0  0  0  0  0  0
   -5.3233   -2.8354   -1.6001 C   0  0  0  0  0  0  0  0  0  0  0  0
   -4.2048   -2.0346   -1.3526 C   0  0  0  0  0  0  0  0  0  0  0  0
   -1.6716   -1.4474   -0.1658 O   0  0  0  0  0  0  0  0  0  0  0  0
   -0.4028   -1.2115    0.3447 C   0  0  0  0  0  0  0  0  0  0  0  0
    0.5948   -1.9269   -0.0225 O   0  0  0  0  0  0  0  0  0  0  0  0
    1.8157   -1.0812    3.7377 H   0  0  0  0  0  0  0  0  0  0  0  0
    1.5148   -2.0338    2.2369 H   0  0  0  0  0  0  0  0  0  0  0  0
    0.1223   -1.4691    3.3005 H   0  0  0  0  0  0  0  0  0  0  0  0
    0.8767    0.8979    2.7096 H   0  0  0  0  0  0  0  0  0  0  0  0
    3.3456   -1.1618    2.4007 H   0  0  0  0  0  0  0  0  0  0  0  0
    5.3752   -0.9383    1.1473 H   0  0  0  0  0  0  0  0  0  0  0  0
    5.3504    2.5937   -1.5383 H   0  0  0  0  0  0  0  0  0  0  0  0
    7.4495    2.8663   -2.8440 H   0  0  0  0  0  0  0  0  0  0  0  0
    8.5269   -1.1234   -1.9381 H   0  0  0  0  0  0  0  0  0  0  0  0
    6.3942   -1.3738   -0.6218 H   0  0  0  0  0  0  0  0  0  0  0  0
    3.3623    1.8428   -1.4592 H   0  0  0  0  0  0  0  0  0  0  0  0
    1.2987    1.5989   -0.1643 H   0  0  0  0  0  0  0  0  0  0  0  0
   -1.2326    1.5859    0.7566 H   0  0  0  0  0  0  0  0  0  0  0  0
   -1.3141    1.2329    2.4799 H   0  0  0  0  0  0  0  0  0  0  0  0
   -3.4907    0.7214    1.6512 H   0  0  0  0  0  0  0  0  0  0  0  0
   -2.6769   -0.7558    2.1448 H   0  0  0  0  0  0  0  0  0  0  0  0
   -2.8658    0.0186   -2.0631 H   0  0  0  0  0  0  0  0  0  0  0  0
   -1.9083    1.1392   -1.0902 H   0  0  0  0  0  0  0  0  0  0  0  0
   -4.9577    0.7760   -0.8616 H   0  0  0  0  0  0  0  0  0  0  0  0
   -3.9161    1.9389    0.1355 H   0  0  0  0  0  0  0  0  0  0  0  0
   -3.2372    3.1109   -1.7284 H   0  0  0  0  0  0  0  0  0  0  0  0
   -4.1936    2.0337   -2.8943 H   0  0  0  0  0  0  0  0  0  0  0  0
   -5.5088    3.8218   -2.3079 H   0  0  0  0  0  0  0  0  0  0  0  0
   -4.7998   -1.0793    1.7874 H   0  0  0  0  0  0  0  0  0  0  0  0
   -6.8008   -2.4958    1.3828 H   0  0  0  0  0  0  0  0  0  0  0  0
   -7.1317   -3.6061   -0.7589 H   0  0  0  0  0  0  0  0  0  0  0  0
   -5.4466   -3.3252   -2.5784 H   0  0  0  0  0  0  0  0  0  0  0  0
   -3.4762   -1.9216   -2.1580 H   0  0  0  0  0  0  0  0  0  0  0  0
  1  2  1  0
  2  3  1  0
  3  4  2  0
  4  5  1  0
  5  6  2  0
  6  7  1  0
  7  8  2  0
  8  9  1  0
  9 10  2  0
 10 11  1  0
 10 12  1  0
 12 13  2  0
  6 14  1  0
 14 15  2  0
  2 16  1  0
 16 17  1  0
 17 18  1  0
 18 19  1  0
 19 20  1  6
 20 21  1  0
 21 22  1  0
 22 23  1  0
 19 24  1  0
 24 25  2  0
 25 26  1  0
 26 27  2  0
 27 28  1  0
 28 29  2  0
 19 30  1  0
 30 31  1  0
 31 32  2  0
 15  3  1  0
 31 16  1  0
 13  7  1  0
 29 24  1  0
  1 33  1  0
  1 34  1  0
  1 35  1  0
  2 36  1  1
  4 37  1  0
  5 38  1  0
  8 39  1  0
  9 40  1  0
 12 41  1  0
 13 42  1  0
 14 43  1  0
 15 44  1  0
 17 45  1  0
 17 46  1  0
 18 47  1  0
 18 48  1  0
 20 49  1  0
 20 50  1  0
 21 51  1  0
 21 52  1  0
 22 53  1  0
 22 54  1  0
 23 55  1  0
 25 56  1  0
 26 57  1  0
 27 58  1  0
 28 59  1  0
 29 60  1  0
M  END
$$$$
