@<TRIPOS>MOLECULE
*****
 60 63 0 0 0
SMALL
GASTEIGER

@<TRIPOS>ATOM
      1 C           1.1322   -1.2277    2.8910 C.3     1  UNL1       -0.0421
      2 C           0.9597    0.0085    2.0305 C.3     1  UNL1        0.0515
      3 C           2.1546    0.2085    1.2102 C.ar    1  UNL1       -0.0271
      4 C           3.3011   -0.4747    1.5404 C.ar    1  UNL1       -0.0562
      5 C           4.4797   -0.3655    0.8394 C.ar    1  UNL1       -0.0537
      6 C           4.5105    0.4702   -0.2467 C.ar    1  UNL1       -0.0179
      7 C           5.7423    0.6025   -1.0028 C.ar    1  UNL1       -0.0177
      8 C           6.0583    1.7880   -1.6361 C.ar    1  UNL1       -0.0513
      9 C           7.2388    1.9332   -2.3673 C.ar    1  UNL1       -0.0259
     10 C           8.1323    0.8711   -2.4735 C.ar    1  UNL1        0.1234
     11 F           9.2618    1.0572   -3.1911 F       1  UNL1       -0.2055
     12 C           7.8185   -0.3122   -1.8423 C.ar    1  UNL1       -0.0259
     13 C           6.6457   -0.4321   -1.1251 C.ar    1  UNL1       -0.0513
     14 C           3.3775    1.1603   -0.5918 C.ar    1  UNL1       -0.0537
     15 C           2.1943    1.0520    0.1102 C.ar    1  UNL1       -0.0562
     16 N          -0.2453   -0.1616    1.2790 N.am    1  UNL1       -0.2605
     17 C          -1.3358    0.7595    1.4714 C.3     1  UNL1        0.0224
     18 C          -2.6841    0.0495    1.3663 C.3     1  UNL1        0.0075
     19 C          -2.7690   -0.5657    0.0115 C.3     1  UNL1        0.1415
     20 C          -2.8135    0.4983   -1.0445 C.3     1  UNL1       -0.0064
     21 C          -4.0300    1.3646   -0.8149 C.3     1  UNL1       -0.0258
     22 C          -4.1155    2.4576   -1.8899 C.3     1  UNL1        0.0443
     23 O          -5.2760    3.1946   -1.5768 O.3     1  UNL1       -0.3950
     24 C          -3.9982   -1.4010   -0.1566 C.ar    1  UNL1       -0.0041
     25 C          -4.9243   -1.5613    0.8295 C.ar    1  UNL1       -0.0548
     26 C          -6.0393   -2.3464    0.6141 C.ar    1  UNL1       -0.0614
     27 C          -6.2442   -2.9849   -0.5960 C.ar    1  UNL1       -0.0617
     28 C          -5.3233   -2.8354   -1.6001 C.ar    1  UNL1       -0.0614
     29 C          -4.2048   -2.0346   -1.3526 C.ar    1  UNL1       -0.0548
     30 O          -1.6716   -1.4474   -0.1658 O.3     1  UNL1       -0.4388
     31 C          -0.4028   -1.2115    0.3447 C.2     1  UNL1        0.4042
     32 O           0.5948   -1.9269   -0.0225 O.2     1  UNL1       -0.2262
     33 H           1.8157   -1.0812    3.7377 H       1  UNL1        0.0251
     34 H           1.5148   -2.0338    2.2369 H       1  UNL1        0.0251
     35 H           0.1223   -1.4691    3.3005 H       1  UNL1        0.0251
     36 H           0.8767    0.8979    2.7096 H       1  UNL1        0.0549
     37 H           3.3456   -1.1618    2.4007 H       1  UNL1        0.0621
     38 H           5.3752   -0.9383    1.1473 H       1  UNL1        0.0624
     39 H           5.3504    2.5937   -1.5383 H       1  UNL1        0.0624
     40 H           7.4495    2.8663   -2.8440 H       1  UNL1        0.0646
     41 H           8.5269   -1.1234   -1.9381 H       1  UNL1        0.0646
     42 H           6.3942   -1.3738   -0.6218 H       1  UNL1        0.0624
     43 H           3.3623    1.8428   -1.4592 H       1  UNL1        0.0624
     44 H           1.2987    1.5989   -0.1643 H       1  UNL1        0.0621
     45 H          -1.2326    1.5859    0.7566 H       1  UNL1        0.0467
     46 H          -1.3141    1.2329    2.4799 H       1  UNL1        0.0467
     47 H          -3.4907    0.7214    1.6512 H       1  UNL1        0.0322
     48 H          -2.6769   -0.7558    2.1448 H       1  UNL1        0.0322
     49 H          -2.8658    0.0186   -2.0631 H       1  UNL1        0.0308
     50 H          -1.9083    1.1392   -1.0902 H       1  UNL1        0.0308
     51 H          -4.9577    0.7760   -0.8616 H       1  UNL1        0.0289
     52 H          -3.9161    1.9389    0.1355 H       1  UNL1        0.0289
     53 H          -3.2372    3.1109   -1.7284 H       1  UNL1        0.0557
     54 H          -4.1936    2.0337   -2.8943 H       1  UNL1        0.0557
     55 H          -5.5088    3.8218   -2.3079 H       1  UNL1        0.2094
     56 H          -4.7998   -1.0793    1.7874 H       1  UNL1        0.0622
     57 H          -6.8008   -2.4958    1.3828 H       1  UNL1        0.0618
     58 H          -7.1317   -3.6061   -0.7589 H       1  UNL1        0.0618
     59 H          -5.4466   -3.3252   -2.5784 H       1  UNL1        0.0618
     60 H          -3.4762   -1.9216   -2.1580 H       1  UNL1        0.0622
@<TRIPOS>BOND
     1     1     2    1
     2     2     3    1
     3     3     4   ar
     4     4     5   ar
     5     5     6   ar
     6     6     7    1
     7     7     8   ar
     8     8     9   ar
     9     9    10   ar
    10    10    11    1
    11    10    12   ar
    12    12    13   ar
    13     6    14   ar
    14    14    15   ar
    15     2    16    1
    16    16    17    1
    17    17    18    1
    18    18    19    1
    19    19    20    1
    20    20    21    1
    21    21    22    1
    22    22    23    1
    23    19    24    1
    24    24    25   ar
    25    25    26   ar
    26    26    27   ar
    27    27    28   ar
    28    28    29   ar
    29    19    30    1
    30    30    31    1
    31    31    32    2
    32    15     3   ar
    33    31    16   am
    34    13     7   ar
    35    29    24   ar
    36     1    33    1
    37     1    34    1
    38     1    35    1
    39     2    36    1
    40     4    37    1
    41     5    38    1
    42     8    39    1
    43     9    40    1
    44    12    41    1
    45    13    42    1
    46    14    43    1
    47    15    44    1
    48    17    45    1
    49    17    46    1
    50    18    47    1
    51    18    48    1
    52    20    49    1
    53    20    50    1
    54    21    51    1
    55    21    52    1
    56    22    53    1
    57    22    54    1
    58    23    55    1
    59    25    56    1
    60    26    57    1
    61    27    58    1
    62    28    59    1
    63    29    60    1
