@<TRIPOS>MOLECULE
*****
 67 68 0 0 0
SMALL
GASTEIGER

@<TRIPOS>ATOM
      1 C           0.1869   -0.2997    2.9749 C.3     1  UNL1       -0.0381
      2 C           0.2919    0.8504    2.0099 C.3     1  UNL1        0.0970
      3 N          -0.7810    0.8017    1.0819 N.am    1  UNL1       -0.2965
      4 C          -1.8020    1.7187    0.6380 C.2     1  UNL1        0.2999
      5 O          -1.6296    2.8116    1.2806 O.2     1  UNL1       -0.2652
      6 C          -2.6749    1.1066   -0.3810 C.2     1  UNL1        0.3032
      7 O          -2.6078   -0.1071   -0.8093 O.2     1  UNL1       -0.2648
      8 N          -3.7243    1.7782   -1.0428 N.am    1  UNL1       -0.2775
      9 C          -4.2520    0.7400   -1.9110 C.ar    1  UNL1        0.0375
     10 C          -3.6230    0.5175   -3.1120 C.ar    1  UNL1       -0.0402
     11 C          -4.1710   -0.4792   -3.9261 C.ar    1  UNL1       -0.0600
     12 C          -5.2821   -1.1605   -3.4807 C.ar    1  UNL1       -0.0614
     13 C          -5.8692   -0.8914   -2.2639 C.ar    1  UNL1       -0.0563
     14 C          -5.3639    0.0994   -1.4041 C.ar    1  UNL1       -0.0208
     15 C          -6.0127    0.3903   -0.1187 C.3     1  UNL1       -0.0109
     16 C          -5.2163    0.2266    1.1160 C.3     1  UNL1       -0.0560
     17 C          -6.4754    1.8410   -0.1662 C.3     1  UNL1       -0.0560
     18 C          -7.2635   -0.4693   -0.0156 C.3     1  UNL1       -0.0560
     19 C           1.6337    0.8409    1.3057 C.2     1  UNL1        0.2336
     20 O           1.5958    0.8980    0.0462 O.2     1  UNL1       -0.2738
     21 N           2.8421    0.7723    2.0385 N.am    1  UNL1       -0.3035
     22 C           4.0386    0.7820    1.2040 C.3     1  UNL1        0.0949
     23 C           4.9640    1.8358    1.7547 C.3     1  UNL1        0.0701
     24 C           5.2853    1.4429    3.1649 C.2     1  UNL1        0.3069
     25 O           5.0767    0.5082    4.1644 O.3     1  UNL1       -0.4806
     26 O           6.0405    2.0803    3.9702 O.2     1  UNL1       -0.2509
     27 C           4.6679   -0.5812    1.1930 C.2     1  UNL1        0.1909
     28 O           3.6766   -0.5734    1.9260 O.2     1  UNL1       -0.2918
     29 C           5.1379   -1.9678    1.3064 C.3     1  UNL1        0.1494
     30 O           6.2686   -2.1171    0.4302 O.3     1  UNL1       -0.4785
     31 C           6.0387   -1.8711   -0.9312 C.ar    1  UNL1        0.1969
     32 C           5.6300   -2.9859   -1.6552 C.ar    1  UNL1        0.2028
     33 F           5.4333   -4.2482   -1.2092 F       1  UNL1       -0.1985
     34 C           5.3741   -2.8714   -2.9997 C.ar    1  UNL1        0.1650
     35 F           4.9686   -3.8766   -3.8284 F       1  UNL1       -0.2023
     36 C           5.5107   -1.6747   -3.6640 C.ar    1  UNL1        0.0148
     37 C           5.9193   -0.5484   -2.9541 C.ar    1  UNL1        0.1650
     38 F           6.0949    0.6841   -3.4762 F       1  UNL1       -0.2023
     39 C           6.1688   -0.6844   -1.6148 C.ar    1  UNL1        0.2028
     40 F           6.5697    0.3590   -0.8647 F       1  UNL1       -0.1985
     41 H           0.4739   -0.0231    4.0088 H       1  UNL1        0.0252
     42 H          -0.8522   -0.6817    2.9293 H       1  UNL1        0.0252
     43 H           0.8116   -1.1661    2.6055 H       1  UNL1        0.0252
     44 H           0.3286    1.7819    2.6181 H       1  UNL1        0.0592
     45 H          -0.7009   -0.1899    0.6834 H       1  UNL1        0.1499
     46 H          -3.8199    2.7817   -0.7372 H       1  UNL1        0.1553
     47 H          -2.7511    1.0709   -3.4299 H       1  UNL1        0.0636
     48 H          -3.6760   -0.6530   -4.8698 H       1  UNL1        0.0618
     49 H          -5.6457   -1.9181   -4.1634 H       1  UNL1        0.0618
     50 H          -6.7562   -1.4866   -1.9955 H       1  UNL1        0.0621
     51 H          -4.4801   -0.6071    1.1162 H       1  UNL1        0.0238
     52 H          -5.9414   -0.1093    1.9240 H       1  UNL1        0.0238
     53 H          -4.8118    1.1722    1.5606 H       1  UNL1        0.0238
     54 H          -7.5673    1.8495   -0.0024 H       1  UNL1        0.0238
     55 H          -6.3008    2.2577   -1.1679 H       1  UNL1        0.0238
     56 H          -5.9714    2.4492    0.6172 H       1  UNL1        0.0238
     57 H          -7.9549   -0.2858   -0.8673 H       1  UNL1        0.0238
     58 H          -7.8193   -0.2379    0.9227 H       1  UNL1        0.0238
     59 H          -6.9652   -1.5327    0.0307 H       1  UNL1        0.0238
     60 H           2.8136    0.7227    3.0719 H       1  UNL1        0.1495
     61 H           3.7966    1.0299    0.1530 H       1  UNL1        0.0584
     62 H           5.8827    1.9654    1.1612 H       1  UNL1        0.0400
     63 H           4.3801    2.7862    1.7809 H       1  UNL1        0.0400
     64 H           5.6478   -0.3496    4.2289 H       1  UNL1        0.2951
     65 H           4.3468   -2.6952    0.9932 H       1  UNL1        0.0778
     66 H           5.5316   -2.1344    2.3185 H       1  UNL1        0.0778
     67 H           5.3350   -1.4751   -4.7257 H       1  UNL1        0.0677
@<TRIPOS>BOND
     1     1     2    1
     2     2     3    1
     3     3     4   am
     4     4     5    2
     5     4     6    1
     6     6     7    2
     7     6     8   am
     8     8     9    1
     9     9    10   ar
    10    10    11   ar
    11    11    12   ar
    12    12    13   ar
    13    13    14   ar
    14    14    15    1
    15    15    16    1
    16    15    17    1
    17    15    18    1
    18     2    19    1
    19    19    20    2
    20    19    21   am
    21    21    22    1
    22    22    23    1
    23    23    24    1
    24    24    25    1
    25    24    26    2
    26    22    27    1
    27    27    28    2
    28    27    29    1
    29    29    30    1
    30    30    31    1
    31    31    32   ar
    32    32    33    1
    33    32    34   ar
    34    34    35    1
    35    34    36   ar
    36    36    37   ar
    37    37    38    1
    38    37    39   ar
    39    39    40    1
    40    14     9   ar
    41    39    31   ar
    42     1    41    1
    43     1    42    1
    44     1    43    1
    45     2    44    1
    46     3    45    1
    47     8    46    1
    48    10    47    1
    49    11    48    1
    50    12    49    1
    51    13    50    1
    52    16    51    1
    53    16    52    1
    54    16    53    1
    55    17    54    1
    56    17    55    1
    57    17    56    1
    58    18    57    1
    59    18    58    1
    60    18    59    1
    61    21    60    1
    62    22    61    1
    63    23    62    1
    64    23    63    1
    65    25    64    1
    66    29    65    1
    67    29    66    1
    68    36    67    1
