
     RDKit          3D

 80 84  0  0  0  0  0  0  0  0999 V2000
    1.9070    0.3035   -3.1019 C   0  0  0  0  0  0  0  0  0  0  0  0
    1.4501    0.6959   -1.8228 O   0  0  0  0  0  0  0  0  0  0  0  0
    2.1179    0.4501   -0.6347 C   0  0  0  0  0  0  0  0  0  0  0  0
    3.3034   -0.2068   -0.5682 N   0  0  0  0  0  0  0  0  0  0  0  0
    3.9202   -0.4253    0.6065 C   0  0  0  0  0  0  0  0  0  0  0  0
    5.1594   -1.1208    0.7192 N   0  0  0  0  0  0  0  0  0  0  0  0
    6.4306   -0.4817    0.5806 C   0  0  0  0  0  0  0  0  0  0  0  0
    6.6651    0.0761   -0.8084 C   0  0  0  0  0  0  0  0  0  0  0  0
    8.0241    0.7353   -0.8808 C   0  0  0  0  0  0  0  0  0  0  0  0
    9.0771   -0.1810   -0.5761 N   0  0  0  0  0  0  0  0  0  0  0  0
   10.3804    0.4613   -0.6388 C   0  0  0  0  0  0  0  0  0  0  0  0
   11.4713   -0.4928   -0.2286 C   0  0  0  0  0  0  0  0  0  0  0  0
   10.9700   -1.7506    0.0840 O   0  0  0  0  0  0  0  0  0  0  0  0
   10.2218   -2.2860   -0.9629 C   0  0  0  0  0  0  0  0  0  0  0  0
    9.0743   -1.3614   -1.3765 C   0  0  0  0  0  0  0  0  0  0  0  0
    3.3125    0.0381    1.7407 N   0  0  0  0  0  0  0  0  0  0  0  0
    2.1473    0.6893    1.7284 C   0  0  0  0  0  0  0  0  0  0  0  0
    1.5341    1.1585    2.8893 O   0  0  0  0  0  0  0  0  0  0  0  0
    2.0829    0.9899    4.1667 C   0  0  0  0  0  0  0  0  0  0  0  0
    1.5183    0.9103    0.5161 C   0  0  0  0  0  0  0  0  0  0  0  0
    0.2763    1.5966    0.4757 N   0  0  0  0  0  0  0  0  0  0  0  0
   -0.9616    0.9320    0.5529 C   0  0  0  0  0  0  0  0  0  0  0  0
   -0.9578   -0.3212    0.6579 O   0  0  0  0  0  0  0  0  0  0  0  0
   -2.2503    1.6261    0.5186 C   0  0  0  0  0  0  0  0  0  0  0  0
   -2.3398    3.0110    0.4054 C   0  0  0  0  0  0  0  0  0  0  0  0
   -3.6924    3.2845    0.4086 C   0  0  0  0  0  0  0  0  0  0  0  0
   -4.3665    2.0642    0.5226 C   0  0  0  0  0  0  0  0  0  0  0  0
   -5.7497    2.0291    0.5520 O   0  0  0  0  0  0  0  0  0  0  0  0
   -6.5414    0.9256    0.6424 C   0  0  0  0  0  0  0  0  0  0  0  0
   -7.4574    0.6742   -0.3622 C   0  0  0  0  0  0  0  0  0  0  0  0
   -8.2952   -0.4117   -0.3557 C   0  0  0  0  0  0  0  0  0  0  0  0
   -8.2102   -1.2866    0.7075 C   0  0  0  0  0  0  0  0  0  0  0  0
   -7.2881   -1.0331    1.7183 C   0  0  0  0  0  0  0  0  0  0  0  0
   -6.4547    0.0625    1.6960 C   0  0  0  0  0  0  0  0  0  0  0  0
   -5.5072    0.2360    2.8253 C   0  0  0  0  0  0  0  0  0  0  0  0
   -9.1691   -2.3944    0.5617 C   0  0  0  0  0  0  0  0  0  0  0  0
  -10.1478   -1.8657   -0.4499 C   0  0  0  0  0  0  0  0  0  0  0  0
   -9.3431   -0.8859   -1.2892 C   0  0  0  0  0  0  0  0  0  0  0  0
  -10.2282    0.2873   -1.6730 C   0  0  0  0  0  0  0  0  0  0  0  0
   -8.8058   -1.6042   -2.4923 C   0  0  0  0  0  0  0  0  0  0  0  0
   -3.4505    1.1573    0.5799 O   0  0  0  0  0  0  0  0  0  0  0  0
    2.5626   -0.5750   -2.9919 H   0  0  0  0  0  0  0  0  0  0  0  0
    1.0568    0.1376   -3.7951 H   0  0  0  0  0  0  0  0  0  0  0  0
    2.5148    1.1603   -3.4988 H   0  0  0  0  0  0  0  0  0  0  0  0
    5.1048   -2.1444    0.9125 H   0  0  0  0  0  0  0  0  0  0  0  0
    7.2486   -1.1588    0.8274 H   0  0  0  0  0  0  0  0  0  0  0  0
    6.4155    0.3991    1.2902 H   0  0  0  0  0  0  0  0  0  0  0  0
    5.9343    0.8972   -1.0392 H   0  0  0  0  0  0  0  0  0  0  0  0
    6.5089   -0.6982   -1.5837 H   0  0  0  0  0  0  0  0  0  0  0  0
    8.2045    1.1495   -1.9091 H   0  0  0  0  0  0  0  0  0  0  0  0
    7.9865    1.5955   -0.1779 H   0  0  0  0  0  0  0  0  0  0  0  0
   10.3877    1.3720   -0.0113 H   0  0  0  0  0  0  0  0  0  0  0  0
   10.5522    0.7683   -1.6850 H   0  0  0  0  0  0  0  0  0  0  0  0
   12.2262   -0.6204   -1.0312 H   0  0  0  0  0  0  0  0  0  0  0  0
   11.9410   -0.1075    0.7028 H   0  0  0  0  0  0  0  0  0  0  0  0
   10.9003   -2.4810   -1.8172 H   0  0  0  0  0  0  0  0  0  0  0  0
    9.8061   -3.2551   -0.6006 H   0  0  0  0  0  0  0  0  0  0  0  0
    9.2662   -1.0662   -2.4426 H   0  0  0  0  0  0  0  0  0  0  0  0
    8.1174   -1.8901   -1.3606 H   0  0  0  0  0  0  0  0  0  0  0  0
    2.4617   -0.0450    4.3379 H   0  0  0  0  0  0  0  0  0  0  0  0
    1.2516    1.1264    4.8991 H   0  0  0  0  0  0  0  0  0  0  0  0
    2.8648    1.7451    4.4088 H   0  0  0  0  0  0  0  0  0  0  0  0
    0.2719    2.6565    0.3841 H   0  0  0  0  0  0  0  0  0  0  0  0
   -1.5087    3.6938    0.3322 H   0  0  0  0  0  0  0  0  0  0  0  0
   -4.1198    4.2816    0.3343 H   0  0  0  0  0  0  0  0  0  0  0  0
   -7.5578    1.3453   -1.2278 H   0  0  0  0  0  0  0  0  0  0  0  0
   -7.2272   -1.7292    2.5544 H   0  0  0  0  0  0  0  0  0  0  0  0
   -4.7121   -0.5602    2.8012 H   0  0  0  0  0  0  0  0  0  0  0  0
   -6.0274    0.0642    3.8066 H   0  0  0  0  0  0  0  0  0  0  0  0
   -5.0807    1.2580    2.8879 H   0  0  0  0  0  0  0  0  0  0  0  0
   -8.6801   -3.3421    0.2319 H   0  0  0  0  0  0  0  0  0  0  0  0
   -9.6885   -2.5122    1.5493 H   0  0  0  0  0  0  0  0  0  0  0  0
  -10.9447   -1.3229    0.0981 H   0  0  0  0  0  0  0  0  0  0  0  0
  -10.5803   -2.6745   -1.0742 H   0  0  0  0  0  0  0  0  0  0  0  0
  -10.0878    1.0774   -0.9177 H   0  0  0  0  0  0  0  0  0  0  0  0
  -11.3043   -0.0468   -1.6808 H   0  0  0  0  0  0  0  0  0  0  0  0
   -9.8869    0.6409   -2.6500 H   0  0  0  0  0  0  0  0  0  0  0  0
   -8.0283   -2.3152   -2.1714 H   0  0  0  0  0  0  0  0  0  0  0  0
   -8.3523   -0.9059   -3.2118 H   0  0  0  0  0  0  0  0  0  0  0  0
   -9.6251   -2.2037   -2.9399 H   0  0  0  0  0  0  0  0  0  0  0  0
  1  2  1  0
  2  3  1  0
  3  4  2  0
  4  5  1  0
  5  6  1  0
  6  7  1  0
  7  8  1  0
  8  9  1  0
  9 10  1  0
 10 11  1  0
 11 12  1  0
 12 13  1  0
 13 14  1  0
 14 15  1  0
  5 16  2  0
 16 17  1  0
 17 18  1  0
 18 19  1  0
 17 20  2  0
 20 21  1  0
 21 22  1  0
 22 23  2  0
 22 24  1  0
 24 25  2  0
 25 26  1  0
 26 27  2  0
 27 28  1  0
 28 29  1  0
 29 30  2  0
 30 31  1  0
 31 32  2  0
 32 33  1  0
 33 34  2  0
 34 35  1  0
 32 36  1  0
 36 37  1  0
 37 38  1  0
 38 39  1  0
 38 40  1  0
 27 41  1  0
 20  3  1  0
 41 24  1  0
 15 10  1  0
 34 29  1  0
 38 31  1  0
  1 42  1  0
  1 43  1  0
  1 44  1  0
  6 45  1  0
  7 46  1  0
  7 47  1  0
  8 48  1  0
  8 49  1  0
  9 50  1  0
  9 51  1  0
 11 52  1  0
 11 53  1  0
 12 54  1  0
 12 55  1  0
 14 56  1  0
 14 57  1  0
 15 58  1  0
 15 59  1  0
 19 60  1  0
 19 61  1  0
 19 62  1  0
 21 63  1  0
 25 64  1  0
 26 65  1  0
 30 66  1  0
 33 67  1  0
 35 68  1  0
 35 69  1  0
 35 70  1  0
 36 71  1  0
 36 72  1  0
 37 73  1  0
 37 74  1  0
 39 75  1  0
 39 76  1  0
 39 77  1  0
 40 78  1  0
 40 79  1  0
 40 80  1  0
M  END
$$$$
