@<TRIPOS>MOLECULE
*****
 80 84 0 0 0
SMALL
GASTEIGER

@<TRIPOS>ATOM
      1 C           1.9070    0.3035   -3.1019 C.3     1  UNL1        0.0805
      2 O           1.4501    0.6959   -1.8228 O.3     1  UNL1       -0.4782
      3 C           2.1179    0.4501   -0.6347 C.ar    1  UNL1        0.2447
      4 N           3.3034   -0.2068   -0.5682 N.ar    1  UNL1       -0.1777
      5 C           3.9202   -0.4253    0.6065 C.ar    1  UNL1        0.2215
      6 N           5.1594   -1.1208    0.7192 N.pl3   1  UNL1       -0.3133
      7 C           6.4306   -0.4817    0.5806 C.3     1  UNL1        0.0130
      8 C           6.6651    0.0761   -0.8084 C.3     1  UNL1       -0.0246
      9 C           8.0241    0.7353   -0.8808 C.3     1  UNL1        0.0005
     10 N           9.0771   -0.1810   -0.5761 N.3     1  UNL1       -0.2979
     11 C          10.3804    0.4613   -0.6388 C.3     1  UNL1        0.0224
     12 C          11.4713   -0.4928   -0.2286 C.3     1  UNL1        0.0604
     13 O          10.9700   -1.7506    0.0840 O.3     1  UNL1       -0.3772
     14 C          10.2218   -2.2860   -0.9629 C.3     1  UNL1        0.0604
     15 C           9.0743   -1.3614   -1.3765 C.3     1  UNL1        0.0224
     16 N           3.3125    0.0381    1.7407 N.ar    1  UNL1       -0.1777
     17 C           2.1473    0.6893    1.7284 C.ar    1  UNL1        0.2447
     18 O           1.5341    1.1585    2.8893 O.3     1  UNL1       -0.4782
     19 C           2.0829    0.9899    4.1667 C.3     1  UNL1        0.0805
     20 C           1.5183    0.9103    0.5161 C.ar    1  UNL1        0.1584
     21 N           0.2763    1.5966    0.4757 N.am    1  UNL1       -0.2705
     22 C          -0.9616    0.9320    0.5529 C.2     1  UNL1        0.2839
     23 O          -0.9578   -0.3212    0.6579 O.2     1  UNL1       -0.2665
     24 C          -2.2503    1.6261    0.5186 C.ar    1  UNL1        0.1937
     25 C          -2.3398    3.0110    0.4054 C.ar    1  UNL1       -0.0074
     26 C          -3.6924    3.2845    0.4086 C.ar    1  UNL1        0.0227
     27 C          -4.3665    2.0642    0.5226 C.ar    1  UNL1        0.2924
     28 O          -5.7497    2.0291    0.5520 O.3     1  UNL1       -0.4249
     29 C          -6.5414    0.9256    0.6424 C.ar    1  UNL1        0.1350
     30 C          -7.4574    0.6742   -0.3622 C.ar    1  UNL1       -0.0150
     31 C          -8.2952   -0.4117   -0.3557 C.ar    1  UNL1       -0.0350
     32 C          -8.2102   -1.2866    0.7075 C.ar    1  UNL1       -0.0432
     33 C          -7.2881   -1.0331    1.7183 C.ar    1  UNL1       -0.0519
     34 C          -6.4547    0.0625    1.6960 C.ar    1  UNL1       -0.0078
     35 C          -5.5072    0.2360    2.8253 C.3     1  UNL1       -0.0362
     36 C          -9.1691   -2.3944    0.5617 C.3     1  UNL1       -0.0266
     37 C         -10.1478   -1.8657   -0.4499 C.3     1  UNL1       -0.0399
     38 C          -9.3431   -0.8859   -1.2892 C.3     1  UNL1       -0.0092
     39 C         -10.2282    0.2873   -1.6730 C.3     1  UNL1       -0.0558
     40 C          -8.8058   -1.6042   -2.4923 C.3     1  UNL1       -0.0558
     41 O          -3.4505    1.1573    0.5799 O.2     1  UNL1       -0.4199
     42 H           2.5626   -0.5750   -2.9919 H       1  UNL1        0.0660
     43 H           1.0568    0.1376   -3.7951 H       1  UNL1        0.0660
     44 H           2.5148    1.1603   -3.4988 H       1  UNL1        0.0660
     45 H           5.1048   -2.1444    0.9125 H       1  UNL1        0.1489
     46 H           7.2486   -1.1588    0.8274 H       1  UNL1        0.0462
     47 H           6.4155    0.3991    1.2902 H       1  UNL1        0.0462
     48 H           5.9343    0.8972   -1.0392 H       1  UNL1        0.0293
     49 H           6.5089   -0.6982   -1.5837 H       1  UNL1        0.0293
     50 H           8.2045    1.1495   -1.9091 H       1  UNL1        0.0427
     51 H           7.9865    1.5955   -0.1779 H       1  UNL1        0.0427
     52 H          10.3877    1.3720   -0.0113 H       1  UNL1        0.0449
     53 H          10.5522    0.7683   -1.6850 H       1  UNL1        0.0449
     54 H          12.2262   -0.6204   -1.0312 H       1  UNL1        0.0572
     55 H          11.9410   -0.1075    0.7028 H       1  UNL1        0.0572
     56 H          10.9003   -2.4810   -1.8172 H       1  UNL1        0.0572
     57 H           9.8061   -3.2551   -0.6006 H       1  UNL1        0.0572
     58 H           9.2662   -1.0662   -2.4426 H       1  UNL1        0.0449
     59 H           8.1174   -1.8901   -1.3606 H       1  UNL1        0.0449
     60 H           2.4617   -0.0450    4.3379 H       1  UNL1        0.0660
     61 H           1.2516    1.1264    4.8991 H       1  UNL1        0.0660
     62 H           2.8648    1.7451    4.4088 H       1  UNL1        0.0660
     63 H           0.2719    2.6565    0.3841 H       1  UNL1        0.1555
     64 H          -1.5087    3.6938    0.3322 H       1  UNL1        0.0658
     65 H          -4.1198    4.2816    0.3343 H       1  UNL1        0.0689
     66 H          -7.5578    1.3453   -1.2278 H       1  UNL1        0.0657
     67 H          -7.2272   -1.7292    2.5544 H       1  UNL1        0.0624
     68 H          -4.7121   -0.5602    2.8012 H       1  UNL1        0.0279
     69 H          -6.0274    0.0642    3.8066 H       1  UNL1        0.0279
     70 H          -5.0807    1.2580    2.8879 H       1  UNL1        0.0279
     71 H          -8.6801   -3.3421    0.2319 H       1  UNL1        0.0314
     72 H          -9.6885   -2.5122    1.5493 H       1  UNL1        0.0314
     73 H         -10.9447   -1.3229    0.0981 H       1  UNL1        0.0277
     74 H         -10.5803   -2.6745   -1.0742 H       1  UNL1        0.0277
     75 H         -10.0878    1.0774   -0.9177 H       1  UNL1        0.0238
     76 H         -11.3043   -0.0468   -1.6808 H       1  UNL1        0.0238
     77 H          -9.8869    0.6409   -2.6500 H       1  UNL1        0.0238
     78 H          -8.0283   -2.3152   -2.1714 H       1  UNL1        0.0238
     79 H          -8.3523   -0.9059   -3.2118 H       1  UNL1        0.0238
     80 H          -9.6251   -2.2037   -2.9399 H       1  UNL1        0.0238
@<TRIPOS>BOND
     1     1     2    1
     2     2     3    1
     3     3     4   ar
     4     4     5   ar
     5     5     6    1
     6     6     7    1
     7     7     8    1
     8     8     9    1
     9     9    10    1
    10    10    11    1
    11    11    12    1
    12    12    13    1
    13    13    14    1
    14    14    15    1
    15     5    16   ar
    16    16    17   ar
    17    17    18    1
    18    18    19    1
    19    17    20   ar
    20    20    21    1
    21    21    22   am
    22    22    23    2
    23    22    24    1
    24    24    25   ar
    25    25    26   ar
    26    26    27   ar
    27    27    28    1
    28    28    29    1
    29    29    30   ar
    30    30    31   ar
    31    31    32   ar
    32    32    33   ar
    33    33    34   ar
    34    34    35    1
    35    32    36    1
    36    36    37    1
    37    37    38    1
    38    38    39    1
    39    38    40    1
    40    27    41   ar
    41    20     3   ar
    42    41    24   ar
    43    15    10    1
    44    34    29   ar
    45    38    31    1
    46     1    42    1
    47     1    43    1
    48     1    44    1
    49     6    45    1
    50     7    46    1
    51     7    47    1
    52     8    48    1
    53     8    49    1
    54     9    50    1
    55     9    51    1
    56    11    52    1
    57    11    53    1
    58    12    54    1
    59    12    55    1
    60    14    56    1
    61    14    57    1
    62    15    58    1
    63    15    59    1
    64    19    60    1
    65    19    61    1
    66    19    62    1
    67    21    63    1
    68    25    64    1
    69    26    65    1
    70    30    66    1
    71    33    67    1
    72    35    68    1
    73    35    69    1
    74    35    70    1
    75    36    71    1
    76    36    72    1
    77    37    73    1
    78    37    74    1
    79    39    75    1
    80    39    76    1
    81    39    77    1
    82    40    78    1
    83    40    79    1
    84    40    80    1
