@<TRIPOS>MOLECULE
*****
 43 46 0 0 0
SMALL
GASTEIGER

@<TRIPOS>ATOM
      1 C          -2.1049    1.4837   -2.2066 C.3     1  UNL1       -0.0239
      2 C          -1.9886    0.3455   -1.2460 C.ar    1  UNL1        0.0209
      3 C          -1.0177   -0.6202   -1.1928 C.ar    1  UNL1       -0.0133
      4 C           0.2231   -0.7282   -2.0171 C.3     1  UNL1        0.0171
      5 C           1.3615   -0.0093   -1.4008 C.ar    1  UNL1        0.0464
      6 C           1.5679    1.3233   -1.5730 C.ar    1  UNL1       -0.0395
      7 C           2.6794    1.8829   -0.9308 C.ar    1  UNL1       -0.0509
      8 C           3.5305    1.1400   -0.1614 C.ar    1  UNL1        0.0004
      9 C           4.6105    1.7004    0.4579 C.ar    1  UNL1       -0.0526
     10 C           5.4900    0.9754    1.2389 C.ar    1  UNL1       -0.0611
     11 C           5.2356   -0.3749    1.3804 C.ar    1  UNL1       -0.0597
     12 C           4.1407   -0.9519    0.7564 C.ar    1  UNL1       -0.0357
     13 C           3.2859   -0.2126   -0.0121 C.ar    1  UNL1        0.0713
     14 N           2.2210   -0.7443   -0.6288 N.ar    1  UNL1       -0.2513
     15 C          -1.3089   -1.5048   -0.1457 C.ar    1  UNL1        0.0064
     16 C          -0.6592   -2.6322    0.3377 C.ar    1  UNL1       -0.0170
     17 C          -1.1378   -3.3503    1.4069 C.ar    1  UNL1        0.1241
     18 F          -0.5367   -4.4563    1.9018 F       1  UNL1       -0.2055
     19 C          -2.3098   -2.8983    1.9896 C.ar    1  UNL1       -0.0245
     20 C          -2.9544   -1.7752    1.5069 C.ar    1  UNL1       -0.0349
     21 C          -2.4597   -1.0486    0.4168 C.ar    1  UNL1        0.0502
     22 N          -2.8605    0.0553   -0.2446 N.ar    1  UNL1       -0.3330
     23 C          -4.0577    0.7865    0.1229 C.3     1  UNL1        0.1204
     24 C          -3.8205    1.8819    1.0428 C.2     1  UNL1        0.3247
     25 O          -3.7674    3.0706    0.5471 O.2     1  UNL1       -0.2490
     26 O          -3.6420    1.7913    2.4028 O.3     1  UNL1       -0.4794
     27 H          -3.0594    1.4209   -2.7784 H       1  UNL1        0.0292
     28 H          -1.2959    1.4097   -2.9514 H       1  UNL1        0.0292
     29 H          -2.0369    2.4714   -1.7255 H       1  UNL1        0.0292
     30 H           0.4626   -1.8052   -2.1029 H       1  UNL1        0.0377
     31 H           0.0281   -0.3864   -3.0580 H       1  UNL1        0.0377
     32 H           0.9085    1.9413   -2.1812 H       1  UNL1        0.0636
     33 H           2.8522    2.9299   -1.0562 H       1  UNL1        0.0625
     34 H           4.7892    2.7653    0.3293 H       1  UNL1        0.0624
     35 H           6.3570    1.3819    1.7393 H       1  UNL1        0.0618
     36 H           5.9116   -0.9846    1.9952 H       1  UNL1        0.0618
     37 H           3.9479   -2.0104    0.8724 H       1  UNL1        0.0639
     38 H           0.2495   -2.9319   -0.1567 H       1  UNL1        0.0653
     39 H          -2.7211   -3.4336    2.8404 H       1  UNL1        0.0647
     40 H          -3.8650   -1.3927    1.9374 H       1  UNL1        0.0639
     41 H          -4.5137    1.1372   -0.8548 H       1  UNL1        0.0607
     42 H          -4.8181    0.0381    0.4996 H       1  UNL1        0.0607
     43 H          -2.9170    2.3193    2.9021 H       1  UNL1        0.2951
@<TRIPOS>BOND
     1     1     2    1
     2     2     3   ar
     3     3     4    1
     4     4     5    1
     5     5     6   ar
     6     6     7   ar
     7     7     8   ar
     8     8     9   ar
     9     9    10   ar
    10    10    11   ar
    11    11    12   ar
    12    12    13   ar
    13    13    14   ar
    14     3    15   ar
    15    15    16   ar
    16    16    17   ar
    17    17    18    1
    18    17    19   ar
    19    19    20   ar
    20    20    21   ar
    21    21    22   ar
    22    22    23    1
    23    23    24    1
    24    24    25    2
    25    24    26    1
    26    22     2   ar
    27    14     5   ar
    28    21    15   ar
    29    13     8   ar
    30     1    27    1
    31     1    28    1
    32     1    29    1
    33     4    30    1
    34     4    31    1
    35     6    32    1
    36     7    33    1
    37     9    34    1
    38    10    35    1
    39    11    36    1
    40    12    37    1
    41    16    38    1
    42    19    39    1
    43    20    40    1
    44    23    41    1
    45    23    42    1
    46    26    43    1
