
     RDKit          3D

 43 46  0  0  0  0  0  0  0  0999 V2000
   -2.1049    1.4837   -2.2066 C   0  0  0  0  0  0  0  0  0  0  0  0
   -1.9886    0.3455   -1.2460 C   0  0  0  0  0  0  0  0  0  0  0  0
   -1.0177   -0.6202   -1.1928 C   0  0  0  0  0  0  0  0  0  0  0  0
    0.2231   -0.7282   -2.0171 C   0  0  0  0  0  0  0  0  0  0  0  0
    1.3615   -0.0093   -1.4008 C   0  0  0  0  0  0  0  0  0  0  0  0
    1.5679    1.3233   -1.5730 C   0  0  0  0  0  0  0  0  0  0  0  0
    2.6794    1.8829   -0.9308 C   0  0  0  0  0  0  0  0  0  0  0  0
    3.5305    1.1400   -0.1614 C   0  0  0  0  0  0  0  0  0  0  0  0
    4.6105    1.7004    0.4579 C   0  0  0  0  0  0  0  0  0  0  0  0
    5.4900    0.9754    1.2389 C   0  0  0  0  0  0  0  0  0  0  0  0
    5.2356   -0.3749    1.3804 C   0  0  0  0  0  0  0  0  0  0  0  0
    4.1407   -0.9519    0.7564 C   0  0  0  0  0  0  0  0  0  0  0  0
    3.2859   -0.2126   -0.0121 C   0  0  0  0  0  0  0  0  0  0  0  0
    2.2210   -0.7443   -0.6288 N   0  0  0  0  0  0  0  0  0  0  0  0
   -1.3089   -1.5048   -0.1457 C   0  0  0  0  0  0  0  0  0  0  0  0
   -0.6592   -2.6322    0.3377 C   0  0  0  0  0  0  0  0  0  0  0  0
   -1.1378   -3.3503    1.4069 C   0  0  0  0  0  0  0  0  0  0  0  0
   -0.5367   -4.4563    1.9018 F   0  0  0  0  0  0  0  0  0  0  0  0
   -2.3098   -2.8983    1.9896 C   0  0  0  0  0  0  0  0  0  0  0  0
   -2.9544   -1.7752    1.5069 C   0  0  0  0  0  0  0  0  0  0  0  0
   -2.4597   -1.0486    0.4168 C   0  0  0  0  0  0  0  0  0  0  0  0
   -2.8605    0.0553   -0.2446 N   0  0  0  0  0  0  0  0  0  0  0  0
   -4.0577    0.7865    0.1229 C   0  0  0  0  0  0  0  0  0  0  0  0
   -3.8205    1.8819    1.0428 C   0  0  0  0  0  0  0  0  0  0  0  0
   -3.7674    3.0706    0.5471 O   0  0  0  0  0  0  0  0  0  0  0  0
   -3.6420    1.7913    2.4028 O   0  0  0  0  0  0  0  0  0  0  0  0
   -3.0594    1.4209   -2.7784 H   0  0  0  0  0  0  0  0  0  0  0  0
   -1.2959    1.4097   -2.9514 H   0  0  0  0  0  0  0  0  0  0  0  0
   -2.0369    2.4714   -1.7255 H   0  0  0  0  0  0  0  0  0  0  0  0
    0.4626   -1.8052   -2.1029 H   0  0  0  0  0  0  0  0  0  0  0  0
    0.0281   -0.3864   -3.0580 H   0  0  0  0  0  0  0  0  0  0  0  0
    0.9085    1.9413   -2.1812 H   0  0  0  0  0  0  0  0  0  0  0  0
    2.8522    2.9299   -1.0562 H   0  0  0  0  0  0  0  0  0  0  0  0
    4.7892    2.7653    0.3293 H   0  0  0  0  0  0  0  0  0  0  0  0
    6.3570    1.3819    1.7393 H   0  0  0  0  0  0  0  0  0  0  0  0
    5.9116   -0.9846    1.9952 H   0  0  0  0  0  0  0  0  0  0  0  0
    3.9479   -2.0104    0.8724 H   0  0  0  0  0  0  0  0  0  0  0  0
    0.2495   -2.9319   -0.1567 H   0  0  0  0  0  0  0  0  0  0  0  0
   -2.7211   -3.4336    2.8404 H   0  0  0  0  0  0  0  0  0  0  0  0
   -3.8650   -1.3927    1.9374 H   0  0  0  0  0  0  0  0  0  0  0  0
   -4.5137    1.1372   -0.8548 H   0  0  0  0  0  0  0  0  0  0  0  0
   -4.8181    0.0381    0.4996 H   0  0  0  0  0  0  0  0  0  0  0  0
   -2.9170    2.3193    2.9021 H   0  0  0  0  0  0  0  0  0  0  0  0
  1  2  1  0
  2  3  2  0
  3  4  1  0
  4  5  1  0
  5  6  2  0
  6  7  1  0
  7  8  2  0
  8  9  1  0
  9 10  2  0
 10 11  1  0
 11 12  2  0
 12 13  1  0
 13 14  2  0
  3 15  1  0
 15 16  2  0
 16 17  1  0
 17 18  1  0
 17 19  2  0
 19 20  1  0
 20 21  2  0
 21 22  1  0
 22 23  1  0
 23 24  1  0
 24 25  2  0
 24 26  1  0
 22  2  1  0
 14  5  1  0
 21 15  1  0
 13  8  1  0
  1 27  1  0
  1 28  1  0
  1 29  1  0
  4 30  1  0
  4 31  1  0
  6 32  1  0
  7 33  1  0
  9 34  1  0
 10 35  1  0
 11 36  1  0
 12 37  1  0
 16 38  1  0
 19 39  1  0
 20 40  1  0
 23 41  1  0
 23 42  1  0
 26 43  1  0
M  END
$$$$
