@<TRIPOS>MOLECULE
*****
 49 51 0 0 0
SMALL
GASTEIGER

@<TRIPOS>ATOM
      1 C          -5.3508   -2.2074    2.3023 C.3     1  UNL1       -0.0128
      2 N          -4.9111   -1.1071    1.4691 N.3     1  UNL1       -0.3053
      3 C          -4.9425   -1.4342    0.0730 C.3     1  UNL1       -0.0011
      4 C          -4.6169   -0.1802   -0.7116 C.3     1  UNL1       -0.0373
      5 C          -3.1771    0.1921   -0.3484 C.3     1  UNL1       -0.0373
      6 C          -2.8044    1.3837   -1.1837 C.3     1  UNL1       -0.0345
      7 C          -1.4154    1.8695   -0.9408 C.3     1  UNL1        0.0094
      8 N          -0.4071    0.8821   -1.2207 N.pl3   1  UNL1       -0.3426
      9 C           0.9688    1.1495   -1.0533 C.ar    1  UNL1        0.0485
     10 C           1.4643    2.3592   -0.6145 C.ar    1  UNL1       -0.0022
     11 C           2.8134    2.5940   -0.4598 C.ar    1  UNL1        0.1517
     12 F           3.3107    3.7756   -0.0303 F       1  UNL1       -0.2034
     13 C           3.6923    1.5898   -0.7524 C.ar    1  UNL1        0.1450
     14 S           5.4163    1.8185   -0.5872 S.O2    1  UNL1        0.0766
     15 O           5.8004    2.9276   -1.5509 O.2     1  UNL1       -0.1498
     16 O           5.7139    2.2684    0.8144 O.2     1  UNL1       -0.1498
     17 N           6.2966    0.3962   -0.9825 N.pl3   1  UNL1       -0.1937
     18 C           6.1169   -0.7952   -0.2383 C.ar    1  UNL1        0.1774
     19 N           5.4961   -1.2411    0.6924 N.ar    1  UNL1       -0.2321
     20 C           5.5334   -2.4433    1.1851 C.ar    1  UNL1        0.0369
     21 C           6.3723   -3.3452    0.5989 C.ar    1  UNL1       -0.0030
     22 S           7.1078   -2.3269   -0.7226 S.2     1  UNL1       -0.0594
     23 C           3.2495    0.3582   -1.1960 C.ar    1  UNL1       -0.0121
     24 C           1.8894    0.1683   -1.3359 C.ar    1  UNL1        0.0638
     25 CL          1.3044   -1.3961   -1.9003 Cl      1  UNL1       -0.0816
     26 C          -3.0940    0.4864    1.1104 C.3     1  UNL1       -0.0373
     27 C          -3.6409   -0.6442    1.9327 C.3     1  UNL1       -0.0011
     28 H          -5.7147   -1.8009    3.2594 H       1  UNL1        0.0391
     29 H          -4.5698   -2.9533    2.4894 H       1  UNL1        0.0391
     30 H          -6.2120   -2.7412    1.8297 H       1  UNL1        0.0391
     31 H          -6.0154   -1.6739   -0.1750 H       1  UNL1        0.0426
     32 H          -4.2730   -2.2739   -0.1975 H       1  UNL1        0.0426
     33 H          -4.7235   -0.3099   -1.7981 H       1  UNL1        0.0280
     34 H          -5.2689    0.6323   -0.3028 H       1  UNL1        0.0280
     35 H          -2.5477   -0.6592   -0.6520 H       1  UNL1        0.0302
     36 H          -3.5000    2.2210   -0.9410 H       1  UNL1        0.0283
     37 H          -2.9421    1.1771   -2.2591 H       1  UNL1        0.0283
     38 H          -1.3025    2.3197    0.0782 H       1  UNL1        0.0461
     39 H          -1.2379    2.7227   -1.6461 H       1  UNL1        0.0461
     40 H          -0.7044   -0.0524   -1.5551 H       1  UNL1        0.1461
     41 H           0.7773    3.1452   -0.3854 H       1  UNL1        0.0666
     42 H           6.9686    0.4006   -1.7724 H       1  UNL1        0.1758
     43 H           4.9102   -2.7426    2.0535 H       1  UNL1        0.0835
     44 H           6.6024   -4.3571    0.7793 H       1  UNL1        0.0710
     45 H           3.9010   -0.4599   -1.4418 H       1  UNL1        0.0653
     46 H          -2.0097    0.5921    1.3903 H       1  UNL1        0.0280
     47 H          -3.5993    1.4198    1.3555 H       1  UNL1        0.0280
     48 H          -3.8020   -0.2354    2.9712 H       1  UNL1        0.0426
     49 H          -2.9225   -1.4690    2.0478 H       1  UNL1        0.0426
@<TRIPOS>BOND
     1     1     2    1
     2     2     3    1
     3     3     4    1
     4     4     5    1
     5     5     6    1
     6     6     7    1
     7     7     8    1
     8     8     9    1
     9     9    10   ar
    10    10    11   ar
    11    11    12    1
    12    11    13   ar
    13    13    14    1
    14    14    15    2
    15    14    16    2
    16    14    17    1
    17    17    18    1
    18    18    19   ar
    19    19    20   ar
    20    20    21   ar
    21    21    22   ar
    22    13    23   ar
    23    23    24   ar
    24    24    25    1
    25     5    26    1
    26    26    27    1
    27    27     2    1
    28    24     9   ar
    29    22    18   ar
    30     1    28    1
    31     1    29    1
    32     1    30    1
    33     3    31    1
    34     3    32    1
    35     4    33    1
    36     4    34    1
    37     5    35    1
    38     6    36    1
    39     6    37    1
    40     7    38    1
    41     7    39    1
    42     8    40    1
    43    10    41    1
    44    17    42    1
    45    20    43    1
    46    21    44    1
    47    23    45    1
    48    26    46    1
    49    26    47    1
    50    27    48    1
    51    27    49    1
