
     RDKit          3D

 49 51  0  0  0  0  0  0  0  0999 V2000
   -5.3508   -2.2074    2.3023 C   0  0  0  0  0  0  0  0  0  0  0  0
   -4.9111   -1.1071    1.4691 N   0  0  0  0  0  0  0  0  0  0  0  0
   -4.9425   -1.4342    0.0730 C   0  0  0  0  0  0  0  0  0  0  0  0
   -4.6169   -0.1802   -0.7116 C   0  0  0  0  0  0  0  0  0  0  0  0
   -3.1771    0.1921   -0.3484 C   0  0  0  0  0  0  0  0  0  0  0  0
   -2.8044    1.3837   -1.1837 C   0  0  0  0  0  0  0  0  0  0  0  0
   -1.4154    1.8695   -0.9408 C   0  0  0  0  0  0  0  0  0  0  0  0
   -0.4071    0.8821   -1.2207 N   0  0  0  0  0  0  0  0  0  0  0  0
    0.9688    1.1495   -1.0533 C   0  0  0  0  0  0  0  0  0  0  0  0
    1.4643    2.3592   -0.6145 C   0  0  0  0  0  0  0  0  0  0  0  0
    2.8134    2.5940   -0.4598 C   0  0  0  0  0  0  0  0  0  0  0  0
    3.3107    3.7756   -0.0303 F   0  0  0  0  0  0  0  0  0  0  0  0
    3.6923    1.5898   -0.7524 C   0  0  0  0  0  0  0  0  0  0  0  0
    5.4163    1.8185   -0.5872 S   0  0  0  0  0  6  0  0  0  0  0  0
    5.8004    2.9276   -1.5509 O   0  0  0  0  0  0  0  0  0  0  0  0
    5.7139    2.2684    0.8144 O   0  0  0  0  0  0  0  0  0  0  0  0
    6.2966    0.3962   -0.9825 N   0  0  0  0  0  0  0  0  0  0  0  0
    6.1169   -0.7952   -0.2383 C   0  0  0  0  0  0  0  0  0  0  0  0
    5.4961   -1.2411    0.6924 N   0  0  0  0  0  0  0  0  0  0  0  0
    5.5334   -2.4433    1.1851 C   0  0  0  0  0  0  0  0  0  0  0  0
    6.3723   -3.3452    0.5989 C   0  0  0  0  0  0  0  0  0  0  0  0
    7.1078   -2.3269   -0.7226 S   0  0  0  0  0  0  0  0  0  0  0  0
    3.2495    0.3582   -1.1960 C   0  0  0  0  0  0  0  0  0  0  0  0
    1.8894    0.1683   -1.3359 C   0  0  0  0  0  0  0  0  0  0  0  0
    1.3044   -1.3961   -1.9003 Cl  0  0  0  0  0  0  0  0  0  0  0  0
   -3.0940    0.4864    1.1104 C   0  0  0  0  0  0  0  0  0  0  0  0
   -3.6409   -0.6442    1.9327 C   0  0  0  0  0  0  0  0  0  0  0  0
   -5.7147   -1.8009    3.2594 H   0  0  0  0  0  0  0  0  0  0  0  0
   -4.5698   -2.9533    2.4894 H   0  0  0  0  0  0  0  0  0  0  0  0
   -6.2120   -2.7412    1.8297 H   0  0  0  0  0  0  0  0  0  0  0  0
   -6.0154   -1.6739   -0.1750 H   0  0  0  0  0  0  0  0  0  0  0  0
   -4.2730   -2.2739   -0.1975 H   0  0  0  0  0  0  0  0  0  0  0  0
   -4.7235   -0.3099   -1.7981 H   0  0  0  0  0  0  0  0  0  0  0  0
   -5.2689    0.6323   -0.3028 H   0  0  0  0  0  0  0  0  0  0  0  0
   -2.5477   -0.6592   -0.6520 H   0  0  0  0  0  0  0  0  0  0  0  0
   -3.5000    2.2210   -0.9410 H   0  0  0  0  0  0  0  0  0  0  0  0
   -2.9421    1.1771   -2.2591 H   0  0  0  0  0  0  0  0  0  0  0  0
   -1.3025    2.3197    0.0782 H   0  0  0  0  0  0  0  0  0  0  0  0
   -1.2379    2.7227   -1.6461 H   0  0  0  0  0  0  0  0  0  0  0  0
   -0.7044   -0.0524   -1.5551 H   0  0  0  0  0  0  0  0  0  0  0  0
    0.7773    3.1452   -0.3854 H   0  0  0  0  0  0  0  0  0  0  0  0
    6.9686    0.4006   -1.7724 H   0  0  0  0  0  0  0  0  0  0  0  0
    4.9102   -2.7426    2.0535 H   0  0  0  0  0  0  0  0  0  0  0  0
    6.6024   -4.3571    0.7793 H   0  0  0  0  0  0  0  0  0  0  0  0
    3.9010   -0.4599   -1.4418 H   0  0  0  0  0  0  0  0  0  0  0  0
   -2.0097    0.5921    1.3903 H   0  0  0  0  0  0  0  0  0  0  0  0
   -3.5993    1.4198    1.3555 H   0  0  0  0  0  0  0  0  0  0  0  0
   -3.8020   -0.2354    2.9712 H   0  0  0  0  0  0  0  0  0  0  0  0
   -2.9225   -1.4690    2.0478 H   0  0  0  0  0  0  0  0  0  0  0  0
  1  2  1  0
  2  3  1  0
  3  4  1  0
  4  5  1  0
  5  6  1  0
  6  7  1  0
  7  8  1  0
  8  9  1  0
  9 10  2  0
 10 11  1  0
 11 12  1  0
 11 13  2  0
 13 14  1  0
 14 15  2  0
 14 16  2  0
 14 17  1  0
 17 18  1  0
 18 19  2  0
 19 20  1  0
 20 21  2  0
 21 22  1  0
 13 23  1  0
 23 24  2  0
 24 25  1  0
  5 26  1  0
 26 27  1  0
 27  2  1  0
 24  9  1  0
 22 18  1  0
  1 28  1  0
  1 29  1  0
  1 30  1  0
  3 31  1  0
  3 32  1  0
  4 33  1  0
  4 34  1  0
  5 35  1  0
  6 36  1  0
  6 37  1  0
  7 38  1  0
  7 39  1  0
  8 40  1  0
 10 41  1  0
 17 42  1  0
 20 43  1  0
 21 44  1  0
 23 45  1  0
 26 46  1  0
 26 47  1  0
 27 48  1  0
 27 49  1  0
M  END
$$$$
