
     RDKit          3D

 73 78  0  0  0  0  0  0  0  0999 V2000
    8.1814   -2.6783    1.0297 C   0  0  0  0  0  0  0  0  0  0  0  0
    7.3759   -1.5276    0.8951 O   0  0  0  0  0  0  0  0  0  0  0  0
    6.0236   -1.6206    0.6690 C   0  0  0  0  0  0  0  0  0  0  0  0
    5.4479   -2.8651    0.5727 C   0  0  0  0  0  0  0  0  0  0  0  0
    4.1003   -2.9105    0.3474 C   0  0  0  0  0  0  0  0  0  0  0  0
    3.3383   -1.7473    0.2200 C   0  0  0  0  0  0  0  0  0  0  0  0
    1.9881   -1.8510   -0.0059 O   0  0  0  0  0  0  0  0  0  0  0  0
    1.3885   -3.1417   -0.1067 C   0  0  0  0  0  0  0  0  0  0  0  0
    3.9253   -0.5083    0.3182 C   0  0  0  0  0  0  0  0  0  0  0  0
    5.2846   -0.4386    0.5454 C   0  0  0  0  0  0  0  0  0  0  0  0
    5.9543    0.7631    0.6557 C   0  0  0  0  0  0  0  0  0  0  0  0
    7.3179    0.8294    0.8837 O   0  0  0  0  0  0  0  0  0  0  0  0
    7.9763    2.0725    0.9920 C   0  0  0  0  0  0  0  0  0  0  0  0
    5.2394    1.9291    0.5345 C   0  0  0  0  0  0  0  0  0  0  0  0
    3.8689    1.9044    0.3053 C   0  0  0  0  0  0  0  0  0  0  0  0
    3.1532    3.0727    0.1836 C   0  0  0  0  0  0  0  0  0  0  0  0
    3.7173    4.1871    0.2762 O   0  0  0  0  0  0  0  0  0  0  0  0
    1.7943    2.9445   -0.0435 C   0  0  0  0  0  0  0  0  0  0  0  0
    1.1622    1.7254   -0.1472 C   0  0  0  0  0  0  0  0  0  0  0  0
   -0.2931    1.6400   -0.3899 C   0  0  0  0  0  0  0  0  0  0  0  0
   -1.0687    2.7591   -0.5442 C   0  0  0  0  0  0  0  0  0  0  0  0
   -2.4419    2.7394   -0.7719 C   0  0  0  0  0  0  0  0  0  0  0  0
   -3.0756    1.5246   -0.8490 C   0  0  0  0  0  0  0  0  0  0  0  0
   -4.3870    1.3666   -1.0608 O   0  0  0  0  0  0  0  0  0  0  0  0
   -5.4779    2.1447   -1.2381 C   0  0  0  0  0  0  0  0  0  0  0  0
   -5.8661    3.0339   -0.1184 C   0  0  0  0  0  0  0  0  0  0  0  0
   -5.5589    4.3496   -0.0641 C   0  0  0  0  0  0  0  0  0  0  0  0
   -5.9172    5.1789    0.9991 C   0  0  0  0  0  0  0  0  0  0  0  0
   -6.6157    4.6350    2.0411 C   0  0  0  0  0  0  0  0  0  0  0  0
   -6.9455    3.2971    2.0173 C   0  0  0  0  0  0  0  0  0  0  0  0
   -6.5833    2.4933    0.9594 C   0  0  0  0  0  0  0  0  0  0  0  0
   -2.2877    0.3487   -0.6915 C   0  0  0  0  0  0  0  0  0  0  0  0
   -2.9489   -0.8646   -0.7730 O   0  0  0  0  0  0  0  0  0  0  0  0
   -2.3475   -2.1271   -0.6399 C   0  0  0  0  0  0  0  0  0  0  0  0
   -3.3349   -3.2292   -0.7836 C   0  0  0  0  0  0  0  0  0  0  0  0
   -3.6202   -3.7972   -2.0064 C   0  0  0  0  0  0  0  0  0  0  0  0
   -4.5271   -4.8155   -2.1678 C   0  0  0  0  0  0  0  0  0  0  0  0
   -5.2018   -5.3162   -1.0721 C   0  0  0  0  0  0  0  0  0  0  0  0
   -4.9284   -4.7614    0.1497 C   0  0  0  0  0  0  0  0  0  0  0  0
   -4.0139   -3.7347    0.3119 C   0  0  0  0  0  0  0  0  0  0  0  0
   -0.9472    0.4285   -0.4710 C   0  0  0  0  0  0  0  0  0  0  0  0
    1.9110    0.6453   -0.0201 O   0  0  0  0  0  0  0  0  0  0  0  0
    3.2166    0.6898    0.1981 C   0  0  0  0  0  0  0  0  0  0  0  0
    8.2149   -3.2293    0.0516 H   0  0  0  0  0  0  0  0  0  0  0  0
    7.7014   -3.3364    1.7892 H   0  0  0  0  0  0  0  0  0  0  0  0
    9.1851   -2.3868    1.3838 H   0  0  0  0  0  0  0  0  0  0  0  0
    6.0229   -3.7812    0.6689 H   0  0  0  0  0  0  0  0  0  0  0  0
    3.6486   -3.8939    0.2714 H   0  0  0  0  0  0  0  0  0  0  0  0
    1.7991   -3.6044   -1.0203 H   0  0  0  0  0  0  0  0  0  0  0  0
    1.6958   -3.7114    0.8173 H   0  0  0  0  0  0  0  0  0  0  0  0
    0.2929   -3.1112   -0.0671 H   0  0  0  0  0  0  0  0  0  0  0  0
    7.8131    2.5522    1.9807 H   0  0  0  0  0  0  0  0  0  0  0  0
    9.0793    1.9402    0.9035 H   0  0  0  0  0  0  0  0  0  0  0  0
    7.6729    2.7620    0.1730 H   0  0  0  0  0  0  0  0  0  0  0  0
    5.6812    2.9165    0.6068 H   0  0  0  0  0  0  0  0  0  0  0  0
    1.2531    3.8727   -0.1352 H   0  0  0  0  0  0  0  0  0  0  0  0
   -0.6392    3.7498   -0.4959 H   0  0  0  0  0  0  0  0  0  0  0  0
   -2.9859    3.6734   -0.8959 H   0  0  0  0  0  0  0  0  0  0  0  0
   -5.3693    2.8162   -2.1637 H   0  0  0  0  0  0  0  0  0  0  0  0
   -6.3669    1.4621   -1.4686 H   0  0  0  0  0  0  0  0  0  0  0  0
   -5.0183    4.8399   -0.8598 H   0  0  0  0  0  0  0  0  0  0  0  0
   -5.6667    6.2286    1.0333 H   0  0  0  0  0  0  0  0  0  0  0  0
   -6.9219    5.2312    2.8960 H   0  0  0  0  0  0  0  0  0  0  0  0
   -7.5012    2.8905    2.8584 H   0  0  0  0  0  0  0  0  0  0  0  0
   -6.8469    1.4389    0.9474 H   0  0  0  0  0  0  0  0  0  0  0  0
   -1.5766   -2.2164   -1.4263 H   0  0  0  0  0  0  0  0  0  0  0  0
   -1.8756   -2.2250    0.3841 H   0  0  0  0  0  0  0  0  0  0  0  0
   -3.0809   -3.3949   -2.8713 H   0  0  0  0  0  0  0  0  0  0  0  0
   -4.7093   -5.2252   -3.1715 H   0  0  0  0  0  0  0  0  0  0  0  0
   -5.9086   -6.1164   -1.2279 H   0  0  0  0  0  0  0  0  0  0  0  0
   -5.4356   -5.1274    1.0225 H   0  0  0  0  0  0  0  0  0  0  0  0
   -3.8155   -3.3155    1.2774 H   0  0  0  0  0  0  0  0  0  0  0  0
   -0.3192   -0.4663   -0.3463 H   0  0  0  0  0  0  0  0  0  0  0  0
  1  2  1  0
  2  3  1  0
  3  4  2  0
  4  5  1  0
  5  6  2  0
  6  7  1  0
  7  8  1  0
  6  9  1  0
  9 10  2  0
 10 11  1  0
 11 12  1  0
 12 13  1  0
 11 14  2  0
 14 15  1  0
 15 16  1  0
 16 17  2  0
 16 18  1  0
 18 19  2  0
 19 20  1  0
 20 21  2  0
 21 22  1  0
 22 23  2  0
 23 24  1  0
 24 25  1  0
 25 26  1  0
 26 27  2  0
 27 28  1  0
 28 29  2  0
 29 30  1  0
 30 31  2  0
 23 32  1  0
 32 33  1  0
 33 34  1  0
 34 35  1  0
 35 36  2  0
 36 37  1  0
 37 38  2  0
 38 39  1  0
 39 40  2  0
 32 41  2  0
 19 42  1  0
 42 43  1  0
 10  3  1  0
 43 15  2  0
 43  9  1  0
 41 20  1  0
 31 26  1  0
 40 35  1  0
  1 44  1  0
  1 45  1  0
  1 46  1  0
  4 47  1  0
  5 48  1  0
  8 49  1  0
  8 50  1  0
  8 51  1  0
 13 52  1  0
 13 53  1  0
 13 54  1  0
 14 55  1  0
 18 56  1  0
 21 57  1  0
 22 58  1  0
 25 59  1  0
 25 60  1  0
 27 61  1  0
 28 62  1  0
 29 63  1  0
 30 64  1  0
 31 65  1  0
 34 66  1  0
 34 67  1  0
 36 68  1  0
 37 69  1  0
 38 70  1  0
 39 71  1  0
 40 72  1  0
 41 73  1  0
M  END
$$$$
