@<TRIPOS>MOLECULE
*****
 73 78 0 0 0
SMALL
GASTEIGER

@<TRIPOS>ATOM
      1 C           8.1814   -2.6783    1.0297 C.3     1  UNL1        0.0788
      2 O           7.3759   -1.5276    0.8951 O.3     1  UNL1       -0.4944
      3 C           6.0236   -1.6206    0.6690 C.ar    1  UNL1        0.1316
      4 C           5.4479   -2.8651    0.5727 C.ar    1  UNL1       -0.0158
      5 C           4.1003   -2.9105    0.3474 C.ar    1  UNL1       -0.0158
      6 C           3.3383   -1.7473    0.2200 C.ar    1  UNL1        0.1317
      7 O           1.9881   -1.8510   -0.0059 O.3     1  UNL1       -0.4944
      8 C           1.3885   -3.1417   -0.1067 C.3     1  UNL1        0.0788
      9 C           3.9253   -0.5083    0.3182 C.ar    1  UNL1        0.0737
     10 C           5.2846   -0.4386    0.5454 C.ar    1  UNL1        0.0724
     11 C           5.9543    0.7631    0.6557 C.ar    1  UNL1        0.1323
     12 O           7.3179    0.8294    0.8837 O.3     1  UNL1       -0.4944
     13 C           7.9763    2.0725    0.9920 C.3     1  UNL1        0.0788
     14 C           5.2394    1.9291    0.5345 C.ar    1  UNL1       -0.0049
     15 C           3.8689    1.9044    0.3053 C.ar    1  UNL1        0.0682
     16 C           3.1532    3.0727    0.1836 C.ar    1  UNL1        0.1932
     17 O           3.7173    4.1871    0.2762 O.2     1  UNL1       -0.2870
     18 C           1.7943    2.9445   -0.0435 C.ar    1  UNL1        0.0287
     19 C           1.1622    1.7254   -0.1472 C.ar    1  UNL1        0.1394
     20 C          -0.2931    1.6400   -0.3899 C.ar    1  UNL1        0.0211
     21 C          -1.0687    2.7591   -0.5442 C.ar    1  UNL1       -0.0474
     22 C          -2.4419    2.7394   -0.7719 C.ar    1  UNL1       -0.0156
     23 C          -3.0756    1.5246   -0.8490 C.ar    1  UNL1        0.1624
     24 O          -4.3870    1.3666   -1.0608 O.3     1  UNL1       -0.4837
     25 C          -5.4779    2.1447   -1.2381 C.3     1  UNL1        0.1148
     26 C          -5.8661    3.0339   -0.1184 C.ar    1  UNL1       -0.0104
     27 C          -5.5589    4.3496   -0.0641 C.ar    1  UNL1       -0.0554
     28 C          -5.9172    5.1789    0.9991 C.ar    1  UNL1       -0.0614
     29 C          -6.6157    4.6350    2.0411 C.ar    1  UNL1       -0.0617
     30 C          -6.9455    3.2971    2.0173 C.ar    1  UNL1       -0.0614
     31 C          -6.5833    2.4933    0.9594 C.ar    1  UNL1       -0.0554
     32 C          -2.2877    0.3487   -0.6915 C.ar    1  UNL1        0.1631
     33 O          -2.9489   -0.8646   -0.7730 O.3     1  UNL1       -0.4837
     34 C          -2.3475   -2.1271   -0.6399 C.3     1  UNL1        0.1148
     35 C          -3.3349   -3.2292   -0.7836 C.ar    1  UNL1       -0.0104
     36 C          -3.6202   -3.7972   -2.0064 C.ar    1  UNL1       -0.0554
     37 C          -4.5271   -4.8155   -2.1678 C.ar    1  UNL1       -0.0614
     38 C          -5.2018   -5.3162   -1.0721 C.ar    1  UNL1       -0.0617
     39 C          -4.9284   -4.7614    0.1497 C.ar    1  UNL1       -0.0614
     40 C          -4.0139   -3.7347    0.3119 C.ar    1  UNL1       -0.0554
     41 C          -0.9472    0.4285   -0.4710 C.ar    1  UNL1       -0.0056
     42 O           1.9110    0.6453   -0.0201 O.2     1  UNL1       -0.4539
     43 C           3.2166    0.6898    0.1981 C.ar    1  UNL1        0.1508
     44 H           8.2149   -3.2293    0.0516 H       1  UNL1        0.0660
     45 H           7.7014   -3.3364    1.7892 H       1  UNL1        0.0660
     46 H           9.1851   -2.3868    1.3838 H       1  UNL1        0.0660
     47 H           6.0229   -3.7812    0.6689 H       1  UNL1        0.0655
     48 H           3.6486   -3.8939    0.2714 H       1  UNL1        0.0655
     49 H           1.7991   -3.6044   -1.0203 H       1  UNL1        0.0660
     50 H           1.6958   -3.7114    0.8173 H       1  UNL1        0.0660
     51 H           0.2929   -3.1112   -0.0671 H       1  UNL1        0.0660
     52 H           7.8131    2.5522    1.9807 H       1  UNL1        0.0660
     53 H           9.0793    1.9402    0.9035 H       1  UNL1        0.0660
     54 H           7.6729    2.7620    0.1730 H       1  UNL1        0.0660
     55 H           5.6812    2.9165    0.6068 H       1  UNL1        0.0662
     56 H           1.2531    3.8727   -0.1352 H       1  UNL1        0.0693
     57 H          -0.6392    3.7498   -0.4959 H       1  UNL1        0.0626
     58 H          -2.9859    3.6734   -0.8959 H       1  UNL1        0.0655
     59 H          -5.3693    2.8162   -2.1637 H       1  UNL1        0.0748
     60 H          -6.3669    1.4621   -1.4686 H       1  UNL1        0.0748
     61 H          -5.0183    4.8399   -0.8598 H       1  UNL1        0.0621
     62 H          -5.6667    6.2286    1.0333 H       1  UNL1        0.0618
     63 H          -6.9219    5.2312    2.8960 H       1  UNL1        0.0618
     64 H          -7.5012    2.8905    2.8584 H       1  UNL1        0.0618
     65 H          -6.8469    1.4389    0.9474 H       1  UNL1        0.0621
     66 H          -1.5766   -2.2164   -1.4263 H       1  UNL1        0.0748
     67 H          -1.8756   -2.2250    0.3841 H       1  UNL1        0.0748
     68 H          -3.0809   -3.3949   -2.8713 H       1  UNL1        0.0621
     69 H          -4.7093   -5.2252   -3.1715 H       1  UNL1        0.0618
     70 H          -5.9086   -6.1164   -1.2279 H       1  UNL1        0.0618
     71 H          -5.4356   -5.1274    1.0225 H       1  UNL1        0.0618
     72 H          -3.8155   -3.3155    1.2774 H       1  UNL1        0.0621
     73 H          -0.3192   -0.4663   -0.3463 H       1  UNL1        0.0662
@<TRIPOS>BOND
     1     1     2    1
     2     2     3    1
     3     3     4   ar
     4     4     5   ar
     5     5     6   ar
     6     6     7    1
     7     7     8    1
     8     6     9   ar
     9     9    10   ar
    10    10    11   ar
    11    11    12    1
    12    12    13    1
    13    11    14   ar
    14    14    15   ar
    15    15    16   ar
    16    16    17    2
    17    16    18   ar
    18    18    19   ar
    19    19    20    1
    20    20    21   ar
    21    21    22   ar
    22    22    23   ar
    23    23    24    1
    24    24    25    1
    25    25    26    1
    26    26    27   ar
    27    27    28   ar
    28    28    29   ar
    29    29    30   ar
    30    30    31   ar
    31    23    32   ar
    32    32    33    1
    33    33    34    1
    34    34    35    1
    35    35    36   ar
    36    36    37   ar
    37    37    38   ar
    38    38    39   ar
    39    39    40   ar
    40    32    41   ar
    41    19    42   ar
    42    42    43   ar
    43    10     3   ar
    44    43    15   ar
    45    43     9   ar
    46    41    20   ar
    47    31    26   ar
    48    40    35   ar
    49     1    44    1
    50     1    45    1
    51     1    46    1
    52     4    47    1
    53     5    48    1
    54     8    49    1
    55     8    50    1
    56     8    51    1
    57    13    52    1
    58    13    53    1
    59    13    54    1
    60    14    55    1
    61    18    56    1
    62    21    57    1
    63    22    58    1
    64    25    59    1
    65    25    60    1
    66    27    61    1
    67    28    62    1
    68    29    63    1
    69    30    64    1
    70    31    65    1
    71    34    66    1
    72    34    67    1
    73    36    68    1
    74    37    69    1
    75    38    70    1
    76    39    71    1
    77    40    72    1
    78    41    73    1
