@<TRIPOS>MOLECULE
*****
 54 58 0 0 0
SMALL
GASTEIGER

@<TRIPOS>ATOM
      1 C           5.2345   -0.4576    1.9250 C.3     1  UNL1       -0.0618
      2 C           5.4910   -1.2541    0.6665 C.3     1  UNL1       -0.0121
      3 C           5.1421   -0.5145   -0.5439 C.3     1  UNL1        0.1877
      4 O           5.9331    0.6582   -0.5619 O.3     1  UNL1       -0.3732
      5 C           5.6243   -1.2630   -1.7638 C.2     1  UNL1        0.3441
      6 O           5.9761   -2.4553   -1.6356 O.2     1  UNL1       -0.2472
      7 O           5.6108   -0.4866   -2.9205 O.3     1  UNL1       -0.4575
      8 C           4.7132    0.6163   -3.0301 C.3     1  UNL1        0.1230
      9 C           3.5623    0.4335   -2.0796 C.ar    1  UNL1        0.0606
     10 C           3.7778   -0.1427   -0.8198 C.ar    1  UNL1        0.0082
     11 C           2.6812   -0.2690   -0.0376 C.ar    1  UNL1       -0.0290
     12 C           1.4076    0.1336   -0.4205 C.ar    1  UNL1        0.0713
     13 N           1.2241    0.6914   -1.6508 N.ar    1  UNL1       -0.3019
     14 C          -0.1658    1.0364   -1.8474 C.3     1  UNL1        0.0539
     15 C          -0.8256    0.6282   -0.5784 C.ar    1  UNL1        0.0003
     16 C          -2.1217    0.6843   -0.1181 C.ar    1  UNL1       -0.0452
     17 C          -2.3999    0.2078    1.1343 C.ar    1  UNL1        0.0086
     18 C          -1.4434   -0.3270    1.9643 C.ar    1  UNL1        0.0723
     19 C          -1.7642   -0.7729    3.2238 C.ar    1  UNL1       -0.0323
     20 C          -3.0682   -0.6620    3.6133 C.ar    1  UNL1       -0.0178
     21 C          -4.0407   -0.1192    2.7693 C.ar    1  UNL1        0.1219
     22 O          -5.3122   -0.0864    3.3355 O.3     1  UNL1       -0.5064
     23 C          -3.7176    0.3364    1.4812 C.ar    1  UNL1        0.0171
     24 C          -4.8970    0.7947    0.7614 C.3     1  UNL1        0.0275
     25 N          -5.5895   -0.1515   -0.0496 N.3     1  UNL1       -0.3040
     26 C          -6.6598    0.5273   -0.7333 C.3     1  UNL1       -0.0127
     27 C          -4.7932   -0.8610   -0.9755 C.3     1  UNL1       -0.0127
     28 N          -0.1738   -0.3870    1.5250 N.ar    1  UNL1       -0.2449
     29 C           0.1179    0.0757    0.2966 C.ar    1  UNL1        0.0929
     30 C           2.2897    0.8291   -2.4464 C.ar    1  UNL1        0.2589
     31 O           2.1109    1.3479   -3.5874 O.2     1  UNL1       -0.2672
     32 H           4.7520   -1.0716    2.7308 H       1  UNL1        0.0231
     33 H           6.2283   -0.1769    2.3776 H       1  UNL1        0.0231
     34 H           4.7070    0.5025    1.7395 H       1  UNL1        0.0231
     35 H           4.9922   -2.2269    0.8188 H       1  UNL1        0.0299
     36 H           6.5725   -1.4963    0.6463 H       1  UNL1        0.0299
     37 H           5.4803    1.4009   -0.1037 H       1  UNL1        0.2113
     38 H           5.1853    1.5753   -2.8080 H       1  UNL1        0.0750
     39 H           4.2821    0.6060   -4.0495 H       1  UNL1        0.0750
     40 H           2.8176   -0.7084    0.9283 H       1  UNL1        0.0643
     41 H          -0.5792    0.4743   -2.7252 H       1  UNL1        0.0543
     42 H          -0.2964    2.1199   -1.9593 H       1  UNL1        0.0543
     43 H          -2.8190    1.1192   -0.7832 H       1  UNL1        0.0628
     44 H          -0.9944   -1.1848    3.8455 H       1  UNL1        0.0640
     45 H          -3.2945   -1.0192    4.6094 H       1  UNL1        0.0655
     46 H          -6.1017   -0.6186    3.0257 H       1  UNL1        0.2921
     47 H          -5.6073    1.3500    1.4365 H       1  UNL1        0.0477
     48 H          -4.5698    1.6063    0.0364 H       1  UNL1        0.0477
     49 H          -7.0078    1.4317   -0.1628 H       1  UNL1        0.0391
     50 H          -6.2313    0.9533   -1.6730 H       1  UNL1        0.0391
     51 H          -7.5094   -0.1311   -1.0035 H       1  UNL1        0.0391
     52 H          -3.9781   -1.4625   -0.5234 H       1  UNL1        0.0391
     53 H          -5.4834   -1.6151   -1.4790 H       1  UNL1        0.0391
     54 H          -4.4690   -0.2194   -1.8203 H       1  UNL1        0.0391
@<TRIPOS>BOND
     1     1     2    1
     2     2     3    1
     3     3     4    1
     4     3     5    1
     5     5     6    2
     6     5     7    1
     7     7     8    1
     8     8     9    1
     9     9    10   ar
    10    10    11   ar
    11    11    12   ar
    12    12    13   ar
    13    13    14    1
    14    14    15    1
    15    15    16   ar
    16    16    17   ar
    17    17    18   ar
    18    18    19   ar
    19    19    20   ar
    20    20    21   ar
    21    21    22    1
    22    21    23   ar
    23    23    24    1
    24    24    25    1
    25    25    26    1
    26    25    27    1
    27    18    28   ar
    28    28    29   ar
    29    13    30   ar
    30    30    31    2
    31    10     3    1
    32    29    12    1
    33    30     9   ar
    34    29    15   ar
    35    23    17   ar
    36     1    32    1
    37     1    33    1
    38     1    34    1
    39     2    35    1
    40     2    36    1
    41     4    37    1
    42     8    38    1
    43     8    39    1
    44    11    40    1
    45    14    41    1
    46    14    42    1
    47    16    43    1
    48    19    44    1
    49    20    45    1
    50    22    46    1
    51    24    47    1
    52    24    48    1
    53    26    49    1
    54    26    50    1
    55    26    51    1
    56    27    52    1
    57    27    53    1
    58    27    54    1
