@<TRIPOS>MOLECULE
*****
 76 80 0 0 0
SMALL
GASTEIGER

@<TRIPOS>ATOM
      1 C          -6.3376   -5.3911    1.7001 C.3     1  UNL1        0.0302
      2 N          -6.3991   -4.4548    0.5947 N.ar    1  UNL1       -0.2742
      3 C          -5.3279   -3.9930   -0.0480 C.ar    1  UNL1        0.0286
      4 C          -5.7631   -3.1204   -1.0259 C.ar    1  UNL1       -0.0054
      5 C          -4.8636   -2.4166   -1.9213 C.3     1  UNL1        0.0071
      6 C          -4.3608   -1.1568   -1.2827 C.ar    1  UNL1        0.0394
      7 C          -3.1525   -1.2353   -0.6407 C.ar    1  UNL1        0.0161
      8 N          -2.5668   -0.1967    0.0263 N.ar    1  UNL1       -0.3177
      9 C          -1.2471   -0.3978    0.6299 C.3     1  UNL1        0.1015
     10 C          -0.2468   -0.3108   -0.4701 C.2     1  UNL1        0.2357
     11 O          -0.3287    0.5753   -1.3369 O.2     1  UNL1       -0.2736
     12 N           0.8288   -1.2649   -0.5480 N.am    1  UNL1       -0.2945
     13 C           0.9834   -2.2833    0.4495 C.3     1  UNL1        0.0274
     14 C           0.2923   -3.5750    0.1807 C.3     1  UNL1        0.0089
     15 N           0.5484   -4.4976    1.2976 N.3     1  UNL1       -0.3285
     16 C           1.7281   -1.1514   -1.6755 C.3     1  UNL1        0.0398
     17 C           3.0040   -0.5441   -1.2845 C.ar    1  UNL1       -0.0301
     18 C           4.0373   -1.4402   -0.9504 C.ar    1  UNL1       -0.0565
     19 C           5.2373   -0.9281   -0.5711 C.ar    1  UNL1       -0.0537
     20 C           5.4994    0.4416   -0.4952 C.ar    1  UNL1       -0.0179
     21 C           6.8262    0.8621   -0.0678 C.ar    1  UNL1       -0.0178
     22 C           7.4704    0.0518    0.8339 C.ar    1  UNL1       -0.0527
     23 C           8.7330    0.3732    1.2670 C.ar    1  UNL1       -0.0428
     24 C           9.3476    1.5337    0.7770 C.ar    1  UNL1        0.0410
     25 CL         10.9601    1.8980    1.3539 Cl      1  UNL1       -0.0835
     26 C           8.6671    2.3307   -0.1340 C.ar    1  UNL1       -0.0428
     27 C           7.4009    2.0074   -0.5673 C.ar    1  UNL1       -0.0527
     28 C           4.4730    1.2906   -0.8271 C.ar    1  UNL1       -0.0537
     29 C           3.2249    0.7851   -1.2208 C.ar    1  UNL1       -0.0565
     30 C          -3.2361    0.9583    0.0360 C.ar    1  UNL1        0.1733
     31 S          -2.5579    2.3359    0.9357 S.3     1  UNL1       -0.0829
     32 C          -1.4955    3.2926   -0.1470 C.3     1  UNL1        0.0262
     33 C          -1.6248    4.7587    0.0373 C.ar    1  UNL1       -0.0370
     34 C          -0.8833    5.4561    0.9800 C.ar    1  UNL1       -0.0551
     35 C          -1.0359    6.8213    1.0909 C.ar    1  UNL1       -0.0262
     36 C          -1.9089    7.4962    0.2831 C.ar    1  UNL1        0.1234
     37 F          -2.0445    8.8351    0.4026 F       1  UNL1       -0.2055
     38 C          -2.6306    6.7952   -0.6376 C.ar    1  UNL1       -0.0262
     39 C          -2.4994    5.4431   -0.7683 C.ar    1  UNL1       -0.0551
     40 N          -4.4434    1.0751   -0.5953 N.ar    1  UNL1       -0.1848
     41 C          -5.0141    0.0280   -1.2554 C.ar    1  UNL1        0.2773
     42 O          -6.1310    0.1116   -1.8450 O.2     1  UNL1       -0.2655
     43 C          -7.1148   -3.0854   -0.9385 C.ar    1  UNL1        0.0528
     44 N          -7.4996   -3.9196    0.0743 N.ar    1  UNL1       -0.1796
     45 H          -7.3384   -5.7359    1.9311 H       1  UNL1        0.0473
     46 H          -5.6559   -6.2385    1.4593 H       1  UNL1        0.0473
     47 H          -5.8521   -4.8330    2.5322 H       1  UNL1        0.0473
     48 H          -4.2863   -4.2416    0.1439 H       1  UNL1        0.0829
     49 H          -3.9448   -3.0248   -2.1841 H       1  UNL1        0.0365
     50 H          -5.3124   -2.1120   -2.9021 H       1  UNL1        0.0365
     51 H          -2.6090   -2.1652   -0.6510 H       1  UNL1        0.0814
     52 H          -1.0947    0.5505    1.2397 H       1  UNL1        0.0588
     53 H          -1.1896   -1.2908    1.2329 H       1  UNL1        0.0588
     54 H           2.0839   -2.5150    0.5077 H       1  UNL1        0.0477
     55 H           0.7202   -1.8885    1.4598 H       1  UNL1        0.0477
     56 H           0.7336   -4.1018   -0.7069 H       1  UNL1        0.0437
     57 H          -0.7964   -3.4899    0.0036 H       1  UNL1        0.0437
     58 H          -0.3754   -4.8114    1.7140 H       1  UNL1        0.1183
     59 H           1.0777   -3.9847    2.0505 H       1  UNL1        0.1183
     60 H           1.9022   -2.1814   -2.1063 H       1  UNL1        0.0514
     61 H           1.2115   -0.6058   -2.4913 H       1  UNL1        0.0514
     62 H           3.8707   -2.4965   -1.0107 H       1  UNL1        0.0621
     63 H           6.0202   -1.6513   -0.3238 H       1  UNL1        0.0624
     64 H           7.0171   -0.8564    1.2382 H       1  UNL1        0.0624
     65 H           9.2497   -0.2480    1.9724 H       1  UNL1        0.0632
     66 H           9.2002    3.2118   -0.4741 H       1  UNL1        0.0632
     67 H           6.8699    2.6268   -1.2735 H       1  UNL1        0.0624
     68 H           4.6486    2.3613   -0.7770 H       1  UNL1        0.0624
     69 H           2.4467    1.5137   -1.4777 H       1  UNL1        0.0621
     70 H          -1.7734    3.0553   -1.1993 H       1  UNL1        0.0429
     71 H          -0.4277    3.0120   -0.0229 H       1  UNL1        0.0429
     72 H          -0.2106    4.8899    1.5941 H       1  UNL1        0.0621
     73 H          -0.4630    7.3871    1.8217 H       1  UNL1        0.0646
     74 H          -3.3435    7.2888   -1.3126 H       1  UNL1        0.0646
     75 H          -3.0794    4.9218   -1.5039 H       1  UNL1        0.0621
     76 H          -7.8477   -2.5406   -1.5104 H       1  UNL1        0.0851
@<TRIPOS>BOND
     1     1     2    1
     2     2     3   ar
     3     3     4   ar
     4     4     5    1
     5     5     6    1
     6     6     7   ar
     7     7     8   ar
     8     8     9    1
     9     9    10    1
    10    10    11    2
    11    10    12   am
    12    12    13    1
    13    13    14    1
    14    14    15    1
    15    12    16    1
    16    16    17    1
    17    17    18   ar
    18    18    19   ar
    19    19    20   ar
    20    20    21    1
    21    21    22   ar
    22    22    23   ar
    23    23    24   ar
    24    24    25    1
    25    24    26   ar
    26    26    27   ar
    27    20    28   ar
    28    28    29   ar
    29     8    30   ar
    30    30    31    1
    31    31    32    1
    32    32    33    1
    33    33    34   ar
    34    34    35   ar
    35    35    36   ar
    36    36    37    1
    37    36    38   ar
    38    38    39   ar
    39    30    40   ar
    40    40    41   ar
    41    41    42    2
    42     4    43   ar
    43    43    44   ar
    44    44     2   ar
    45    41     6   ar
    46    29    17   ar
    47    39    33   ar
    48    27    21   ar
    49     1    45    1
    50     1    46    1
    51     1    47    1
    52     3    48    1
    53     5    49    1
    54     5    50    1
    55     7    51    1
    56     9    52    1
    57     9    53    1
    58    13    54    1
    59    13    55    1
    60    14    56    1
    61    14    57    1
    62    15    58    1
    63    15    59    1
    64    16    60    1
    65    16    61    1
    66    18    62    1
    67    19    63    1
    68    22    64    1
    69    23    65    1
    70    26    66    1
    71    27    67    1
    72    28    68    1
    73    29    69    1
    74    32    70    1
    75    32    71    1
    76    34    72    1
    77    35    73    1
    78    38    74    1
    79    39    75    1
    80    43    76    1
