
     RDKit          3D

 49 51  0  0  0  0  0  0  0  0999 V2000
   -1.2945    3.4279   -0.1786 C   0  0  0  0  0  0  0  0  0  0  0  0
   -1.2307    2.5584   -1.4096 C   0  0  0  0  0  0  0  0  0  0  0  0
   -0.6827    1.2085   -1.1277 C   0  0  0  0  0  0  0  0  0  0  0  0
    0.6201    0.8680   -1.5031 C   0  0  0  0  0  0  0  0  0  0  0  0
    1.1463   -0.3736   -1.2550 C   0  0  0  0  0  0  0  0  0  0  0  0
    2.5168   -0.8120   -1.6108 C   0  0  0  0  0  0  0  0  0  0  0  0
    3.5080   -0.6658   -0.5428 C   0  0  0  0  0  0  0  0  0  0  0  0
    3.9034   -1.7624    0.2105 C   0  0  0  0  0  0  0  0  0  0  0  0
    4.8063   -1.6109    1.1989 N   0  0  0  0  0  0  0  0  0  0  0  0
    5.3590   -0.4249    1.5026 C   0  0  0  0  0  0  0  0  0  0  0  0
    6.3175   -0.2838    2.5601 N   0  0  0  0  0  0  0  0  0  0  0  0
    4.9899    0.6507    0.7847 N   0  0  0  0  0  0  0  0  0  0  0  0
    4.0814    0.5396   -0.2214 C   0  0  0  0  0  0  0  0  0  0  0  0
    3.7604    1.7301   -0.9299 N   0  0  0  0  0  0  0  0  0  0  0  0
    0.3015   -1.2820   -0.6035 C   0  0  0  0  0  0  0  0  0  0  0  0
   -0.9862   -0.9494   -0.2309 C   0  0  0  0  0  0  0  0  0  0  0  0
   -1.4987    0.3040   -0.4882 C   0  0  0  0  0  0  0  0  0  0  0  0
   -2.8273    0.6360   -0.1057 N   0  0  0  0  0  0  0  0  0  0  0  0
   -3.6899   -0.2651    0.5919 C   0  0  0  0  0  0  0  0  0  0  0  0
   -3.9322    0.3485    1.9755 C   0  0  0  0  0  0  0  0  0  0  0  0
   -5.0157   -0.4224   -0.1015 C   0  0  0  0  0  0  0  0  0  0  0  0
   -3.0946   -1.5903    0.8378 C   0  0  0  0  0  0  0  0  0  0  0  0
   -1.8632   -1.8871    0.4584 C   0  0  0  0  0  0  0  0  0  0  0  0
   -1.3341   -3.2467    0.7409 C   0  0  0  0  0  0  0  0  0  0  0  0
   -0.4376    4.1311   -0.2043 H   0  0  0  0  0  0  0  0  0  0  0  0
   -2.2311    4.0402   -0.1362 H   0  0  0  0  0  0  0  0  0  0  0  0
   -1.2190    2.8387    0.7665 H   0  0  0  0  0  0  0  0  0  0  0  0
   -2.2491    2.5313   -1.8447 H   0  0  0  0  0  0  0  0  0  0  0  0
   -0.5904    3.0439   -2.2022 H   0  0  0  0  0  0  0  0  0  0  0  0
    1.2344    1.5949   -2.0088 H   0  0  0  0  0  0  0  0  0  0  0  0
    2.5017   -1.8807   -1.9302 H   0  0  0  0  0  0  0  0  0  0  0  0
    2.8884   -0.2601   -2.5169 H   0  0  0  0  0  0  0  0  0  0  0  0
    3.4489   -2.7097   -0.0481 H   0  0  0  0  0  0  0  0  0  0  0  0
    6.1620   -0.5802    3.5345 H   0  0  0  0  0  0  0  0  0  0  0  0
    7.2331    0.1502    2.3157 H   0  0  0  0  0  0  0  0  0  0  0  0
    3.7718    1.6931   -1.9888 H   0  0  0  0  0  0  0  0  0  0  0  0
    3.5227    2.6091   -0.4148 H   0  0  0  0  0  0  0  0  0  0  0  0
    0.7029   -2.2638   -0.4022 H   0  0  0  0  0  0  0  0  0  0  0  0
   -3.2426    1.5905   -0.3289 H   0  0  0  0  0  0  0  0  0  0  0  0
   -3.1147   -0.0082    2.6490 H   0  0  0  0  0  0  0  0  0  0  0  0
   -3.8757    1.4458    1.8634 H   0  0  0  0  0  0  0  0  0  0  0  0
   -4.9294    0.0340    2.3283 H   0  0  0  0  0  0  0  0  0  0  0  0
   -4.9232   -0.3751   -1.2113 H   0  0  0  0  0  0  0  0  0  0  0  0
   -5.7929    0.2710    0.2826 H   0  0  0  0  0  0  0  0  0  0  0  0
   -5.4022   -1.4537    0.1172 H   0  0  0  0  0  0  0  0  0  0  0  0
   -3.7317   -2.3150    1.3523 H   0  0  0  0  0  0  0  0  0  0  0  0
   -2.1263   -3.9429    1.0924 H   0  0  0  0  0  0  0  0  0  0  0  0
   -0.9873   -3.6538   -0.2544 H   0  0  0  0  0  0  0  0  0  0  0  0
   -0.4736   -3.2255    1.4642 H   0  0  0  0  0  0  0  0  0  0  0  0
  1  2  1  0
  2  3  1  0
  3  4  2  0
  4  5  1  0
  5  6  1  0
  6  7  1  0
  7  8  2  0
  8  9  1  0
  9 10  2  0
 10 11  1  0
 10 12  1  0
 12 13  2  0
 13 14  1  0
  5 15  2  0
 15 16  1  0
 16 17  2  0
 17 18  1  0
 18 19  1  0
 19 20  1  0
 19 21  1  0
 19 22  1  0
 22 23  2  0
 23 24  1  0
 17  3  1  0
 13  7  1  0
 23 16  1  0
  1 25  1  0
  1 26  1  0
  1 27  1  0
  2 28  1  0
  2 29  1  0
  4 30  1  0
  6 31  1  0
  6 32  1  0
  8 33  1  0
 11 34  1  0
 11 35  1  0
 14 36  1  0
 14 37  1  0
 15 38  1  0
 18 39  1  0
 20 40  1  0
 20 41  1  0
 20 42  1  0
 21 43  1  0
 21 44  1  0
 21 45  1  0
 22 46  1  0
 24 47  1  0
 24 48  1  0
 24 49  1  0
M  END
$$$$
