@<TRIPOS>MOLECULE
*****
 49 51 0 0 0
SMALL
GASTEIGER

@<TRIPOS>ATOM
      1 C          -1.2945    3.4279   -0.1786 C.3     1  UNL1       -0.0612
      2 C          -1.2307    2.5584   -1.4096 C.3     1  UNL1       -0.0288
      3 C          -0.6827    1.2085   -1.1277 C.ar    1  UNL1       -0.0259
      4 C           0.6201    0.8680   -1.5031 C.ar    1  UNL1       -0.0533
      5 C           1.1463   -0.3736   -1.2550 C.ar    1  UNL1       -0.0420
      6 C           2.5168   -0.8120   -1.6108 C.3     1  UNL1        0.0023
      7 C           3.5080   -0.6658   -0.5428 C.ar    1  UNL1        0.0146
      8 C           3.9034   -1.7624    0.2105 C.ar    1  UNL1        0.0379
      9 N           4.8063   -1.6109    1.1989 N.ar    1  UNL1       -0.2227
     10 C           5.3590   -0.4249    1.5026 C.ar    1  UNL1        0.2142
     11 N           6.3175   -0.2838    2.5601 N.pl3   1  UNL1       -0.3274
     12 N           4.9899    0.6507    0.7847 N.ar    1  UNL1       -0.1999
     13 C           4.0814    0.5396   -0.2214 C.ar    1  UNL1        0.1247
     14 N           3.7604    1.7301   -0.9299 N.pl3   1  UNL1       -0.3428
     15 C           0.3015   -1.2820   -0.6035 C.ar    1  UNL1       -0.0491
     16 C          -0.9862   -0.9494   -0.2309 C.ar    1  UNL1       -0.0010
     17 C          -1.4987    0.3040   -0.4882 C.ar    1  UNL1        0.0384
     18 N          -2.8273    0.6360   -0.1057 N.pl3   1  UNL1       -0.3347
     19 C          -3.6899   -0.2651    0.5919 C.3     1  UNL1        0.0454
     20 C          -3.9322    0.3485    1.9755 C.3     1  UNL1       -0.0404
     21 C          -5.0157   -0.4224   -0.1015 C.3     1  UNL1       -0.0404
     22 C          -3.0946   -1.5903    0.8378 C.2     1  UNL1       -0.0580
     23 C          -1.8632   -1.8871    0.4584 C.2     1  UNL1       -0.0435
     24 C          -1.3341   -3.2467    0.7409 C.3     1  UNL1       -0.0393
     25 H          -0.4376    4.1311   -0.2043 H       1  UNL1        0.0233
     26 H          -2.2311    4.0402   -0.1362 H       1  UNL1        0.0233
     27 H          -1.2190    2.8387    0.7665 H       1  UNL1        0.0233
     28 H          -2.2491    2.5313   -1.8447 H       1  UNL1        0.0311
     29 H          -0.5904    3.0439   -2.2022 H       1  UNL1        0.0311
     30 H           1.2344    1.5949   -2.0088 H       1  UNL1        0.0624
     31 H           2.5017   -1.8807   -1.9302 H       1  UNL1        0.0363
     32 H           2.8884   -0.2601   -2.5169 H       1  UNL1        0.0363
     33 H           3.4489   -2.7097   -0.0481 H       1  UNL1        0.0834
     34 H           6.1620   -0.5802    3.5345 H       1  UNL1        0.1452
     35 H           7.2331    0.1502    2.3157 H       1  UNL1        0.1452
     36 H           3.7718    1.6931   -1.9888 H       1  UNL1        0.1437
     37 H           3.5227    2.6091   -0.4148 H       1  UNL1        0.1437
     38 H           0.7029   -2.2638   -0.4022 H       1  UNL1        0.0627
     39 H          -3.2426    1.5905   -0.3289 H       1  UNL1        0.1469
     40 H          -3.1147   -0.0082    2.6490 H       1  UNL1        0.0253
     41 H          -3.8757    1.4458    1.8634 H       1  UNL1        0.0253
     42 H          -4.9294    0.0340    2.3283 H       1  UNL1        0.0253
     43 H          -4.9232   -0.3751   -1.2113 H       1  UNL1        0.0253
     44 H          -5.7929    0.2710    0.2826 H       1  UNL1        0.0253
     45 H          -5.4022   -1.4537    0.1172 H       1  UNL1        0.0253
     46 H          -3.7317   -2.3150    1.3523 H       1  UNL1        0.0596
     47 H          -2.1263   -3.9429    1.0924 H       1  UNL1        0.0278
     48 H          -0.9873   -3.6538   -0.2544 H       1  UNL1        0.0278
     49 H          -0.4736   -3.2255    1.4642 H       1  UNL1        0.0278
@<TRIPOS>BOND
     1     1     2    1
     2     2     3    1
     3     3     4   ar
     4     4     5   ar
     5     5     6    1
     6     6     7    1
     7     7     8   ar
     8     8     9   ar
     9     9    10   ar
    10    10    11    1
    11    10    12   ar
    12    12    13   ar
    13    13    14    1
    14     5    15   ar
    15    15    16   ar
    16    16    17   ar
    17    17    18    1
    18    18    19    1
    19    19    20    1
    20    19    21    1
    21    19    22    1
    22    22    23    2
    23    23    24    1
    24    17     3   ar
    25    13     7   ar
    26    23    16    1
    27     1    25    1
    28     1    26    1
    29     1    27    1
    30     2    28    1
    31     2    29    1
    32     4    30    1
    33     6    31    1
    34     6    32    1
    35     8    33    1
    36    11    34    1
    37    11    35    1
    38    14    36    1
    39    14    37    1
    40    15    38    1
    41    18    39    1
    42    20    40    1
    43    20    41    1
    44    20    42    1
    45    21    43    1
    46    21    44    1
    47    21    45    1
    48    22    46    1
    49    24    47    1
    50    24    48    1
    51    24    49    1
