@<TRIPOS>MOLECULE
*****
 40 43 0 0 0
SMALL
GASTEIGER

@<TRIPOS>ATOM
      1 N           6.4423    0.3365   -1.1708 N.3     1  UNL1       -0.2035
      2 S           5.6886    0.6173    0.3496 S.O2    1  UNL1        0.0574
      3 O           6.0700    1.9919    0.8593 O.2     1  UNL1       -0.1532
      4 O           6.1666   -0.3585    1.3906 O.2     1  UNL1       -0.1532
      5 C           3.9686    0.5397    0.1590 C.ar    1  UNL1        0.1252
      6 C           3.3439    1.4115   -0.6966 C.ar    1  UNL1        0.0691
      7 CL          4.2646    2.6016   -1.5984 Cl      1  UNL1       -0.0815
      8 C           1.9776    1.3973   -0.8894 C.ar    1  UNL1       -0.0186
      9 C           1.1913    0.4750   -0.2016 C.ar    1  UNL1        0.0565
     10 N          -0.2412    0.3770   -0.3310 N.pl3   1  UNL1       -0.3256
     11 C          -0.9987   -0.0779    0.8110 C.3     1  UNL1        0.0947
     12 N          -0.7368   -1.4706    1.0011 N.3     1  UNL1       -0.1696
     13 S           0.9221   -1.5702    1.5453 S.O2    1  UNL1        0.0618
     14 O           0.9048   -1.1431    2.9918 O.2     1  UNL1       -0.1529
     15 O           1.4376   -2.9479    1.3738 O.2     1  UNL1       -0.1529
     16 C           1.8783   -0.3807    0.6494 C.ar    1  UNL1        0.1280
     17 C           3.2318   -0.3872    0.8583 C.ar    1  UNL1       -0.0057
     18 C          -2.4206    0.2947    0.6198 C.3     1  UNL1       -0.0011
     19 C          -3.3112   -0.1490    1.7890 C.3     1  UNL1       -0.0404
     20 C          -4.5964   -0.3802    1.0029 C.3     1  UNL1       -0.0220
     21 C          -4.0048   -1.2927   -0.0834 C.3     1  UNL1       -0.0401
     22 C          -3.0775   -0.1879   -0.6143 C.3     1  UNL1       -0.0166
     23 C          -4.1620    0.8088   -0.9476 C.2     1  UNL1       -0.0842
     24 C          -4.9348    0.7976    0.1559 C.2     1  UNL1       -0.0845
     25 H           7.1970   -0.3868   -1.0424 H       1  UNL1        0.1442
     26 H           5.7902    0.0857   -1.9320 H       1  UNL1        0.1442
     27 H           1.4448    2.0583   -1.5471 H       1  UNL1        0.0652
     28 H          -0.5921    0.6623   -1.2919 H       1  UNL1        0.1477
     29 H          -0.6480    0.4394    1.7377 H       1  UNL1        0.0685
     30 H          -0.8021   -1.9273    0.0420 H       1  UNL1        0.1501
     31 H           3.7024   -1.0780    1.5328 H       1  UNL1        0.0658
     32 H          -2.4681    1.4128    0.6693 H       1  UNL1        0.0338
     33 H          -3.3994    0.6082    2.5676 H       1  UNL1        0.0275
     34 H          -2.9505   -1.1406    2.1097 H       1  UNL1        0.0275
     35 H          -5.3976   -0.8116    1.5689 H       1  UNL1        0.0343
     36 H          -3.4660   -2.1286    0.3635 H       1  UNL1        0.0277
     37 H          -4.7874   -1.5446   -0.8102 H       1  UNL1        0.0277
     38 H          -2.4857   -0.4815   -1.4550 H       1  UNL1        0.0347
     39 H          -4.4212    1.4595   -1.7940 H       1  UNL1        0.0572
     40 H          -5.7201    1.4697    0.5085 H       1  UNL1        0.0572
@<TRIPOS>BOND
     1     1     2    1
     2     2     3    2
     3     2     4    2
     4     2     5    1
     5     5     6   ar
     6     6     7    1
     7     6     8   ar
     8     8     9   ar
     9     9    10    1
    10    10    11    1
    11    11    12    1
    12    12    13    1
    13    13    14    2
    14    13    15    2
    15    13    16    1
    16    16    17   ar
    17    11    18    1
    18    18    19    1
    19    19    20    1
    20    20    21    1
    21    21    22    1
    22    22    23    1
    23    23    24    2
    24    17     5   ar
    25    22    18    1
    26    16     9   ar
    27    24    20    1
    28     1    25    1
    29     1    26    1
    30     8    27    1
    31    10    28    1
    32    11    29    1
    33    12    30    1
    34    17    31    1
    35    18    32    1
    36    19    33    1
    37    19    34    1
    38    20    35    1
    39    21    36    1
    40    21    37    1
    41    22    38    1
    42    23    39    1
    43    24    40    1
