@<TRIPOS>MOLECULE
*****
 181 187 0 0 0
SMALL
GASTEIGER

@<TRIPOS>ATOM
      1 C         -10.3228   -1.1898    1.3288 C.3     9  UNK9       -0.0202
      2 C         -10.1795    0.2926    0.8993 C.3     9  UNK9       -0.0212
      3 C          -8.8355    0.0970    0.1209 C.3     9  UNK9        0.1028
      4 N          -8.1044   -0.5141    1.1802 N.am    9  UNK9       -0.2851
      5 C          -7.0216   -0.1446    2.0162 C.2     8  UNK8        0.2373
      6 O          -6.6489   -1.0741    2.8346 O.2     8  UNK8       -0.2735
      7 C          -6.0709    0.9396    2.3735 C.3     8  UNK8        0.1067
      8 C          -6.0510    1.2770    3.8321 C.3     8  UNK8       -0.0001
      9 C          -7.1762    2.1225    4.2771 C.ar    8  UNK8       -0.0405
     10 C          -7.4627    2.0763    5.6542 C.ar    8  UNK8       -0.0582
     11 C          -8.5231    2.8622    6.1341 C.ar    8  UNK8       -0.0615
     12 C          -9.2300    3.6423    5.2145 C.ar    8  UNK8       -0.0614
     13 C          -8.8871    3.6344    3.8818 C.ar    8  UNK8       -0.0568
     14 C          -7.8549    2.8774    3.3805 C.ar    8  UNK8       -0.0268
     15 C          -7.5435    2.9371    1.9291 C.3     8  UNK8        0.0408
     16 N          -6.3782    2.1497    1.5955 N.am    8  UNK8       -0.2837
     17 C          -5.6141    2.5657    0.4583 C.2     7  SER7        0.2391
     18 O          -6.1798    3.4320   -0.2425 O.2     7  SER7       -0.2734
     19 CA         -4.2977    2.0892    0.0730 C.3     7  SER7        0.1228
     20 CB         -3.3270    2.9781    0.9364 C.3     7  SER7        0.0711
     21 OG         -2.0291    2.5742    0.7783 O.3     7  SER7       -0.3927
     22 N          -3.9291    2.2248   -1.2937 N.am    7  SER7       -0.3005
     23 C          -2.7380    1.4573   -1.4747 C.2     6  UNK6        0.2343
     24 O          -1.8684    0.7362   -0.9556 O.2     6  UNK6       -0.2738
     25 C          -1.9527    1.2234   -2.7323 C.3     6  UNK6        0.1038
     26 C          -2.5918    0.1016   -3.5384 C.3     6  UNK6        0.0056
     27 C          -2.6300   -1.1584   -2.8155 C.ar    6  UNK6       -0.0080
     28 C          -3.3047   -2.1544   -3.5925 C.ar    6  UNK6       -0.0515
     29 C          -3.4088   -3.3681   -2.9918 C.ar    6  UNK6       -0.0545
     30 C          -2.8857   -3.6423   -1.6745 C.ar    6  UNK6       -0.0241
     31 S          -2.1704   -1.9338   -1.2939 S.2     6  UNK6       -0.1015
     32 N          -0.6530    0.7323   -2.3340 N.am    6  UNK6       -0.3024
     33 C           0.5000    1.4919   -2.7635 C.2     5  GLY5        0.2308
     34 O           0.1453    2.5188   -3.4708 O.2     5  GLY5       -0.2741
     35 CA          1.9449    1.6611   -2.7787 C.3     5  GLY5        0.0882
     36 N           2.6896    0.6836   -2.0558 N.am    5  GLY5       -0.3052
     37 C           2.7312    0.2644   -0.7186 C.2     4  HYP4        0.2341
     38 O           1.9170    0.9033    0.0125 O.2     4  HYP4       -0.2738
     39 CA          3.4210   -0.6891    0.1444 C.3     4  HYP4        0.1047
     40 CB          2.4396   -1.7639    0.5738 C.3     4  HYP4        0.0018
     41 CG          2.6893   -2.9548   -0.2848 C.3     4  HYP4        0.0731
     42 OD          1.5317   -3.3151   -0.9980 O.3     4  HYP4       -0.3902
     43 CD          3.7735   -2.5329   -1.2541 C.3     4  HYP4        0.0416
     44 N           4.4241   -1.4744   -0.5349 N.am    4  HYP4       -0.2859
     45 C           5.8139   -1.1755   -0.4223 C.2     3  PRO3        0.2368
     46 O           6.5725   -0.3326    0.1144 O.2     3  PRO3       -0.2735
     47 CA          6.8790   -1.9541   -1.0355 C.3     3  PRO3        0.1025
     48 CB          6.8061   -2.0084   -2.5432 C.3     3  PRO3       -0.0243
     49 CG          7.4617   -0.6910   -2.9104 C.3     3  PRO3       -0.0350
     50 CD          8.4906   -0.4504   -1.8293 C.3     3  PRO3        0.0156
     51 N           8.1670   -1.3579   -0.7400 N.am    3  PRO3       -0.2884
     52 C           8.9584   -1.6547    0.4028 C.2     2  ARG2        0.2365
     53 O           8.4630   -2.4719    1.2410 O.2     2  ARG2       -0.2735
     54 CA         10.2563   -1.2924    0.9611 C.3     2  ARG2        0.0997
     55 CB         11.0571   -2.5839    1.1320 C.3     2  ARG2       -0.0230
     56 CG         12.3744   -2.4180    1.7845 C.3     2  ARG2       -0.0165
     57 CD         12.2713   -1.8721    3.1996 C.3     2  ARG2        0.1048
     58 NE         13.5490   -1.7141    3.8218 N.pl3   2  ARG2       -0.1138
     59 CZ         14.6683   -2.0721    3.3792 C.cat   2  ARG2        0.3765
     60 NH1        15.8142   -1.8110    4.1778 N.pl3   2  ARG2       -0.2893
     61 NH2        15.0605   -2.7225    2.1879 N.pl3   2  ARG2       -0.2893
     62 N          10.9312   -0.3570    0.0613 N.am    2  ARG2       -0.3027
     63 C          12.0317   -0.4036   -0.7947 C.2     1  ARG1        0.2304
     64 O          12.9207   -1.1662   -1.2176 O.2     1  ARG1       -0.2741
     65 CA         12.8851    0.2919   -1.7311 C.3     1  ARG1        0.0824
     66 N          13.6663   -0.6833   -2.5094 N.3     1  ARG1       -0.3199
     67 CB         13.8873    1.2588   -1.1622 C.3     1  ARG1       -0.0263
     68 CG         14.8743    0.6412   -0.2225 C.3     1  ARG1       -0.0168
     69 CD         15.9027    1.6137    0.2707 C.3     1  ARG1        0.1047
     70 NE         15.4076    2.7530    0.9652 N.pl3   1  ARG1       -0.1138
     71 CZ         15.7960    3.9681    0.6908 C.cat   1  ARG1        0.3765
     72 NH1        16.7555    4.1090   -0.3556 N.pl3   1  ARG1       -0.2893
     73 NH2        15.3096    5.0938    1.3822 N.pl3   1  ARG1       -0.2893
     74 C          -8.8903   -1.7236    1.2335 C.3     9  UNK9        0.0297
     75 C          -8.6455   -2.5580    2.4720 C.3     9  UNK9       -0.0340
     76 C          -9.8140   -3.5453    2.5563 C.3     9  UNK9       -0.0514
     77 C         -10.9659   -2.7295    3.1302 C.3     9  UNK9       -0.0527
     78 C         -10.8571   -1.2706    2.7235 C.3     9  UNK9       -0.0485
     79 C          -9.2351   -0.7950   -0.9986 C.2     9  UNK9        0.2342
     80 O          -9.3327   -1.8169   -1.7435 O.2     9  UNK9       -0.2738
     81 N         -10.1139    0.0529   -1.7995 N.am   10  ARG10      -0.3008
     82 CA        -10.8922   -0.1721   -3.0399 C.3    10  ARG10       0.1203
     83 CB        -12.2920    0.2898   -2.8410 C.3    10  ARG10      -0.0211
     84 CG        -13.2366    0.1570   -3.9735 C.3    10  ARG10      -0.0164
     85 CD        -14.6331    0.6954   -3.6013 C.3    10  ARG10       0.1048
     86 NE        -15.1499   -0.0394   -2.4810 N.pl3  10  ARG10      -0.1138
     87 CZ        -15.5438    0.5698   -1.3936 C.cat  10  ARG10       0.3765
     88 NH1       -16.0409   -0.2633   -0.3475 N.pl3  10  ARG10      -0.2893
     89 NH2       -15.6525    1.8778   -0.8308 N.pl3  10  ARG10      -0.2893
     90 C         -10.2256    0.6390   -4.1170 C.2    10  ARG10       0.3253
     91 O          -9.3423    1.4947   -4.7498 O.3    10  ARG10      -0.4793
     92 OXT       -10.6665    0.6259   -5.3006 O.2    10  ARG10      -0.2489
     93 H         -10.9999   -1.7094    0.6532 H       9  UNK9        0.0319
     94 H         -10.9802    0.6109    0.2415 H       9  UNK9        0.0291
     95 H          -9.9393    0.8965    1.7623 H       9  UNK9        0.0291
     96 H          -8.4263    1.0058   -0.2713 H       9  UNK9        0.0597
     97 H          -5.0545    0.5935    2.1047 H       8  UNK8        0.0600
     98 H          -5.1042    1.7425    4.1157 H       8  UNK8        0.0336
     99 H          -6.1143    0.3103    4.4081 H       8  UNK8        0.0336
    100 H          -6.8718    1.4516    6.3048 H       8  UNK8        0.0620
    101 H          -8.6802    2.7784    7.1995 H       8  UNK8        0.0618
    102 H         -10.0056    4.1792    5.7306 H       8  UNK8        0.0618
    103 H          -9.5208    4.2898    3.2709 H       8  UNK8        0.0621
    104 H          -8.3885    2.6348    1.3175 H       8  UNK8        0.0514
    105 H          -7.3710    4.0229    1.7205 H       8  UNK8        0.0514
    106 HA         -4.0763    1.0989    0.4485 H       7  SER7        0.0618
    107 HB1        -3.6436    2.7774    1.9711 H       7  SER7        0.0580
    108 HB2        -3.5207    4.0376    0.7162 H       7  SER7        0.0580
    109 H          -1.4786    2.9810    1.4662 H       7  SER7        0.2095
    110 H          -4.2244    2.6753   -2.1843 H       7  SER7        0.1496
    111 H          -1.8989    2.1308   -3.3028 H       6  UNK6        0.0598
    112 H          -2.0438   -0.0302   -4.4956 H       6  UNK6        0.0341
    113 H          -3.6067    0.4373   -3.7796 H       6  UNK6        0.0341
    114 H          -3.7741   -2.2288   -4.5618 H       6  UNK6        0.0626
    115 H          -3.8186   -4.3372   -3.2088 H       6  UNK6        0.0623
    116 H          -2.7843   -4.4409   -0.8778 H       6  UNK6        0.0693
    117 H          -0.1652   -0.0248   -1.8087 H       6  UNK6        0.1495
    118 HA1         2.2615    2.6910   -2.4239 H       5  GLY5        0.0558
    119 HA2         2.3502    1.6468   -3.8394 H       5  GLY5        0.0558
    120 H           3.4197    0.0874   -2.5578 H       5  GLY5        0.1492
    121 HA          3.8613   -0.1848    1.0533 H       4  HYP4        0.0597
    122 HB1         1.4022   -1.4165    0.4718 H       4  HYP4        0.0313
    123 HB2         2.5888   -2.0546    1.6418 H       4  HYP4        0.0313
    124 HG          3.0263   -3.8365    0.3059 H       4  HYP4        0.0610
    125 HD          1.7039   -3.1979   -1.9720 H       4  HYP4        0.2098
    126 HD1         3.3407   -2.2334   -2.2186 H       4  HYP4        0.0490
    127 HD2         4.4171   -3.4289   -1.4120 H       4  HYP4        0.0490
    128 HA          6.8379   -3.0203   -0.6966 H       3  PRO3        0.0597
    129 HB1         7.3346   -2.8880   -2.9138 H       3  PRO3        0.0288
    130 HB2         5.7351   -2.0113   -2.8139 H       3  PRO3        0.0288
    131 HG1         6.7017    0.1090   -2.9589 H       3  PRO3        0.0281
    132 HG2         7.9598   -0.8584   -3.8893 H       3  PRO3        0.0281
    133 HD1         9.5169   -0.6306   -2.2163 H       3  PRO3        0.0465
    134 HD2         8.3629    0.5906   -1.4773 H       3  PRO3        0.0465
    135 HA         10.2017   -0.8500    1.9512 H       2  ARG2        0.0594
    136 HB1        11.1575   -3.0227    0.1159 H       2  ARG2        0.0289
    137 HB2        10.3863   -3.2636    1.7010 H       2  ARG2        0.0289
    138 HG1        12.8259   -3.4549    1.8390 H       2  ARG2        0.0298
    139 HG2        13.0794   -1.8308    1.2082 H       2  ARG2        0.0298
    140 HD1        11.6633   -0.9740    3.2951 H       2  ARG2        0.0693
    141 HD2        11.7198   -2.6586    3.7967 H       2  ARG2        0.0693
    142 HH11       16.6123   -2.2507    4.6917 H       2  ARG2        0.2546
    143 HH12       16.1070   -0.8285    4.4438 H       2  ARG2        0.2546
    144 HH21       15.5592   -2.1076    1.4765 H       2  ARG2        0.2546
    145 HH22       15.2086   -3.4409    1.4741 H       2  ARG2        0.2546
    146 H          10.6125    0.6234   -0.0610 H       2  ARG2        0.1495
    147 HA         12.2722    0.8812   -2.4652 H       1  ARG1        0.0554
    148 H1         13.0857   -0.9246   -3.3441 H       1  ARG1        0.1189
    149 H2         14.5156   -0.1999   -2.8750 H       1  ARG1        0.1189
    150 HB1        13.3827    2.1569   -0.7279 H       1  ARG1        0.0286
    151 HB2        14.4670    1.6536   -2.0453 H       1  ARG1        0.0286
    152 HG1        14.3745    0.1155    0.6328 H       1  ARG1        0.0297
    153 HG2        15.3969   -0.1738   -0.7741 H       1  ARG1        0.0297
    154 HD1        16.6460    1.1051    0.9523 H       1  ARG1        0.0693
    155 HD2        16.5014    1.9833   -0.5920 H       1  ARG1        0.0693
    156 HH11       17.7859    3.8854   -0.4608 H       1  ARG1        0.2546
    157 HH12       17.3768    4.2604   -1.1982 H       1  ARG1        0.2546
    158 HH21       15.5107    5.8154    2.1069 H       1  ARG1        0.2546
    159 HH22       14.6642    5.8519    1.6804 H       1  ARG1        0.2546
    160 H          -8.7777   -2.3883    0.3839 H       9  UNK9        0.0503
    161 H          -8.7158   -1.9345    3.3968 H       9  UNK9        0.0283
    162 H          -7.7305   -3.1470    2.4263 H       9  UNK9        0.0283
    163 H         -10.1266   -3.8862    1.5513 H       9  UNK9        0.0266
    164 H          -9.5397   -4.4002    3.1998 H       9  UNK9        0.0266
    165 H         -11.9528   -3.1552    2.9365 H       9  UNK9        0.0265
    166 H         -10.7958   -2.7278    4.2464 H       9  UNK9        0.0265
    167 H         -11.9065   -0.8623    2.6703 H       9  UNK9        0.0269
    168 H         -10.3164   -0.6551    3.4456 H       9  UNK9        0.0269
    169 H         -10.3862    1.0878   -1.6460 H      10  ARG10       0.1496
    170 HA        -10.8271   -1.2435   -3.2868 H      10  ARG10       0.0614
    171 HB1       -12.2547    1.3877   -2.5631 H      10  ARG10       0.0289
    172 HB2       -12.7237   -0.2377   -1.9387 H      10  ARG10       0.0289
    173 HG1       -12.9527    0.7385   -4.8719 H      10  ARG10       0.0298
    174 HG2       -13.4165   -0.8816   -4.2892 H      10  ARG10       0.0298
    175 HD1       -14.5566    1.7853   -3.3619 H      10  ARG10       0.0693
    176 HD2       -15.2714    0.6155   -4.4847 H      10  ARG10       0.0693
    177 HH11      -15.2636   -0.7936    0.1020 H      10  ARG10       0.2546
    178 HH12      -15.3412   -0.8181    0.1449 H      10  ARG10       0.2546
    179 HH21      -16.4009    2.5948   -0.9529 H      10  ARG10       0.2546
    180 HH22      -14.8930    2.2250   -0.1869 H      10  ARG10       0.2546
    181 H          -9.1308    2.4359   -4.4987 H      10  ARG10       0.2951
@<TRIPOS>BOND
     1     1     2    1
     2     2     3    1
     3     3     4    1
     4     4     5   am
     5     5     6    2
     6     5     7    1
     7     7     8    1
     8     8     9    1
     9     9    10   ar
    10    10    11   ar
    11    11    12   ar
    12    12    13   ar
    13    13    14   ar
    14    14    15    1
    15    15    16    1
    16    16    17   am
    17    17    18    2
    18    17    19    1
    19    19    20    1
    20    20    21    1
    21    19    22    1
    22    22    23   am
    23    23    24    2
    24    23    25    1
    25    25    26    1
    26    26    27    1
    27    27    28   ar
    28    28    29   ar
    29    29    30   ar
    30    30    31   ar
    31    25    32    1
    32    32    33   am
    33    33    34    2
    34    33    35    1
    35    35    36    1
    36    36    37   am
    37    37    38    2
    38    37    39    1
    39    39    40    1
    40    40    41    1
    41    41    42    1
    42    41    43    1
    43    43    44    1
    44    44    45   am
    45    45    46    2
    46    45    47    1
    47    47    48    1
    48    48    49    1
    49    49    50    1
    50    50    51    1
    51    51    52   am
    52    52    53    2
    53    52    54    1
    54    54    55    1
    55    55    56    1
    56    56    57    1
    57    57    58    1
    58    58    59    2
    59    59    60    1
    60    59    61    1
    61    54    62    1
    62    62    63   am
    63    63    64    2
    64    63    65    1
    65    65    66    1
    66    65    67    1
    67    67    68    1
    68    68    69    1
    69    69    70    1
    70    70    71    2
    71    71    72    1
    72    71    73    1
    73     4    74    1
    74    74    75    1
    75    75    76    1
    76    76    77    1
    77    77    78    1
    78     3    79    1
    79    79    80    2
    80    79    81   am
    81    81    82    1
    82    82    83    1
    83    83    84    1
    84    84    85    1
    85    85    86    1
    86    86    87    2
    87    87    88    1
    88    87    89    1
    89    82    90    1
    90    90    91    1
    91    90    92    2
    92    74     1    1
    93    78     1    1
    94    16     7    1
    95    31    27   ar
    96    44    39    1
    97    51    47    1
    98    14     9   ar
    99     1    93    1
   100     2    94    1
   101     2    95    1
   102     3    96    1
   103     7    97    1
   104     8    98    1
   105     8    99    1
   106    10   100    1
   107    11   101    1
   108    12   102    1
   109    13   103    1
   110    15   104    1
   111    15   105    1
   112    19   106    1
   113    20   107    1
   114    20   108    1
   115    21   109    1
   116    22   110    1
   117    25   111    1
   118    26   112    1
   119    26   113    1
   120    28   114    1
   121    29   115    1
   122    30   116    1
   123    32   117    1
   124    35   118    1
   125    35   119    1
   126    36   120    1
   127    39   121    1
   128    40   122    1
   129    40   123    1
   130    41   124    1
   131    42   125    1
   132    43   126    1
   133    43   127    1
   134    47   128    1
   135    48   129    1
   136    48   130    1
   137    49   131    1
   138    49   132    1
   139    50   133    1
   140    50   134    1
   141    54   135    1
   142    55   136    1
   143    55   137    1
   144    56   138    1
   145    56   139    1
   146    57   140    1
   147    57   141    1
   148    60   142    1
   149    60   143    1
   150    61   144    1
   151    61   145    1
   152    62   146    1
   153    65   147    1
   154    66   148    1
   155    66   149    1
   156    67   150    1
   157    67   151    1
   158    68   152    1
   159    68   153    1
   160    69   154    1
   161    69   155    1
   162    72   156    1
   163    72   157    1
   164    73   158    1
   165    73   159    1
   166    74   160    1
   167    75   161    1
   168    75   162    1
   169    76   163    1
   170    76   164    1
   171    77   165    1
   172    77   166    1
   173    78   167    1
   174    78   168    1
   175    81   169    1
   176    82   170    1
   177    83   171    1
   178    83   172    1
   179    84   173    1
   180    84   174    1
   181    85   175    1
   182    85   176    1
   183    88   177    1
   184    88   178    1
   185    89   179    1
   186    89   180    1
   187    91   181    1
