
     RDKit          3D

181187  0  0  0  0  0  0  0  0999 V2000
  -10.3228   -1.1898    1.3288 C   0  0  1  0  0  0  0  0  0  0  0  0
  -10.1795    0.2926    0.8993 C   0  0  0  0  0  0  0  0  0  0  0  0
   -8.8355    0.0970    0.1209 C   0  0  0  0  0  0  0  0  0  0  0  0
   -8.1044   -0.5141    1.1802 N   0  0  0  0  0  0  0  0  0  0  0  0
   -7.0216   -0.1446    2.0162 C   0  0  0  0  0  0  0  0  0  0  0  0
   -6.6489   -1.0741    2.8346 O   0  0  0  0  0  0  0  0  0  0  0  0
   -6.0709    0.9396    2.3735 C   0  0  0  0  0  0  0  0  0  0  0  0
   -6.0510    1.2770    3.8321 C   0  0  0  0  0  0  0  0  0  0  0  0
   -7.1762    2.1225    4.2771 C   0  0  0  0  0  0  0  0  0  0  0  0
   -7.4627    2.0763    5.6542 C   0  0  0  0  0  0  0  0  0  0  0  0
   -8.5231    2.8622    6.1341 C   0  0  0  0  0  0  0  0  0  0  0  0
   -9.2300    3.6423    5.2145 C   0  0  0  0  0  0  0  0  0  0  0  0
   -8.8871    3.6344    3.8818 C   0  0  0  0  0  0  0  0  0  0  0  0
   -7.8549    2.8774    3.3805 C   0  0  0  0  0  0  0  0  0  0  0  0
   -7.5435    2.9371    1.9291 C   0  0  0  0  0  0  0  0  0  0  0  0
   -6.3782    2.1497    1.5955 N   0  0  0  0  0  0  0  0  0  0  0  0
   -5.6141    2.5657    0.4583 C   0  0  0  0  0  0  0  0  0  0  0  0
   -6.1798    3.4320   -0.2425 O   0  0  0  0  0  0  0  0  0  0  0  0
   -4.2977    2.0892    0.0730 C   0  0  2  0  0  0  0  0  0  0  0  0
   -3.3270    2.9781    0.9364 C   0  0  0  0  0  0  0  0  0  0  0  0
   -2.0291    2.5742    0.7783 O   0  0  0  0  0  0  0  0  0  0  0  0
   -3.9291    2.2248   -1.2937 N   0  0  0  0  0  0  0  0  0  0  0  0
   -2.7380    1.4573   -1.4747 C   0  0  0  0  0  0  0  0  0  0  0  0
   -1.8684    0.7362   -0.9556 O   0  0  0  0  0  0  0  0  0  0  0  0
   -1.9527    1.2234   -2.7323 C   0  0  2  0  0  0  0  0  0  0  0  0
   -2.5918    0.1016   -3.5384 C   0  0  0  0  0  0  0  0  0  0  0  0
   -2.6300   -1.1584   -2.8155 C   0  0  0  0  0  0  0  0  0  0  0  0
   -3.3047   -2.1544   -3.5925 C   0  0  0  0  0  0  0  0  0  0  0  0
   -3.4088   -3.3681   -2.9918 C   0  0  0  0  0  0  0  0  0  0  0  0
   -2.8857   -3.6423   -1.6745 C   0  0  0  0  0  0  0  0  0  0  0  0
   -2.1704   -1.9338   -1.2939 S   0  0  0  0  0  0  0  0  0  0  0  0
   -0.6530    0.7323   -2.3340 N   0  0  0  0  0  0  0  0  0  0  0  0
    0.5000    1.4919   -2.7635 C   0  0  0  0  0  0  0  0  0  0  0  0
    0.1453    2.5188   -3.4708 O   0  0  0  0  0  0  0  0  0  0  0  0
    1.9449    1.6611   -2.7787 C   0  0  0  0  0  0  0  0  0  0  0  0
    2.6896    0.6836   -2.0558 N   0  0  0  0  0  0  0  0  0  0  0  0
    2.7312    0.2644   -0.7186 C   0  0  0  0  0  0  0  0  0  0  0  0
    1.9170    0.9033    0.0125 O   0  0  0  0  0  0  0  0  0  0  0  0
    3.4210   -0.6891    0.1444 C   0  0  0  0  0  0  0  0  0  0  0  0
    2.4396   -1.7639    0.5738 C   0  0  0  0  0  0  0  0  0  0  0  0
    2.6893   -2.9548   -0.2848 C   0  0  1  0  0  0  0  0  0  0  0  0
    1.5317   -3.3151   -0.9980 O   0  0  0  0  0  0  0  0  0  0  0  0
    3.7735   -2.5329   -1.2541 C   0  0  0  0  0  0  0  0  0  0  0  0
    4.4241   -1.4744   -0.5349 N   0  0  0  0  0  0  0  0  0  0  0  0
    5.8139   -1.1755   -0.4223 C   0  0  0  0  0  0  0  0  0  0  0  0
    6.5725   -0.3326    0.1144 O   0  0  0  0  0  0  0  0  0  0  0  0
    6.8790   -1.9541   -1.0355 C   0  0  0  0  0  0  0  0  0  0  0  0
    6.8061   -2.0084   -2.5432 C   0  0  0  0  0  0  0  0  0  0  0  0
    7.4617   -0.6910   -2.9104 C   0  0  0  0  0  0  0  0  0  0  0  0
    8.4906   -0.4504   -1.8293 C   0  0  0  0  0  0  0  0  0  0  0  0
    8.1670   -1.3579   -0.7400 N   0  0  0  0  0  0  0  0  0  0  0  0
    8.9584   -1.6547    0.4028 C   0  0  0  0  0  0  0  0  0  0  0  0
    8.4630   -2.4719    1.2410 O   0  0  0  0  0  0  0  0  0  0  0  0
   10.2563   -1.2924    0.9611 C   0  0  0  0  0  0  0  0  0  0  0  0
   11.0571   -2.5839    1.1320 C   0  0  0  0  0  0  0  0  0  0  0  0
   12.3744   -2.4180    1.7845 C   0  0  0  0  0  0  0  0  0  0  0  0
   12.2713   -1.8721    3.1996 C   0  0  0  0  0  0  0  0  0  0  0  0
   13.5490   -1.7141    3.8218 N   0  0  0  0  0  0  0  0  0  0  0  0
   14.6683   -2.0721    3.3792 C   0  0  0  0  0  0  0  0  0  0  0  0
   15.8142   -1.8110    4.1778 N   0  0  0  0  0  0  0  0  0  0  0  0
   15.0605   -2.7225    2.1879 N   0  0  0  0  0  0  0  0  0  0  0  0
   10.9312   -0.3570    0.0613 N   0  0  0  0  0  0  0  0  0  0  0  0
   12.0317   -0.4036   -0.7947 C   0  0  0  0  0  0  0  0  0  0  0  0
   12.9207   -1.1662   -1.2176 O   0  0  0  0  0  0  0  0  0  0  0  0
   12.8851    0.2919   -1.7311 C   0  0  2  0  0  0  0  0  0  0  0  0
   13.6663   -0.6833   -2.5094 N   0  0  0  0  0  0  0  0  0  0  0  0
   13.8873    1.2588   -1.1622 C   0  0  0  0  0  0  0  0  0  0  0  0
   14.8743    0.6412   -0.2225 C   0  0  0  0  0  0  0  0  0  0  0  0
   15.9027    1.6137    0.2707 C   0  0  0  0  0  0  0  0  0  0  0  0
   15.4076    2.7530    0.9652 N   0  0  0  0  0  0  0  0  0  0  0  0
   15.7960    3.9681    0.6908 C   0  0  0  0  0  0  0  0  0  0  0  0
   16.7555    4.1090   -0.3556 N   0  0  0  0  0  0  0  0  0  0  0  0
   15.3096    5.0938    1.3822 N   0  0  0  0  0  0  0  0  0  0  0  0
   -8.8903   -1.7236    1.2335 C   0  0  1  0  0  0  0  0  0  0  0  0
   -8.6455   -2.5580    2.4720 C   0  0  0  0  0  0  0  0  0  0  0  0
   -9.8140   -3.5453    2.5563 C   0  0  0  0  0  0  0  0  0  0  0  0
  -10.9659   -2.7295    3.1302 C   0  0  0  0  0  0  0  0  0  0  0  0
  -10.8571   -1.2706    2.7235 C   0  0  0  0  0  0  0  0  0  0  0  0
   -9.2351   -0.7950   -0.9986 C   0  0  0  0  0  0  0  0  0  0  0  0
   -9.3327   -1.8169   -1.7435 O   0  0  0  0  0  0  0  0  0  0  0  0
  -10.1139    0.0529   -1.7995 N   0  0  0  0  0  0  0  0  0  0  0  0
  -10.8922   -0.1721   -3.0399 C   0  0  1  0  0  0  0  0  0  0  0  0
  -12.2920    0.2898   -2.8410 C   0  0  0  0  0  0  0  0  0  0  0  0
  -13.2366    0.1570   -3.9735 C   0  0  0  0  0  0  0  0  0  0  0  0
  -14.6331    0.6954   -3.6013 C   0  0  0  0  0  0  0  0  0  0  0  0
  -15.1499   -0.0394   -2.4810 N   0  0  0  0  0  0  0  0  0  0  0  0
  -15.5438    0.5698   -1.3936 C   0  0  0  0  0  0  0  0  0  0  0  0
  -16.0409   -0.2633   -0.3475 N   0  0  0  0  0  0  0  0  0  0  0  0
  -15.6525    1.8778   -0.8308 N   0  0  0  0  0  0  0  0  0  0  0  0
  -10.2256    0.6390   -4.1170 C   0  0  0  0  0  0  0  0  0  0  0  0
   -9.3423    1.4947   -4.7498 O   0  0  0  0  0  0  0  0  0  0  0  0
  -10.6665    0.6259   -5.3006 O   0  0  0  0  0  0  0  0  0  0  0  0
  -10.9999   -1.7094    0.6532 H   0  0  0  0  0  0  0  0  0  0  0  0
  -10.9802    0.6109    0.2415 H   0  0  0  0  0  0  0  0  0  0  0  0
   -9.9393    0.8965    1.7623 H   0  0  0  0  0  0  0  0  0  0  0  0
   -8.4263    1.0058   -0.2713 H   0  0  0  0  0  0  0  0  0  0  0  0
   -5.0545    0.5935    2.1047 H   0  0  0  0  0  0  0  0  0  0  0  0
   -5.1042    1.7425    4.1157 H   0  0  0  0  0  0  0  0  0  0  0  0
   -6.1143    0.3103    4.4081 H   0  0  0  0  0  0  0  0  0  0  0  0
   -6.8718    1.4516    6.3048 H   0  0  0  0  0  0  0  0  0  0  0  0
   -8.6802    2.7784    7.1995 H   0  0  0  0  0  0  0  0  0  0  0  0
  -10.0056    4.1792    5.7306 H   0  0  0  0  0  0  0  0  0  0  0  0
   -9.5208    4.2898    3.2709 H   0  0  0  0  0  0  0  0  0  0  0  0
   -8.3885    2.6348    1.3175 H   0  0  0  0  0  0  0  0  0  0  0  0
   -7.3710    4.0229    1.7205 H   0  0  0  0  0  0  0  0  0  0  0  0
   -4.0763    1.0989    0.4485 H   0  0  0  0  0  0  0  0  0  0  0  0
   -3.6436    2.7774    1.9711 H   0  0  0  0  0  0  0  0  0  0  0  0
   -3.5207    4.0376    0.7162 H   0  0  0  0  0  0  0  0  0  0  0  0
   -1.4786    2.9810    1.4662 H   0  0  0  0  0  0  0  0  0  0  0  0
   -4.2244    2.6753   -2.1843 H   0  0  0  0  0  0  0  0  0  0  0  0
   -1.8989    2.1308   -3.3028 H   0  0  0  0  0  0  0  0  0  0  0  0
   -2.0438   -0.0302   -4.4956 H   0  0  0  0  0  0  0  0  0  0  0  0
   -3.6067    0.4373   -3.7796 H   0  0  0  0  0  0  0  0  0  0  0  0
   -3.7741   -2.2288   -4.5618 H   0  0  0  0  0  0  0  0  0  0  0  0
   -3.8186   -4.3372   -3.2088 H   0  0  0  0  0  0  0  0  0  0  0  0
   -2.7843   -4.4409   -0.8778 H   0  0  0  0  0  0  0  0  0  0  0  0
   -0.1652   -0.0248   -1.8087 H   0  0  0  0  0  0  0  0  0  0  0  0
    2.2615    2.6910   -2.4239 H   0  0  0  0  0  0  0  0  0  0  0  0
    2.3502    1.6468   -3.8394 H   0  0  0  0  0  0  0  0  0  0  0  0
    3.4197    0.0874   -2.5578 H   0  0  0  0  0  0  0  0  0  0  0  0
    3.8613   -0.1848    1.0533 H   0  0  0  0  0  0  0  0  0  0  0  0
    1.4022   -1.4165    0.4718 H   0  0  0  0  0  0  0  0  0  0  0  0
    2.5888   -2.0546    1.6418 H   0  0  0  0  0  0  0  0  0  0  0  0
    3.0263   -3.8365    0.3059 H   0  0  0  0  0  0  0  0  0  0  0  0
    1.7039   -3.1979   -1.9720 H   0  0  0  0  0  0  0  0  0  0  0  0
    3.3407   -2.2334   -2.2186 H   0  0  0  0  0  0  0  0  0  0  0  0
    4.4171   -3.4289   -1.4120 H   0  0  0  0  0  0  0  0  0  0  0  0
    6.8379   -3.0203   -0.6966 H   0  0  0  0  0  0  0  0  0  0  0  0
    7.3346   -2.8880   -2.9138 H   0  0  0  0  0  0  0  0  0  0  0  0
    5.7351   -2.0113   -2.8139 H   0  0  0  0  0  0  0  0  0  0  0  0
    6.7017    0.1090   -2.9589 H   0  0  0  0  0  0  0  0  0  0  0  0
    7.9598   -0.8584   -3.8893 H   0  0  0  0  0  0  0  0  0  0  0  0
    9.5169   -0.6306   -2.2163 H   0  0  0  0  0  0  0  0  0  0  0  0
    8.3629    0.5906   -1.4773 H   0  0  0  0  0  0  0  0  0  0  0  0
   10.2017   -0.8500    1.9512 H   0  0  0  0  0  0  0  0  0  0  0  0
   11.1575   -3.0227    0.1159 H   0  0  0  0  0  0  0  0  0  0  0  0
   10.3863   -3.2636    1.7010 H   0  0  0  0  0  0  0  0  0  0  0  0
   12.8259   -3.4549    1.8390 H   0  0  0  0  0  0  0  0  0  0  0  0
   13.0794   -1.8308    1.2082 H   0  0  0  0  0  0  0  0  0  0  0  0
   11.6633   -0.9740    3.2951 H   0  0  0  0  0  0  0  0  0  0  0  0
   11.7198   -2.6586    3.7967 H   0  0  0  0  0  0  0  0  0  0  0  0
   16.6123   -2.2507    4.6917 H   0  0  0  0  0  0  0  0  0  0  0  0
   16.1070   -0.8285    4.4438 H   0  0  0  0  0  0  0  0  0  0  0  0
   15.5592   -2.1076    1.4765 H   0  0  0  0  0  0  0  0  0  0  0  0
   15.2086   -3.4409    1.4741 H   0  0  0  0  0  0  0  0  0  0  0  0
   10.6125    0.6234   -0.0610 H   0  0  0  0  0  0  0  0  0  0  0  0
   12.2722    0.8812   -2.4652 H   0  0  0  0  0  0  0  0  0  0  0  0
   13.0857   -0.9246   -3.3441 H   0  0  0  0  0  0  0  0  0  0  0  0
   14.5156   -0.1999   -2.8750 H   0  0  0  0  0  0  0  0  0  0  0  0
   13.3827    2.1569   -0.7279 H   0  0  0  0  0  0  0  0  0  0  0  0
   14.4670    1.6536   -2.0453 H   0  0  0  0  0  0  0  0  0  0  0  0
   14.3745    0.1155    0.6328 H   0  0  0  0  0  0  0  0  0  0  0  0
   15.3969   -0.1738   -0.7741 H   0  0  0  0  0  0  0  0  0  0  0  0
   16.6460    1.1051    0.9523 H   0  0  0  0  0  0  0  0  0  0  0  0
   16.5014    1.9833   -0.5920 H   0  0  0  0  0  0  0  0  0  0  0  0
   17.7859    3.8854   -0.4608 H   0  0  0  0  0  0  0  0  0  0  0  0
   17.3768    4.2604   -1.1982 H   0  0  0  0  0  0  0  0  0  0  0  0
   15.5107    5.8154    2.1069 H   0  0  0  0  0  0  0  0  0  0  0  0
   14.6642    5.8519    1.6804 H   0  0  0  0  0  0  0  0  0  0  0  0
   -8.7777   -2.3883    0.3839 H   0  0  0  0  0  0  0  0  0  0  0  0
   -8.7158   -1.9345    3.3968 H   0  0  0  0  0  0  0  0  0  0  0  0
   -7.7305   -3.1470    2.4263 H   0  0  0  0  0  0  0  0  0  0  0  0
  -10.1266   -3.8862    1.5513 H   0  0  0  0  0  0  0  0  0  0  0  0
   -9.5397   -4.4002    3.1998 H   0  0  0  0  0  0  0  0  0  0  0  0
  -11.9528   -3.1552    2.9365 H   0  0  0  0  0  0  0  0  0  0  0  0
  -10.7958   -2.7278    4.2464 H   0  0  0  0  0  0  0  0  0  0  0  0
  -11.9065   -0.8623    2.6703 H   0  0  0  0  0  0  0  0  0  0  0  0
  -10.3164   -0.6551    3.4456 H   0  0  0  0  0  0  0  0  0  0  0  0
  -10.3862    1.0878   -1.6460 H   0  0  0  0  0  0  0  0  0  0  0  0
  -10.8271   -1.2435   -3.2868 H   0  0  0  0  0  0  0  0  0  0  0  0
  -12.2547    1.3877   -2.5631 H   0  0  0  0  0  0  0  0  0  0  0  0
  -12.7237   -0.2377   -1.9387 H   0  0  0  0  0  0  0  0  0  0  0  0
  -12.9527    0.7385   -4.8719 H   0  0  0  0  0  0  0  0  0  0  0  0
  -13.4165   -0.8816   -4.2892 H   0  0  0  0  0  0  0  0  0  0  0  0
  -14.5566    1.7853   -3.3619 H   0  0  0  0  0  0  0  0  0  0  0  0
  -15.2714    0.6155   -4.4847 H   0  0  0  0  0  0  0  0  0  0  0  0
  -15.2636   -0.7936    0.1020 H   0  0  0  0  0  0  0  0  0  0  0  0
  -15.3412   -0.8181    0.1449 H   0  0  0  0  0  0  0  0  0  0  0  0
  -16.4009    2.5948   -0.9529 H   0  0  0  0  0  0  0  0  0  0  0  0
  -14.8930    2.2250   -0.1869 H   0  0  0  0  0  0  0  0  0  0  0  0
   -9.1308    2.4359   -4.4987 H   0  0  0  0  0  0  0  0  0  0  0  0
  1  2  1  0
  2  3  1  0
  3  4  1  0
  4  5  1  0
  5  6  2  0
  5  7  1  0
  7  8  1  0
  8  9  1  0
  9 10  2  0
 10 11  1  0
 11 12  2  0
 12 13  1  0
 13 14  2  0
 14 15  1  0
 15 16  1  0
 16 17  1  0
 17 18  2  0
 17 19  1  0
 19 20  1  0
 20 21  1  0
 19 22  1  0
 22 23  1  0
 23 24  2  0
 23 25  1  0
 25 26  1  0
 26 27  1  0
 27 28  2  0
 28 29  1  0
 29 30  2  0
 30 31  1  0
 25 32  1  0
 32 33  1  0
 33 34  2  0
 33 35  1  0
 35 36  1  0
 36 37  1  0
 37 38  2  0
 37 39  1  0
 39 40  1  0
 40 41  1  0
 41 42  1  0
 41 43  1  0
 43 44  1  0
 44 45  1  0
 45 46  2  0
 45 47  1  0
 47 48  1  0
 48 49  1  0
 49 50  1  0
 50 51  1  0
 51 52  1  0
 52 53  2  0
 52 54  1  0
 54 55  1  0
 55 56  1  0
 56 57  1  0
 57 58  1  0
 58 59  2  3
 59 60  1  0
 59 61  1  0
 54 62  1  0
 62 63  1  0
 63 64  2  0
 63 65  1  0
 65 66  1  0
 65 67  1  0
 67 68  1  0
 68 69  1  0
 69 70  1  0
 70 71  2  3
 71 72  1  0
 71 73  1  0
  4 74  1  0
 74 75  1  0
 75 76  1  0
 76 77  1  0
 77 78  1  0
  3 79  1  0
 79 80  2  0
 79 81  1  0
 81 82  1  0
 82 83  1  0
 83 84  1  0
 84 85  1  0
 85 86  1  0
 86 87  2  3
 87 88  1  0
 87 89  1  0
 82 90  1  0
 90 91  1  0
 90 92  2  0
 74  1  1  0
 78  1  1  0
 16  7  1  0
 31 27  1  0
 44 39  1  0
 51 47  1  0
 14  9  1  0
  1 93  1  6
  2 94  1  0
  2 95  1  0
  3 96  1  0
  7 97  1  0
  8 98  1  0
  8 99  1  0
 10100  1  0
 11101  1  0
 12102  1  0
 13103  1  0
 15104  1  0
 15105  1  0
 19106  1  1
 20107  1  0
 20108  1  0
 21109  1  0
 22110  1  0
 25111  1  6
 26112  1  0
 26113  1  0
 28114  1  0
 29115  1  0
 30116  1  0
 32117  1  0
 35118  1  0
 35119  1  0
 36120  1  0
 39121  1  0
 40122  1  0
 40123  1  0
 41124  1  1
 42125  1  0
 43126  1  0
 43127  1  0
 47128  1  0
 48129  1  0
 48130  1  0
 49131  1  0
 49132  1  0
 50133  1  0
 50134  1  0
 54135  1  0
 55136  1  0
 55137  1  0
 56138  1  0
 56139  1  0
 57140  1  0
 57141  1  0
 60142  1  0
 60143  1  0
 61144  1  0
 61145  1  0
 62146  1  0
 65147  1  6
 66148  1  0
 66149  1  0
 67150  1  0
 67151  1  0
 68152  1  0
 68153  1  0
 69154  1  0
 69155  1  0
 72156  1  0
 72157  1  0
 73158  1  0
 73159  1  0
 74160  1  6
 75161  1  0
 75162  1  0
 76163  1  0
 76164  1  0
 77165  1  0
 77166  1  0
 78167  1  0
 78168  1  0
 81169  1  0
 82170  1  6
 83171  1  0
 83172  1  0
 84173  1  0
 84174  1  0
 85175  1  0
 85176  1  0
 88177  1  0
 88178  1  0
 89179  1  0
 89180  1  0
 91181  1  0
M  END
$$$$
