@<TRIPOS>MOLECULE
*****
 80 85 0 0 0
SMALL
GASTEIGER

@<TRIPOS>ATOM
      1 C           2.8373    2.8673    2.4998 C.3     1  UNL1       -0.0219
      2 C           3.7629    1.9183    1.8015 C.ar    1  UNL1        0.0464
      3 N           5.0437    2.3031    1.5235 N.ar    1  UNL1       -0.2175
      4 C           5.8901    1.4756    0.8983 C.ar    1  UNL1        0.2207
      5 O           7.1963    1.9265    0.6404 O.3     1  UNL1       -0.4380
      6 C           8.0420    1.0661   -0.0222 C.ar    1  UNL1        0.1304
      7 C           8.8140    0.1313    0.6268 C.ar    1  UNL1       -0.0185
      8 C           9.6433   -0.7038   -0.0879 C.ar    1  UNL1       -0.0443
      9 C           9.7325   -0.6380   -1.4693 C.ar    1  UNL1        0.0591
     10 C          10.6007   -1.5124   -2.2402 C.2     1  UNL1        0.3368
     11 O          11.3157   -2.3529   -1.6513 O.2     1  UNL1       -0.2451
     12 O          10.6313   -1.4128   -3.6092 O.3     1  UNL1       -0.4771
     13 C           8.9449    0.3132   -2.1108 C.ar    1  UNL1       -0.0443
     14 C           8.1186    1.1439   -1.3849 C.ar    1  UNL1       -0.0185
     15 C           5.4502    0.2280    0.5377 C.ar    1  UNL1        0.0007
     16 C           4.1414   -0.1811    0.8153 C.ar    1  UNL1       -0.0506
     17 C           3.2669    0.6822    1.4652 C.ar    1  UNL1       -0.0121
     18 C           1.8953    0.2936    1.7800 C.3     1  UNL1        0.0257
     19 N           0.8883    0.8416    0.9399 N.3     1  UNL1       -0.2980
     20 C           0.9526    0.5205   -0.4420 C.3     1  UNL1        0.0009
     21 C          -0.3623    0.1628   -1.0638 C.3     1  UNL1       -0.0213
     22 C          -1.2049   -0.8036   -0.3101 C.3     1  UNL1        0.0305
     23 N          -2.6059   -0.7227   -0.6565 N.am    1  UNL1       -0.2738
     24 C          -3.3675   -1.7871   -1.1900 C.2     1  UNL1        0.3059
     25 O          -2.9739   -2.9623   -1.4549 O.2     1  UNL1       -0.2524
     26 N          -4.7161   -1.3730   -1.4152 N.am    1  UNL1       -0.2802
     27 C          -5.8796   -2.2301   -1.6773 C.3     1  UNL1        0.0317
     28 C          -6.4839   -1.9971   -3.0244 C.3     1  UNL1       -0.0106
     29 C          -7.5807   -0.9645   -3.0377 C.3     1  UNL1        0.0493
     30 O          -8.5386   -1.3965   -2.1212 O.3     1  UNL1       -0.3796
     31 C          -8.0645   -1.2969   -0.8128 C.3     1  UNL1        0.0493
     32 C          -6.8873   -2.1944   -0.5633 C.3     1  UNL1       -0.0106
     33 C          -4.7259    0.0544   -1.3479 C.3     1  UNL1        0.0393
     34 C          -3.4524    0.4120   -0.5649 C.3     1  UNL1        0.0687
     35 C          -3.9000    0.8208    0.7613 C.ar    1  UNL1       -0.0255
     36 C          -4.3617   -0.0556    1.7015 C.ar    1  UNL1       -0.0567
     37 C          -4.7940    0.3794    2.9577 C.ar    1  UNL1       -0.0614
     38 C          -4.7663    1.7193    3.2852 C.ar    1  UNL1       -0.0617
     39 C          -4.2954    2.6007    2.3235 C.ar    1  UNL1       -0.0614
     40 C          -3.8679    2.1799    1.0858 C.ar    1  UNL1       -0.0567
     41 C          -0.9258   -0.6630    1.1625 C.3     1  UNL1       -0.0213
     42 C          -0.4560    0.7450    1.4553 C.3     1  UNL1        0.0009
     43 H           3.4267    3.7962    2.7529 H       1  UNL1        0.0293
     44 H           2.5178    2.4791    3.4906 H       1  UNL1        0.0293
     45 H           2.0117    3.2076    1.8578 H       1  UNL1        0.0293
     46 H           8.7812    0.0379    1.7230 H       1  UNL1        0.0654
     47 H          10.2652   -1.4553    0.3862 H       1  UNL1        0.0627
     48 H          11.4469   -1.7008   -4.1663 H       1  UNL1        0.2954
     49 H           9.0072    0.3750   -3.2048 H       1  UNL1        0.0627
     50 H           7.5348    1.8617   -1.9478 H       1  UNL1        0.0654
     51 H           6.1482   -0.4282    0.0320 H       1  UNL1        0.0671
     52 H           3.8313   -1.1546    0.5228 H       1  UNL1        0.0623
     53 H           1.6829    0.6624    2.8235 H       1  UNL1        0.0476
     54 H           1.8734   -0.8285    1.8655 H       1  UNL1        0.0476
     55 H           1.6466   -0.3313   -0.5876 H       1  UNL1        0.0427
     56 H           1.4348    1.3946   -0.9526 H       1  UNL1        0.0427
     57 H          -0.9106    1.1325   -1.2107 H       1  UNL1        0.0295
     58 H          -0.1682   -0.1956   -2.0945 H       1  UNL1        0.0295
     59 H          -0.8066   -1.8422   -0.5613 H       1  UNL1        0.0502
     60 H          -5.4773   -3.2878   -1.6745 H       1  UNL1        0.0502
     61 H          -6.9273   -2.9509   -3.3776 H       1  UNL1        0.0305
     62 H          -5.6788   -1.7647   -3.7545 H       1  UNL1        0.0305
     63 H          -7.2208    0.0555   -2.8183 H       1  UNL1        0.0560
     64 H          -8.0451   -0.9547   -4.0334 H       1  UNL1        0.0560
     65 H          -8.9023   -1.6694   -0.1542 H       1  UNL1        0.0560
     66 H          -7.9105   -0.2475   -0.4935 H       1  UNL1        0.0560
     67 H          -6.3729   -1.9210    0.3556 H       1  UNL1        0.0305
     68 H          -7.3052   -3.2352   -0.4112 H       1  UNL1        0.0305
     69 H          -5.6220    0.3680   -0.7971 H       1  UNL1        0.0487
     70 H          -4.6288    0.5462   -2.3350 H       1  UNL1        0.0487
     71 H          -2.9484    1.2752   -1.0841 H       1  UNL1        0.0567
     72 H          -4.4067   -1.1223    1.5087 H       1  UNL1        0.0621
     73 H          -5.1582   -0.3286    3.6968 H       1  UNL1        0.0618
     74 H          -5.1013    2.0655    4.2614 H       1  UNL1        0.0618
     75 H          -4.2758    3.6630    2.5912 H       1  UNL1        0.0618
     76 H          -3.5032    2.8626    0.3401 H       1  UNL1        0.0621
     77 H          -0.0171   -1.3082    1.3756 H       1  UNL1        0.0295
     78 H          -1.6936   -1.0461    1.8276 H       1  UNL1        0.0295
     79 H          -0.4292    0.9417    2.5363 H       1  UNL1        0.0427
     80 H          -1.0562    1.5103    0.9181 H       1  UNL1        0.0427
@<TRIPOS>BOND
     1     1     2    1
     2     2     3   ar
     3     3     4   ar
     4     4     5    1
     5     5     6    1
     6     6     7   ar
     7     7     8   ar
     8     8     9   ar
     9     9    10    1
    10    10    11    2
    11    10    12    1
    12     9    13   ar
    13    13    14   ar
    14     4    15   ar
    15    15    16   ar
    16    16    17   ar
    17    17    18    1
    18    18    19    1
    19    19    20    1
    20    20    21    1
    21    21    22    1
    22    22    23    1
    23    23    24   am
    24    24    25    2
    25    24    26   am
    26    26    27    1
    27    27    28    1
    28    28    29    1
    29    29    30    1
    30    30    31    1
    31    31    32    1
    32    26    33    1
    33    33    34    1
    34    34    35    1
    35    35    36   ar
    36    36    37   ar
    37    37    38   ar
    38    38    39   ar
    39    39    40   ar
    40    22    41    1
    41    41    42    1
    42    17     2   ar
    43    42    19    1
    44    14     6   ar
    45    34    23    1
    46    40    35   ar
    47    32    27    1
    48     1    43    1
    49     1    44    1
    50     1    45    1
    51     7    46    1
    52     8    47    1
    53    12    48    1
    54    13    49    1
    55    14    50    1
    56    15    51    1
    57    16    52    1
    58    18    53    1
    59    18    54    1
    60    20    55    1
    61    20    56    1
    62    21    57    1
    63    21    58    1
    64    22    59    1
    65    27    60    1
    66    28    61    1
    67    28    62    1
    68    29    63    1
    69    29    64    1
    70    31    65    1
    71    31    66    1
    72    32    67    1
    73    32    68    1
    74    33    69    1
    75    33    70    1
    76    34    71    1
    77    36    72    1
    78    37    73    1
    79    38    74    1
    80    39    75    1
    81    40    76    1
    82    41    77    1
    83    41    78    1
    84    42    79    1
    85    42    80    1
