
     RDKit          3D

 80 85  0  0  0  0  0  0  0  0999 V2000
    2.8373    2.8673    2.4998 C   0  0  0  0  0  0  0  0  0  0  0  0
    3.7629    1.9183    1.8015 C   0  0  0  0  0  0  0  0  0  0  0  0
    5.0437    2.3031    1.5235 N   0  0  0  0  0  0  0  0  0  0  0  0
    5.8901    1.4756    0.8983 C   0  0  0  0  0  0  0  0  0  0  0  0
    7.1963    1.9265    0.6404 O   0  0  0  0  0  0  0  0  0  0  0  0
    8.0420    1.0661   -0.0222 C   0  0  0  0  0  0  0  0  0  0  0  0
    8.8140    0.1313    0.6268 C   0  0  0  0  0  0  0  0  0  0  0  0
    9.6433   -0.7038   -0.0879 C   0  0  0  0  0  0  0  0  0  0  0  0
    9.7325   -0.6380   -1.4693 C   0  0  0  0  0  0  0  0  0  0  0  0
   10.6007   -1.5124   -2.2402 C   0  0  0  0  0  0  0  0  0  0  0  0
   11.3157   -2.3529   -1.6513 O   0  0  0  0  0  0  0  0  0  0  0  0
   10.6313   -1.4128   -3.6092 O   0  0  0  0  0  0  0  0  0  0  0  0
    8.9449    0.3132   -2.1108 C   0  0  0  0  0  0  0  0  0  0  0  0
    8.1186    1.1439   -1.3849 C   0  0  0  0  0  0  0  0  0  0  0  0
    5.4502    0.2280    0.5377 C   0  0  0  0  0  0  0  0  0  0  0  0
    4.1414   -0.1811    0.8153 C   0  0  0  0  0  0  0  0  0  0  0  0
    3.2669    0.6822    1.4652 C   0  0  0  0  0  0  0  0  0  0  0  0
    1.8953    0.2936    1.7800 C   0  0  0  0  0  0  0  0  0  0  0  0
    0.8883    0.8416    0.9399 N   0  0  0  0  0  0  0  0  0  0  0  0
    0.9526    0.5205   -0.4420 C   0  0  0  0  0  0  0  0  0  0  0  0
   -0.3623    0.1628   -1.0638 C   0  0  0  0  0  0  0  0  0  0  0  0
   -1.2049   -0.8036   -0.3101 C   0  0  0  0  0  0  0  0  0  0  0  0
   -2.6059   -0.7227   -0.6565 N   0  0  0  0  0  0  0  0  0  0  0  0
   -3.3675   -1.7871   -1.1900 C   0  0  0  0  0  0  0  0  0  0  0  0
   -2.9739   -2.9623   -1.4549 O   0  0  0  0  0  0  0  0  0  0  0  0
   -4.7161   -1.3730   -1.4152 N   0  0  0  0  0  0  0  0  0  0  0  0
   -5.8796   -2.2301   -1.6773 C   0  0  0  0  0  0  0  0  0  0  0  0
   -6.4839   -1.9971   -3.0244 C   0  0  0  0  0  0  0  0  0  0  0  0
   -7.5807   -0.9645   -3.0377 C   0  0  0  0  0  0  0  0  0  0  0  0
   -8.5386   -1.3965   -2.1212 O   0  0  0  0  0  0  0  0  0  0  0  0
   -8.0645   -1.2969   -0.8128 C   0  0  0  0  0  0  0  0  0  0  0  0
   -6.8873   -2.1944   -0.5633 C   0  0  0  0  0  0  0  0  0  0  0  0
   -4.7259    0.0544   -1.3479 C   0  0  0  0  0  0  0  0  0  0  0  0
   -3.4524    0.4120   -0.5649 C   0  0  1  0  0  0  0  0  0  0  0  0
   -3.9000    0.8208    0.7613 C   0  0  0  0  0  0  0  0  0  0  0  0
   -4.3617   -0.0556    1.7015 C   0  0  0  0  0  0  0  0  0  0  0  0
   -4.7940    0.3794    2.9577 C   0  0  0  0  0  0  0  0  0  0  0  0
   -4.7663    1.7193    3.2852 C   0  0  0  0  0  0  0  0  0  0  0  0
   -4.2954    2.6007    2.3235 C   0  0  0  0  0  0  0  0  0  0  0  0
   -3.8679    2.1799    1.0858 C   0  0  0  0  0  0  0  0  0  0  0  0
   -0.9258   -0.6630    1.1625 C   0  0  0  0  0  0  0  0  0  0  0  0
   -0.4560    0.7450    1.4553 C   0  0  0  0  0  0  0  0  0  0  0  0
    3.4267    3.7962    2.7529 H   0  0  0  0  0  0  0  0  0  0  0  0
    2.5178    2.4791    3.4906 H   0  0  0  0  0  0  0  0  0  0  0  0
    2.0117    3.2076    1.8578 H   0  0  0  0  0  0  0  0  0  0  0  0
    8.7812    0.0379    1.7230 H   0  0  0  0  0  0  0  0  0  0  0  0
   10.2652   -1.4553    0.3862 H   0  0  0  0  0  0  0  0  0  0  0  0
   11.4469   -1.7008   -4.1663 H   0  0  0  0  0  0  0  0  0  0  0  0
    9.0072    0.3750   -3.2048 H   0  0  0  0  0  0  0  0  0  0  0  0
    7.5348    1.8617   -1.9478 H   0  0  0  0  0  0  0  0  0  0  0  0
    6.1482   -0.4282    0.0320 H   0  0  0  0  0  0  0  0  0  0  0  0
    3.8313   -1.1546    0.5228 H   0  0  0  0  0  0  0  0  0  0  0  0
    1.6829    0.6624    2.8235 H   0  0  0  0  0  0  0  0  0  0  0  0
    1.8734   -0.8285    1.8655 H   0  0  0  0  0  0  0  0  0  0  0  0
    1.6466   -0.3313   -0.5876 H   0  0  0  0  0  0  0  0  0  0  0  0
    1.4348    1.3946   -0.9526 H   0  0  0  0  0  0  0  0  0  0  0  0
   -0.9106    1.1325   -1.2107 H   0  0  0  0  0  0  0  0  0  0  0  0
   -0.1682   -0.1956   -2.0945 H   0  0  0  0  0  0  0  0  0  0  0  0
   -0.8066   -1.8422   -0.5613 H   0  0  0  0  0  0  0  0  0  0  0  0
   -5.4773   -3.2878   -1.6745 H   0  0  0  0  0  0  0  0  0  0  0  0
   -6.9273   -2.9509   -3.3776 H   0  0  0  0  0  0  0  0  0  0  0  0
   -5.6788   -1.7647   -3.7545 H   0  0  0  0  0  0  0  0  0  0  0  0
   -7.2208    0.0555   -2.8183 H   0  0  0  0  0  0  0  0  0  0  0  0
   -8.0451   -0.9547   -4.0334 H   0  0  0  0  0  0  0  0  0  0  0  0
   -8.9023   -1.6694   -0.1542 H   0  0  0  0  0  0  0  0  0  0  0  0
   -7.9105   -0.2475   -0.4935 H   0  0  0  0  0  0  0  0  0  0  0  0
   -6.3729   -1.9210    0.3556 H   0  0  0  0  0  0  0  0  0  0  0  0
   -7.3052   -3.2352   -0.4112 H   0  0  0  0  0  0  0  0  0  0  0  0
   -5.6220    0.3680   -0.7971 H   0  0  0  0  0  0  0  0  0  0  0  0
   -4.6288    0.5462   -2.3350 H   0  0  0  0  0  0  0  0  0  0  0  0
   -2.9484    1.2752   -1.0841 H   0  0  0  0  0  0  0  0  0  0  0  0
   -4.4067   -1.1223    1.5087 H   0  0  0  0  0  0  0  0  0  0  0  0
   -5.1582   -0.3286    3.6968 H   0  0  0  0  0  0  0  0  0  0  0  0
   -5.1013    2.0655    4.2614 H   0  0  0  0  0  0  0  0  0  0  0  0
   -4.2758    3.6630    2.5912 H   0  0  0  0  0  0  0  0  0  0  0  0
   -3.5032    2.8626    0.3401 H   0  0  0  0  0  0  0  0  0  0  0  0
   -0.0171   -1.3082    1.3756 H   0  0  0  0  0  0  0  0  0  0  0  0
   -1.6936   -1.0461    1.8276 H   0  0  0  0  0  0  0  0  0  0  0  0
   -0.4292    0.9417    2.5363 H   0  0  0  0  0  0  0  0  0  0  0  0
   -1.0562    1.5103    0.9181 H   0  0  0  0  0  0  0  0  0  0  0  0
  1  2  1  0
  2  3  2  0
  3  4  1  0
  4  5  1  0
  5  6  1  0
  6  7  2  0
  7  8  1  0
  8  9  2  0
  9 10  1  0
 10 11  2  0
 10 12  1  0
  9 13  1  0
 13 14  2  0
  4 15  2  0
 15 16  1  0
 16 17  2  0
 17 18  1  0
 18 19  1  0
 19 20  1  0
 20 21  1  0
 21 22  1  0
 22 23  1  0
 23 24  1  0
 24 25  2  0
 24 26  1  0
 26 27  1  0
 27 28  1  0
 28 29  1  0
 29 30  1  0
 30 31  1  0
 31 32  1  0
 26 33  1  0
 33 34  1  0
 34 35  1  0
 35 36  2  0
 36 37  1  0
 37 38  2  0
 38 39  1  0
 39 40  2  0
 22 41  1  0
 41 42  1  0
 17  2  1  0
 42 19  1  0
 14  6  1  0
 34 23  1  0
 40 35  1  0
 32 27  1  0
  1 43  1  0
  1 44  1  0
  1 45  1  0
  7 46  1  0
  8 47  1  0
 12 48  1  0
 13 49  1  0
 14 50  1  0
 15 51  1  0
 16 52  1  0
 18 53  1  0
 18 54  1  0
 20 55  1  0
 20 56  1  0
 21 57  1  0
 21 58  1  0
 22 59  1  0
 27 60  1  0
 28 61  1  0
 28 62  1  0
 29 63  1  0
 29 64  1  0
 31 65  1  0
 31 66  1  0
 32 67  1  0
 32 68  1  0
 33 69  1  0
 33 70  1  0
 34 71  1  6
 36 72  1  0
 37 73  1  0
 38 74  1  0
 39 75  1  0
 40 76  1  0
 41 77  1  0
 41 78  1  0
 42 79  1  0
 42 80  1  0
M  END
$$$$
