
     RDKit          3D

 48 50  0  0  0  0  0  0  0  0999 V2000
   -4.3864    0.9838   -2.0348 O   0  0  0  0  0  0  0  0  0  0  0  0
   -4.2923    1.2244   -0.8229 C   0  0  0  0  0  0  0  0  0  0  0  0
   -5.1977    2.0120   -0.0762 N   0  0  0  0  0  0  0  0  0  0  0  0
   -6.2513    2.5470   -0.7363 O   0  0  0  0  0  0  0  0  0  0  0  0
   -3.1245    0.6402   -0.0585 C   0  0  0  0  0  0  0  0  0  0  0  0
   -2.3750    1.7949    0.4595 C   0  0  0  0  0  0  0  0  0  0  0  0
   -0.9702    1.5917    1.4226 S   0  0  0  0  0  6  0  0  0  0  0  0
   -1.1971    0.9168    2.7447 O   0  0  0  0  0  0  0  0  0  0  0  0
   -0.3637    2.9459    1.7971 O   0  0  0  0  0  0  0  0  0  0  0  0
    0.3141    0.7235    0.6318 C   0  0  0  0  0  0  0  0  0  0  0  0
    1.1272    1.4228   -0.2622 C   0  0  0  0  0  0  0  0  0  0  0  0
    2.1787    0.8380   -0.9157 C   0  0  0  0  0  0  0  0  0  0  0  0
    2.4347   -0.4881   -0.6753 C   0  0  0  0  0  0  0  0  0  0  0  0
    3.5047   -1.0894   -1.3381 O   0  0  0  0  0  0  0  0  0  0  0  0
    4.7901   -1.0972   -0.7806 C   0  0  0  0  0  0  0  0  0  0  0  0
    5.1790   -2.1388    0.0418 C   0  0  0  0  0  0  0  0  0  0  0  0
    6.4488   -2.1767    0.6116 C   0  0  0  0  0  0  0  0  0  0  0  0
    7.3247   -1.1505    0.3427 C   0  0  0  0  0  0  0  0  0  0  0  0
    8.9514   -1.1313    1.0300 Cl  0  0  0  0  0  0  0  0  0  0  0  0
    6.9557   -0.1023   -0.4753 C   0  0  0  0  0  0  0  0  0  0  0  0
    5.6949   -0.0949   -1.0221 C   0  0  0  0  0  0  0  0  0  0  0  0
    1.6340   -1.2052    0.2147 C   0  0  0  0  0  0  0  0  0  0  0  0
    0.5916   -0.6166    0.8596 C   0  0  0  0  0  0  0  0  0  0  0  0
   -2.3741   -0.2064   -1.0517 C   0  0  0  0  0  0  0  0  0  0  0  0
   -2.4623   -1.6489   -0.6525 C   0  0  0  0  0  0  0  0  0  0  0  0
   -3.7701   -2.1073   -0.5534 O   0  0  0  0  0  0  0  0  0  0  0  0
   -4.5645   -1.2868    0.2232 C   0  0  0  0  0  0  0  0  0  0  0  0
   -3.7388   -0.2526    0.9698 C   0  0  0  0  0  0  0  0  0  0  0  0
   -5.1003    2.2023    0.9526 H   0  0  0  0  0  0  0  0  0  0  0  0
   -5.9815    3.4102   -1.1379 H   0  0  0  0  0  0  0  0  0  0  0  0
   -3.0903    2.4679    1.0256 H   0  0  0  0  0  0  0  0  0  0  0  0
   -2.1275    2.4428   -0.4386 H   0  0  0  0  0  0  0  0  0  0  0  0
    0.9374    2.4661   -0.4607 H   0  0  0  0  0  0  0  0  0  0  0  0
    2.8157    1.3690   -1.6104 H   0  0  0  0  0  0  0  0  0  0  0  0
    4.5194   -2.9625    0.2764 H   0  0  0  0  0  0  0  0  0  0  0  0
    6.7716   -2.9788    1.2549 H   0  0  0  0  0  0  0  0  0  0  0  0
    7.6666    0.7041   -0.6769 H   0  0  0  0  0  0  0  0  0  0  0  0
    5.3860    0.7171   -1.6656 H   0  0  0  0  0  0  0  0  0  0  0  0
    1.8901   -2.2406    0.3569 H   0  0  0  0  0  0  0  0  0  0  0  0
   -0.0465   -1.1705    1.5639 H   0  0  0  0  0  0  0  0  0  0  0  0
   -2.7531   -0.0471   -2.0958 H   0  0  0  0  0  0  0  0  0  0  0  0
   -1.3063    0.1045   -1.1134 H   0  0  0  0  0  0  0  0  0  0  0  0
   -1.8872   -1.9203    0.2252 H   0  0  0  0  0  0  0  0  0  0  0  0
   -2.0252   -2.2503   -1.5097 H   0  0  0  0  0  0  0  0  0  0  0  0
   -5.1287   -1.9425    0.9311 H   0  0  0  0  0  0  0  0  0  0  0  0
   -5.2629   -0.7216   -0.4325 H   0  0  0  0  0  0  0  0  0  0  0  0
   -2.9586   -0.8263    1.5066 H   0  0  0  0  0  0  0  0  0  0  0  0
   -4.3802    0.3286    1.6715 H   0  0  0  0  0  0  0  0  0  0  0  0
  1  2  2  0
  2  3  1  0
  3  4  1  0
  2  5  1  0
  5  6  1  0
  6  7  1  0
  7  8  2  0
  7  9  2  0
  7 10  1  0
 10 11  2  0
 11 12  1  0
 12 13  2  0
 13 14  1  0
 14 15  1  0
 15 16  2  0
 16 17  1  0
 17 18  2  0
 18 19  1  0
 18 20  1  0
 20 21  2  0
 13 22  1  0
 22 23  2  0
  5 24  1  0
 24 25  1  0
 25 26  1  0
 26 27  1  0
 27 28  1  0
 28  5  1  0
 23 10  1  0
 21 15  1  0
  3 29  1  0
  4 30  1  0
  6 31  1  0
  6 32  1  0
 11 33  1  0
 12 34  1  0
 16 35  1  0
 17 36  1  0
 20 37  1  0
 21 38  1  0
 22 39  1  0
 23 40  1  0
 24 41  1  0
 24 42  1  0
 25 43  1  0
 25 44  1  0
 27 45  1  0
 27 46  1  0
 28 47  1  0
 28 48  1  0
M  END
$$$$
