@<TRIPOS>MOLECULE
*****
 48 50 0 0 0
SMALL
GASTEIGER

@<TRIPOS>ATOM
      1 O          -4.3864    0.9838   -2.0348 O.2     1  UNL1       -0.2731
      2 C          -4.2923    1.2244   -0.8229 C.2     1  UNL1        0.2433
      3 N          -5.1977    2.0120   -0.0762 N.am    1  UNL1       -0.1970
      4 O          -6.2513    2.5470   -0.7363 O.3     1  UNL1       -0.2952
      5 C          -3.1245    0.6402   -0.0585 C.3     1  UNL1        0.0726
      6 C          -2.3750    1.7949    0.4595 C.3     1  UNL1        0.0849
      7 S          -0.9702    1.5917    1.4226 S.O2    1  UNL1       -0.0021
      8 O          -1.1971    0.9168    2.7447 O.2     1  UNL1       -0.1693
      9 O          -0.3637    2.9459    1.7971 O.2     1  UNL1       -0.1693
     10 C           0.3141    0.7235    0.6318 C.ar    1  UNL1        0.0884
     11 C           1.1272    1.4228   -0.2622 C.ar    1  UNL1       -0.0334
     12 C           2.1787    0.8380   -0.9157 C.ar    1  UNL1       -0.0175
     13 C           2.4347   -0.4881   -0.6753 C.ar    1  UNL1        0.1285
     14 O           3.5047   -1.0894   -1.3381 O.3     1  UNL1       -0.4560
     15 C           4.7901   -1.0972   -0.7806 C.ar    1  UNL1        0.1285
     16 C           5.1790   -2.1388    0.0418 C.ar    1  UNL1       -0.0180
     17 C           6.4488   -2.1767    0.6116 C.ar    1  UNL1       -0.0399
     18 C           7.3247   -1.1505    0.3427 C.ar    1  UNL1        0.0412
     19 CL          8.9514   -1.1313    1.0300 Cl      1  UNL1       -0.0835
     20 C           6.9557   -0.1023   -0.4753 C.ar    1  UNL1       -0.0399
     21 C           5.6949   -0.0949   -1.0221 C.ar    1  UNL1       -0.0180
     22 C           1.6340   -1.2052    0.2147 C.ar    1  UNL1       -0.0175
     23 C           0.5916   -0.6166    0.8596 C.ar    1  UNL1       -0.0334
     24 C          -2.3741   -0.2064   -1.0517 C.3     1  UNL1       -0.0138
     25 C          -2.4623   -1.6489   -0.6525 C.3     1  UNL1        0.0487
     26 O          -3.7701   -2.1073   -0.5534 O.3     1  UNL1       -0.3797
     27 C          -4.5645   -1.2868    0.2232 C.3     1  UNL1        0.0487
     28 C          -3.7388   -0.2526    0.9698 C.3     1  UNL1       -0.0138
     29 H          -5.1003    2.2023    0.9526 H       1  UNL1        0.1822
     30 H          -5.9815    3.4102   -1.1379 H       1  UNL1        0.2414
     31 H          -3.0903    2.4679    1.0256 H       1  UNL1        0.0514
     32 H          -2.1275    2.4428   -0.4386 H       1  UNL1        0.0514
     33 H           0.9374    2.4661   -0.4607 H       1  UNL1        0.0638
     34 H           2.8157    1.3690   -1.6104 H       1  UNL1        0.0655
     35 H           4.5194   -2.9625    0.2764 H       1  UNL1        0.0655
     36 H           6.7716   -2.9788    1.2549 H       1  UNL1        0.0633
     37 H           7.6666    0.7041   -0.6769 H       1  UNL1        0.0633
     38 H           5.3860    0.7171   -1.6656 H       1  UNL1        0.0655
     39 H           1.8901   -2.2406    0.3569 H       1  UNL1        0.0655
     40 H          -0.0465   -1.1705    1.5639 H       1  UNL1        0.0638
     41 H          -2.7531   -0.0471   -2.0958 H       1  UNL1        0.0298
     42 H          -1.3063    0.1045   -1.1134 H       1  UNL1        0.0298
     43 H          -1.8872   -1.9203    0.2252 H       1  UNL1        0.0560
     44 H          -2.0252   -2.2503   -1.5097 H       1  UNL1        0.0560
     45 H          -5.1287   -1.9425    0.9311 H       1  UNL1        0.0560
     46 H          -5.2629   -0.7216   -0.4325 H       1  UNL1        0.0560
     47 H          -2.9586   -0.8263    1.5066 H       1  UNL1        0.0298
     48 H          -4.3802    0.3286    1.6715 H       1  UNL1        0.0298
@<TRIPOS>BOND
     1     1     2    2
     2     2     3   am
     3     3     4    1
     4     2     5    1
     5     5     6    1
     6     6     7    1
     7     7     8    2
     8     7     9    2
     9     7    10    1
    10    10    11   ar
    11    11    12   ar
    12    12    13   ar
    13    13    14    1
    14    14    15    1
    15    15    16   ar
    16    16    17   ar
    17    17    18   ar
    18    18    19    1
    19    18    20   ar
    20    20    21   ar
    21    13    22   ar
    22    22    23   ar
    23     5    24    1
    24    24    25    1
    25    25    26    1
    26    26    27    1
    27    27    28    1
    28    28     5    1
    29    23    10   ar
    30    21    15   ar
    31     3    29    1
    32     4    30    1
    33     6    31    1
    34     6    32    1
    35    11    33    1
    36    12    34    1
    37    16    35    1
    38    17    36    1
    39    20    37    1
    40    21    38    1
    41    22    39    1
    42    23    40    1
    43    24    41    1
    44    24    42    1
    45    25    43    1
    46    25    44    1
    47    27    45    1
    48    27    46    1
    49    28    47    1
    50    28    48    1
