@<TRIPOS>MOLECULE
*****
 50 53 0 0 0
SMALL
GASTEIGER

@<TRIPOS>ATOM
      1 C          -0.8848    1.1809    3.5033 C.3     1  UNL1       -0.0391
      2 C          -1.8393    0.8313    2.4489 C.ar    1  UNL1       -0.0427
      3 C          -3.1966    0.8233    2.6593 C.ar    1  UNL1       -0.0575
      4 C          -4.1413    0.5122    1.7409 C.ar    1  UNL1       -0.0494
      5 C          -3.7452    0.1591    0.4407 C.ar    1  UNL1        0.0373
      6 C          -2.3616    0.1678    0.2288 C.ar    1  UNL1       -0.0417
      7 C          -1.4226    0.4821    1.1592 C.ar    1  UNL1       -0.0143
      8 C          -0.0129    0.4530    0.8067 C.ar    1  UNL1       -0.0176
      9 C           0.3343   -0.7014    0.0949 C.ar    1  UNL1       -0.0533
     10 C           1.6337   -0.9519   -0.3522 C.ar    1  UNL1       -0.0491
     11 C           2.6023   -0.0013   -0.0660 C.ar    1  UNL1        0.0367
     12 C           2.2711    1.1242    0.6261 C.ar    1  UNL1       -0.0491
     13 C           0.9878    1.3670    1.0654 C.ar    1  UNL1       -0.0533
     14 C           3.9620   -0.2797   -0.5437 C.2     1  UNL1        0.2441
     15 O           4.1805   -1.3387   -1.1819 O.2     1  UNL1       -0.2702
     16 N           5.0356    0.6339   -0.2937 N.am    1  UNL1       -0.3111
     17 C           6.3795    0.3310   -0.7816 C.3     1  UNL1        0.0147
     18 C           6.8873   -0.9587   -0.1908 C.3     1  UNL1       -0.0254
     19 C           8.2475   -1.4320   -0.5694 C.3     1  UNL1       -0.0485
     20 C           8.0306   -0.8596    0.8116 C.3     1  UNL1       -0.0485
     21 C          -4.5863   -0.1993   -0.6873 C.2     1  UNL1        0.2443
     22 O          -4.0904   -0.5207   -1.8216 O.2     1  UNL1       -0.2702
     23 N          -5.9824   -0.2415   -0.6991 N.am    1  UNL1       -0.3085
     24 C          -6.7792   -0.6042   -1.8547 C.3     1  UNL1        0.0235
     25 C          -7.9106    0.4102   -2.0921 C.3     1  UNL1       -0.0328
     26 C          -8.1772   -1.0180   -1.7723 C.3     1  UNL1       -0.0328
     27 H           0.0822    0.6725    3.3447 H       1  UNL1        0.0278
     28 H          -0.7907    2.3041    3.5240 H       1  UNL1        0.0278
     29 H          -1.3181    0.8220    4.4824 H       1  UNL1        0.0278
     30 H          -3.6001    1.0867    3.6469 H       1  UNL1        0.0621
     31 H          -5.2190    0.4849    1.8334 H       1  UNL1        0.0625
     32 H          -1.9942   -0.1004   -0.7731 H       1  UNL1        0.0631
     33 H          -0.3770   -1.4872   -0.1661 H       1  UNL1        0.0624
     34 H           1.8717   -1.8526   -0.8986 H       1  UNL1        0.0625
     35 H           2.9921    1.8724    0.8616 H       1  UNL1        0.0625
     36 H           0.6488    2.2190    1.6078 H       1  UNL1        0.0624
     37 H           4.8836    1.5188    0.2329 H       1  UNL1        0.1490
     38 H           7.0685    1.1388   -0.4945 H       1  UNL1        0.0465
     39 H           6.3970    0.3170   -1.8969 H       1  UNL1        0.0465
     40 H           6.1394   -1.7607    0.0056 H       1  UNL1        0.0316
     41 H           8.7882   -0.8104   -1.3221 H       1  UNL1        0.0269
     42 H           8.5032   -2.4902   -0.6152 H       1  UNL1        0.0269
     43 H           8.0068   -1.6082    1.6564 H       1  UNL1        0.0269
     44 H           8.4244    0.1344    1.0315 H       1  UNL1        0.0269
     45 H          -6.4978    0.0049    0.1929 H       1  UNL1        0.1493
     46 H          -6.1902   -0.8952   -2.7544 H       1  UNL1        0.0498
     47 H          -7.9461    0.8002   -3.1118 H       1  UNL1        0.0284
     48 H          -8.1199    1.1741   -1.3286 H       1  UNL1        0.0284
     49 H          -8.5949   -1.2898   -0.8015 H       1  UNL1        0.0284
     50 H          -8.5797   -1.6240   -2.6117 H       1  UNL1        0.0284
@<TRIPOS>BOND
     1     1     2    1
     2     2     3   ar
     3     3     4   ar
     4     4     5   ar
     5     5     6   ar
     6     6     7   ar
     7     7     8    1
     8     8     9   ar
     9     9    10   ar
    10    10    11   ar
    11    11    12   ar
    12    12    13   ar
    13    11    14    1
    14    14    15    2
    15    14    16   am
    16    16    17    1
    17    17    18    1
    18    18    19    1
    19    19    20    1
    20     5    21    1
    21    21    22    2
    22    21    23   am
    23    23    24    1
    24    24    25    1
    25    25    26    1
    26     7     2   ar
    27    13     8   ar
    28    20    18    1
    29    26    24    1
    30     1    27    1
    31     1    28    1
    32     1    29    1
    33     3    30    1
    34     4    31    1
    35     6    32    1
    36     9    33    1
    37    10    34    1
    38    12    35    1
    39    13    36    1
    40    16    37    1
    41    17    38    1
    42    17    39    1
    43    18    40    1
    44    19    41    1
    45    19    42    1
    46    20    43    1
    47    20    44    1
    48    23    45    1
    49    24    46    1
    50    25    47    1
    51    25    48    1
    52    26    49    1
    53    26    50    1
