
     RDKit          3D

 50 53  0  0  0  0  0  0  0  0999 V2000
   -0.8848    1.1809    3.5033 C   0  0  0  0  0  0  0  0  0  0  0  0
   -1.8393    0.8313    2.4489 C   0  0  0  0  0  0  0  0  0  0  0  0
   -3.1966    0.8233    2.6593 C   0  0  0  0  0  0  0  0  0  0  0  0
   -4.1413    0.5122    1.7409 C   0  0  0  0  0  0  0  0  0  0  0  0
   -3.7452    0.1591    0.4407 C   0  0  0  0  0  0  0  0  0  0  0  0
   -2.3616    0.1678    0.2288 C   0  0  0  0  0  0  0  0  0  0  0  0
   -1.4226    0.4821    1.1592 C   0  0  0  0  0  0  0  0  0  0  0  0
   -0.0129    0.4530    0.8067 C   0  0  0  0  0  0  0  0  0  0  0  0
    0.3343   -0.7014    0.0949 C   0  0  0  0  0  0  0  0  0  0  0  0
    1.6337   -0.9519   -0.3522 C   0  0  0  0  0  0  0  0  0  0  0  0
    2.6023   -0.0013   -0.0660 C   0  0  0  0  0  0  0  0  0  0  0  0
    2.2711    1.1242    0.6261 C   0  0  0  0  0  0  0  0  0  0  0  0
    0.9878    1.3670    1.0654 C   0  0  0  0  0  0  0  0  0  0  0  0
    3.9620   -0.2797   -0.5437 C   0  0  0  0  0  0  0  0  0  0  0  0
    4.1805   -1.3387   -1.1819 O   0  0  0  0  0  0  0  0  0  0  0  0
    5.0356    0.6339   -0.2937 N   0  0  0  0  0  0  0  0  0  0  0  0
    6.3795    0.3310   -0.7816 C   0  0  0  0  0  0  0  0  0  0  0  0
    6.8873   -0.9587   -0.1908 C   0  0  0  0  0  0  0  0  0  0  0  0
    8.2475   -1.4320   -0.5694 C   0  0  0  0  0  0  0  0  0  0  0  0
    8.0306   -0.8596    0.8116 C   0  0  0  0  0  0  0  0  0  0  0  0
   -4.5863   -0.1993   -0.6873 C   0  0  0  0  0  0  0  0  0  0  0  0
   -4.0904   -0.5207   -1.8216 O   0  0  0  0  0  0  0  0  0  0  0  0
   -5.9824   -0.2415   -0.6991 N   0  0  0  0  0  0  0  0  0  0  0  0
   -6.7792   -0.6042   -1.8547 C   0  0  0  0  0  0  0  0  0  0  0  0
   -7.9106    0.4102   -2.0921 C   0  0  0  0  0  0  0  0  0  0  0  0
   -8.1772   -1.0180   -1.7723 C   0  0  0  0  0  0  0  0  0  0  0  0
    0.0822    0.6725    3.3447 H   0  0  0  0  0  0  0  0  0  0  0  0
   -0.7907    2.3041    3.5240 H   0  0  0  0  0  0  0  0  0  0  0  0
   -1.3181    0.8220    4.4824 H   0  0  0  0  0  0  0  0  0  0  0  0
   -3.6001    1.0867    3.6469 H   0  0  0  0  0  0  0  0  0  0  0  0
   -5.2190    0.4849    1.8334 H   0  0  0  0  0  0  0  0  0  0  0  0
   -1.9942   -0.1004   -0.7731 H   0  0  0  0  0  0  0  0  0  0  0  0
   -0.3770   -1.4872   -0.1661 H   0  0  0  0  0  0  0  0  0  0  0  0
    1.8717   -1.8526   -0.8986 H   0  0  0  0  0  0  0  0  0  0  0  0
    2.9921    1.8724    0.8616 H   0  0  0  0  0  0  0  0  0  0  0  0
    0.6488    2.2190    1.6078 H   0  0  0  0  0  0  0  0  0  0  0  0
    4.8836    1.5188    0.2329 H   0  0  0  0  0  0  0  0  0  0  0  0
    7.0685    1.1388   -0.4945 H   0  0  0  0  0  0  0  0  0  0  0  0
    6.3970    0.3170   -1.8969 H   0  0  0  0  0  0  0  0  0  0  0  0
    6.1394   -1.7607    0.0056 H   0  0  0  0  0  0  0  0  0  0  0  0
    8.7882   -0.8104   -1.3221 H   0  0  0  0  0  0  0  0  0  0  0  0
    8.5032   -2.4902   -0.6152 H   0  0  0  0  0  0  0  0  0  0  0  0
    8.0068   -1.6082    1.6564 H   0  0  0  0  0  0  0  0  0  0  0  0
    8.4244    0.1344    1.0315 H   0  0  0  0  0  0  0  0  0  0  0  0
   -6.4978    0.0049    0.1929 H   0  0  0  0  0  0  0  0  0  0  0  0
   -6.1902   -0.8952   -2.7544 H   0  0  0  0  0  0  0  0  0  0  0  0
   -7.9461    0.8002   -3.1118 H   0  0  0  0  0  0  0  0  0  0  0  0
   -8.1199    1.1741   -1.3286 H   0  0  0  0  0  0  0  0  0  0  0  0
   -8.5949   -1.2898   -0.8015 H   0  0  0  0  0  0  0  0  0  0  0  0
   -8.5797   -1.6240   -2.6117 H   0  0  0  0  0  0  0  0  0  0  0  0
  1  2  1  0
  2  3  2  0
  3  4  1  0
  4  5  2  0
  5  6  1  0
  6  7  2  0
  7  8  1  0
  8  9  2  0
  9 10  1  0
 10 11  2  0
 11 12  1  0
 12 13  2  0
 11 14  1  0
 14 15  2  0
 14 16  1  0
 16 17  1  0
 17 18  1  0
 18 19  1  0
 19 20  1  0
  5 21  1  0
 21 22  2  0
 21 23  1  0
 23 24  1  0
 24 25  1  0
 25 26  1  0
  7  2  1  0
 13  8  1  0
 20 18  1  0
 26 24  1  0
  1 27  1  0
  1 28  1  0
  1 29  1  0
  3 30  1  0
  4 31  1  0
  6 32  1  0
  9 33  1  0
 10 34  1  0
 12 35  1  0
 13 36  1  0
 16 37  1  0
 17 38  1  0
 17 39  1  0
 18 40  1  0
 19 41  1  0
 19 42  1  0
 20 43  1  0
 20 44  1  0
 23 45  1  0
 24 46  1  0
 25 47  1  0
 25 48  1  0
 26 49  1  0
 26 50  1  0
M  END
$$$$
