@<TRIPOS>MOLECULE
*****
 43 44 0 0 0
SMALL
GASTEIGER

@<TRIPOS>ATOM
      1 C           0.1442   -0.3939   -2.2364 C.3     1  UNL1       -0.0463
      2 C           0.2025   -1.0878   -0.9255 C.3     1  UNL1        0.0420
      3 C           1.2968   -0.5437   -0.0778 C.3     1  UNL1        0.1048
      4 O           2.5441   -0.6238   -0.7735 O.3     1  UNL1       -0.4904
      5 C           3.7002   -0.1653   -0.1385 C.ar    1  UNL1        0.1206
      6 C           4.8237   -0.3024   -0.9321 C.ar    1  UNL1       -0.0199
      7 C           6.0654    0.1005   -0.4631 C.ar    1  UNL1       -0.0583
      8 C           6.0761    0.6351    0.8299 C.ar    1  UNL1       -0.0615
      9 C           4.9549    0.7682    1.6129 C.ar    1  UNL1       -0.0583
     10 C           3.7314    0.3641    1.1342 C.ar    1  UNL1       -0.0199
     11 N          -1.1132   -1.0305   -0.1924 N.3     1  UNL1       -0.2912
     12 C          -2.0715   -1.6980   -0.9403 C.3     1  UNL1        0.0131
     13 C          -3.2923   -2.3082   -0.3710 C.3     1  UNL1        0.0354
     14 CL         -4.4877   -1.3498    0.4237 Cl      1  UNL1       -0.1241
     15 C          -1.2280    0.2151    0.3990 C.3     1  UNL1        0.0245
     16 C          -2.3495    0.8135    1.0364 C.ar    1  UNL1       -0.0334
     17 C          -2.6079    0.6202    2.4022 C.ar    1  UNL1       -0.0573
     18 C          -3.6812    1.2770    2.9648 C.ar    1  UNL1       -0.0615
     19 C          -4.4811    2.1029    2.2046 C.ar    1  UNL1       -0.0617
     20 C          -4.2372    2.3074    0.8399 C.ar    1  UNL1       -0.0615
     21 C          -3.1552    1.6555    0.2357 C.ar    1  UNL1       -0.0573
     22 H           0.3178    0.6936   -2.0669 H       1  UNL1        0.0246
     23 H           0.9869   -0.8325   -2.8534 H       1  UNL1        0.0246
     24 H          -0.7568   -0.6132   -2.8398 H       1  UNL1        0.0246
     25 H           0.3511   -2.1661   -1.0790 H       1  UNL1        0.0493
     26 H           1.4377   -1.0294    0.8984 H       1  UNL1        0.0712
     27 H           1.1364    0.5760    0.0432 H       1  UNL1        0.0712
     28 H           4.8381   -0.7093   -1.9254 H       1  UNL1        0.0654
     29 H           7.0299    0.0644   -0.9468 H       1  UNL1        0.0619
     30 H           7.0041    0.9849    1.3002 H       1  UNL1        0.0618
     31 H           5.0061    1.1885    2.6195 H       1  UNL1        0.0619
     32 H           2.8020    0.4354    1.6837 H       1  UNL1        0.0654
     33 H          -1.5273   -2.5640   -1.4575 H       1  UNL1        0.0438
     34 H          -2.4202   -1.1173   -1.8585 H       1  UNL1        0.0438
     35 H          -3.0327   -3.1907    0.3069 H       1  UNL1        0.0442
     36 H          -3.8181   -2.8483   -1.2438 H       1  UNL1        0.0442
     37 H          -0.7871    1.0077   -0.3116 H       1  UNL1        0.0476
     38 H          -0.3872    0.2337    1.2119 H       1  UNL1        0.0476
     39 H          -1.9620   -0.0346    2.9693 H       1  UNL1        0.0621
     40 H          -3.9113    1.1576    4.0000 H       1  UNL1        0.0618
     41 H          -5.3452    2.6583    2.5599 H       1  UNL1        0.0618
     42 H          -4.8657    2.9622    0.2155 H       1  UNL1        0.0618
     43 H          -2.9309    1.7870   -0.8171 H       1  UNL1        0.0621
@<TRIPOS>BOND
     1     1     2    1
     2     2     3    1
     3     3     4    1
     4     4     5    1
     5     5     6   ar
     6     6     7   ar
     7     7     8   ar
     8     8     9   ar
     9     9    10   ar
    10     2    11    1
    11    11    12    1
    12    12    13    1
    13    13    14    1
    14    11    15    1
    15    15    16    1
    16    16    17   ar
    17    17    18   ar
    18    18    19   ar
    19    19    20   ar
    20    20    21   ar
    21    10     5   ar
    22    21    16   ar
    23     1    22    1
    24     1    23    1
    25     1    24    1
    26     2    25    1
    27     3    26    1
    28     3    27    1
    29     6    28    1
    30     7    29    1
    31     8    30    1
    32     9    31    1
    33    10    32    1
    34    12    33    1
    35    12    34    1
    36    13    35    1
    37    13    36    1
    38    15    37    1
    39    15    38    1
    40    17    39    1
    41    18    40    1
    42    19    41    1
    43    20    42    1
    44    21    43    1
