@<TRIPOS>MOLECULE
*****
 49 50 0 0 0
SMALL
GASTEIGER

@<TRIPOS>ATOM
      1 C          -8.1781    1.3091    0.7326 C.3     1  UNL1        0.0031
      2 N          -7.0474    0.5581    0.2289 N.am    1  UNL1       -0.3036
      3 C          -7.1170   -0.7147   -0.4409 C.3     1  UNL1        0.0031
      4 C          -5.7516    1.1210    0.4057 C.2     1  UNL1        0.2461
      5 O          -5.3172    2.1689    0.9196 O.2     1  UNL1       -0.2700
      6 C          -4.5283    0.4729   -0.0511 C.ar    1  UNL1        0.0370
      7 C          -3.9980   -0.4318    0.8677 C.ar    1  UNL1       -0.0478
      8 C          -2.8294   -1.1038    0.5281 C.ar    1  UNL1       -0.0358
      9 C          -2.1796   -0.9093   -0.6770 C.ar    1  UNL1        0.0936
     10 C          -2.7248   -0.0096   -1.5664 C.ar    1  UNL1       -0.0358
     11 C          -3.8832    0.6649   -1.2443 C.ar    1  UNL1       -0.0478
     12 S          -0.7303   -1.8307   -0.9296 S.O2    1  UNL1        0.0251
     13 O          -0.6056   -2.2690   -2.3826 O.2     1  UNL1       -0.1643
     14 O          -0.7884   -3.1244   -0.1427 O.2     1  UNL1       -0.1643
     15 C           0.7174   -0.9649   -0.4390 C.ar    1  UNL1        0.0951
     16 C           1.3990   -0.3145   -1.4763 C.ar    1  UNL1       -0.0346
     17 C           2.5522    0.3825   -1.0934 C.ar    1  UNL1       -0.0372
     18 C           2.9211    0.3781    0.2328 C.ar    1  UNL1        0.0521
     19 N           4.1207    1.1177    0.4680 N.am    1  UNL1       -0.2817
     20 C           5.1571    0.1580    0.4033 C.2     1  UNL1        0.2577
     21 O           4.9163   -1.0810    0.1756 O.2     1  UNL1       -0.2720
     22 C           6.6407    0.1173    0.5337 C.3     1  UNL1        0.2342
     23 C           7.0398    0.7054    1.8615 C.3     1  UNL1       -0.0187
     24 O           7.0878   -1.2209    0.4138 O.3     1  UNL1       -0.3725
     25 C           7.3488    0.8787   -0.5664 C.3     1  UNL1        0.4266
     26 F           8.7130    0.7659   -0.3310 F       1  UNL1       -0.1671
     27 F           6.9833    2.1893   -0.6312 F       1  UNL1       -0.1671
     28 F           7.0972    0.2768   -1.7951 F       1  UNL1       -0.1671
     29 C           2.2319   -0.2707    1.2343 C.ar    1  UNL1        0.0639
     30 CL          2.8213   -0.1908    2.8836 Cl      1  UNL1       -0.0816
     31 C           1.0930   -0.9653    0.8909 C.ar    1  UNL1       -0.0163
     32 H          -8.9965    1.2803   -0.0342 H       1  UNL1        0.0428
     33 H          -8.5687    0.8544    1.6891 H       1  UNL1        0.0428
     34 H          -7.9087    2.3477    0.9475 H       1  UNL1        0.0428
     35 H          -6.1380   -1.2298   -0.4143 H       1  UNL1        0.0428
     36 H          -7.9110   -1.3603    0.0348 H       1  UNL1        0.0428
     37 H          -7.4200   -0.6086   -1.5121 H       1  UNL1        0.0428
     38 H          -4.4525   -0.6343    1.8281 H       1  UNL1        0.0626
     39 H          -2.4387   -1.8109    1.2751 H       1  UNL1        0.0637
     40 H          -2.2145    0.1403   -2.5059 H       1  UNL1        0.0637
     41 H          -4.3345    1.3742   -1.9125 H       1  UNL1        0.0626
     42 H           1.0698   -0.3404   -2.4983 H       1  UNL1        0.0637
     43 H           3.0729    0.8795   -1.8858 H       1  UNL1        0.0637
     44 H           4.5959    2.0251    0.6647 H       1  UNL1        0.1549
     45 H           8.0478    0.2892    2.1376 H       1  UNL1        0.0265
     46 H           7.0869    1.7982    1.7915 H       1  UNL1        0.0265
     47 H           6.3062    0.3974    2.6498 H       1  UNL1        0.0265
     48 H           6.5161   -1.7793    1.0041 H       1  UNL1        0.2111
     49 H           0.5258   -1.4857    1.6350 H       1  UNL1        0.0652
@<TRIPOS>BOND
     1     1     2    1
     2     2     3    1
     3     2     4   am
     4     4     5    2
     5     4     6    1
     6     6     7   ar
     7     7     8   ar
     8     8     9   ar
     9     9    10   ar
    10    10    11   ar
    11     9    12    1
    12    12    13    2
    13    12    14    2
    14    12    15    1
    15    15    16   ar
    16    16    17   ar
    17    17    18   ar
    18    18    19    1
    19    19    20   am
    20    20    21    2
    21    20    22    1
    22    22    23    1
    23    22    24    1
    24    22    25    1
    25    25    26    1
    26    25    27    1
    27    25    28    1
    28    18    29   ar
    29    29    30    1
    30    29    31   ar
    31    11     6   ar
    32    31    15   ar
    33     1    32    1
    34     1    33    1
    35     1    34    1
    36     3    35    1
    37     3    36    1
    38     3    37    1
    39     7    38    1
    40     8    39    1
    41    10    40    1
    42    11    41    1
    43    16    42    1
    44    17    43    1
    45    19    44    1
    46    23    45    1
    47    23    46    1
    48    23    47    1
    49    24    48    1
    50    31    49    1
