@<TRIPOS>MOLECULE
*****
 48 51 0 0 0
SMALL
GASTEIGER

@<TRIPOS>ATOM
      1 C           2.4485    1.3687   -1.7039 C.3     1  UNL1       -0.0112
      2 C           2.2532    0.2742   -0.6643 C.3     1  UNL1        0.1961
      3 C           0.9091   -0.2625   -0.7576 C.ar    1  UNL1        0.0420
      4 C          -0.0010   -0.1725    0.2734 C.ar    1  UNL1       -0.0301
      5 C          -1.2956   -0.6944    0.1720 C.ar    1  UNL1        0.0330
      6 N          -2.2212   -0.6000    1.2275 N.pl3   1  UNL1       -0.2976
      7 C          -3.5255   -1.1375    1.0970 C.ar    1  UNL1        0.1523
      8 N          -3.7758   -2.4285    1.4606 N.ar    1  UNL1       -0.2184
      9 C          -4.9997   -2.9546    1.3453 C.ar    1  UNL1        0.1188
     10 N          -6.0352   -2.2511    0.8719 N.ar    1  UNL1       -0.2337
     11 C          -5.8582   -0.9811    0.4980 C.ar    1  UNL1        0.0957
     12 C          -6.9504   -0.2902    0.0154 C.ar    1  UNL1       -0.0142
     13 C          -6.7497    1.0219   -0.3667 C.ar    1  UNL1        0.0611
     14 CL         -8.0882    1.9789   -0.9942 Cl      1  UNL1       -0.0819
     15 C          -5.4778    1.5522   -0.2415 C.ar    1  UNL1        0.0468
     16 N          -4.4349    0.8403    0.2363 N.ar    1  UNL1       -0.2485
     17 C          -4.6004   -0.4257    0.6117 C.ar    1  UNL1        0.1291
     18 C          -1.6756   -1.3190   -0.9947 C.ar    1  UNL1       -0.0378
     19 C          -0.7891   -1.4204   -2.0320 C.ar    1  UNL1       -0.0243
     20 C           0.4882   -0.8949   -1.9066 C.ar    1  UNL1        0.1311
     21 F           1.3254   -1.0118   -2.9378 F       1  UNL1       -0.2050
     22 C           3.3346   -0.7906   -0.8146 C.3     1  UNL1        0.1212
     23 S           4.8576    0.1220   -0.8600 S.O2    1  UNL1        0.0192
     24 O           5.9824   -0.8694   -0.7382 O.2     1  UNL1       -0.1706
     25 O           5.0437    0.8285   -2.1684 O.2     1  UNL1       -0.1706
     26 C           4.7825    1.2328    0.5028 C.3     1  UNL1        0.3220
     27 C           5.7796    0.6890    1.5453 C.3     1  UNL1        0.0013
     28 F           5.2792    2.4869    0.1857 F       1  UNL1       -0.2044
     29 C           3.4795    1.2971    1.1706 C.2     1  UNL1        0.3390
     30 N           3.4094    1.8692    2.5033 N.pl3   1  UNL1       -0.2465
     31 N           2.4208    0.8723    0.6277 N.2     1  UNL1       -0.0700
     32 H           3.0977    2.1779   -1.3679 H       1  UNL1        0.0279
     33 H           1.4568    1.8529   -1.9471 H       1  UNL1        0.0279
     34 H           2.7642    0.9055   -2.6732 H       1  UNL1        0.0279
     35 H           0.2944    0.3154    1.1861 H       1  UNL1        0.0641
     36 H          -2.0028   -0.1400    2.1420 H       1  UNL1        0.1536
     37 H          -5.1689   -3.9968    1.6465 H       1  UNL1        0.1048
     38 H          -7.9364   -0.7167   -0.0766 H       1  UNL1        0.0654
     39 H          -5.3778    2.5951   -0.5593 H       1  UNL1        0.0844
     40 H          -2.6657   -1.7450   -1.1368 H       1  UNL1        0.0637
     41 H          -1.0623   -1.9092   -2.9666 H       1  UNL1        0.0647
     42 H           3.3796   -1.3517    0.1625 H       1  UNL1        0.0551
     43 H           3.1913   -1.4370   -1.6728 H       1  UNL1        0.0551
     44 H           5.6013    1.1054    2.5345 H       1  UNL1        0.0283
     45 H           6.8119    0.7605    1.1760 H       1  UNL1        0.0283
     46 H           5.5455   -0.4091    1.6046 H       1  UNL1        0.0283
     47 H           3.5302    2.8641    2.6977 H       1  UNL1        0.2882
     48 H           3.2257    1.1987    3.2678 H       1  UNL1        0.2882
@<TRIPOS>BOND
     1     2     1    1
     2     2     3    1
     3     3     4   ar
     4     4     5   ar
     5     5     6    1
     6     6     7    1
     7     7     8   ar
     8     8     9   ar
     9     9    10   ar
    10    10    11   ar
    11    11    12   ar
    12    12    13   ar
    13    13    14    1
    14    13    15   ar
    15    15    16   ar
    16    16    17   ar
    17     5    18   ar
    18    18    19   ar
    19    19    20   ar
    20    20    21    1
    21     2    22    1
    22    22    23    1
    23    23    24    2
    24    23    25    2
    25    23    26    1
    26    26    27    1
    27    26    28    1
    28    26    29    1
    29    29    30    1
    30    29    31    2
    31    31     2    1
    32    20     3   ar
    33    17     7   ar
    34    17    11   ar
    35     1    32    1
    36     1    33    1
    37     1    34    1
    38     4    35    1
    39     6    36    1
    40     9    37    1
    41    12    38    1
    42    15    39    1
    43    18    40    1
    44    19    41    1
    45    22    42    1
    46    22    43    1
    47    27    44    1
    48    27    45    1
    49    27    46    1
    50    30    47    1
    51    30    48    1
