@<TRIPOS>MOLECULE
*****
 70 73 0 0 0
SMALL
GASTEIGER

@<TRIPOS>ATOM
      1 C           6.8113   -0.4772    2.6673 C.3     1  UNL1       -0.0397
      2 C           5.5366   -0.1856    1.9893 C.ar    1  UNL1       -0.0504
      3 C           5.4343   -0.1730    0.6253 C.ar    1  UNL1       -0.0581
      4 C           4.1994    0.1247   -0.0061 C.ar    1  UNL1       -0.0494
      5 C           3.1151    0.3962    0.7554 C.ar    1  UNL1        0.0369
      6 C           1.7817    0.7545    0.2367 C.2     1  UNL1        0.2472
      7 O           1.4171    1.9509    0.4816 O.2     1  UNL1       -0.2700
      8 N           0.9332   -0.0889   -0.4613 N.am    1  UNL1       -0.2872
      9 C           1.3153   -1.4355   -0.8125 C.3     1  UNL1        0.0169
     10 C           1.8709   -1.5853   -2.1798 C.3     1  UNL1       -0.0247
     11 C           2.2821   -3.0125   -2.4883 C.3     1  UNL1       -0.0055
     12 N           2.7928   -3.0400   -3.8505 N.3     1  UNL1       -0.3299
     13 C          -0.4675    0.2532   -0.8343 C.3     1  UNL1        0.0867
     14 C          -1.2200    0.2406    0.4736 C.ar    1  UNL1        0.1342
     15 N          -0.7090    0.9339    1.4923 N.ar    1  UNL1       -0.2315
     16 C          -1.1975    0.9742    2.7173 C.ar    1  UNL1        0.0796
     17 C          -0.5714    1.7162    3.6892 C.ar    1  UNL1       -0.0172
     18 C          -1.0727    1.7536    5.0004 C.ar    1  UNL1        0.0430
     19 CL         -0.2777    2.6829    6.2696 Cl      1  UNL1       -0.0835
     20 C          -2.2087    1.0160    5.2457 C.ar    1  UNL1       -0.0425
     21 C          -2.8346    0.2655    4.2437 C.ar    1  UNL1       -0.0460
     22 C          -2.3318    0.2409    2.9728 C.ar    1  UNL1        0.0650
     23 C          -2.8736   -0.4767    1.9431 C.ar    1  UNL1        0.2621
     24 O          -3.9075   -1.1420    2.1955 O.2     1  UNL1       -0.2669
     25 N          -2.3146   -0.4778    0.6797 N.ar    1  UNL1       -0.2903
     26 C          -2.9732   -1.2635   -0.2990 C.3     1  UNL1        0.0528
     27 C          -4.0040   -0.5813   -1.1097 C.ar    1  UNL1       -0.0276
     28 C          -4.1457   -0.9078   -2.4482 C.ar    1  UNL1       -0.0569
     29 C          -5.0838   -0.2713   -3.2297 C.ar    1  UNL1       -0.0614
     30 C          -5.8804    0.6983   -2.6545 C.ar    1  UNL1       -0.0617
     31 C          -5.7645    1.0454   -1.3271 C.ar    1  UNL1       -0.0614
     32 C          -4.8029    0.3804   -0.5632 C.ar    1  UNL1       -0.0569
     33 C          -0.4744    1.5894   -1.4627 C.3     1  UNL1       -0.0210
     34 C           0.4656    1.6884   -2.6725 C.3     1  UNL1       -0.0606
     35 C          -1.8853    1.8909   -2.0518 C.3     1  UNL1       -0.0606
     36 C           3.2489    0.3745    2.1449 C.ar    1  UNL1       -0.0494
     37 C           4.4338    0.0916    2.7562 C.ar    1  UNL1       -0.0581
     38 H           7.4578    0.4164    2.6216 H       1  UNL1        0.0278
     39 H           6.6635   -0.7313    3.7301 H       1  UNL1        0.0278
     40 H           7.3312   -1.3329    2.1820 H       1  UNL1        0.0278
     41 H           6.2956   -0.3866    0.0167 H       1  UNL1        0.0620
     42 H           4.1536    0.1413   -1.0807 H       1  UNL1        0.0625
     43 H           2.1076   -1.7626   -0.0859 H       1  UNL1        0.0465
     44 H           0.4514   -2.1512   -0.6301 H       1  UNL1        0.0465
     45 H           1.0287   -1.3822   -2.9198 H       1  UNL1        0.0293
     46 H           2.6717   -0.9243   -2.4749 H       1  UNL1        0.0293
     47 H           3.1349   -3.3230   -1.8407 H       1  UNL1        0.0422
     48 H           1.4129   -3.6836   -2.4287 H       1  UNL1        0.0422
     49 H           3.5547   -2.3516   -4.0124 H       1  UNL1        0.1182
     50 H           2.0356   -2.7669   -4.5433 H       1  UNL1        0.1182
     51 H          -0.8213   -0.5509   -1.4687 H       1  UNL1        0.0584
     52 H           0.3183    2.3061    3.5192 H       1  UNL1        0.0653
     53 H          -2.5988    1.0372    6.2705 H       1  UNL1        0.0632
     54 H          -3.7143   -0.2942    4.4740 H       1  UNL1        0.0626
     55 H          -2.2848   -1.8548   -0.9472 H       1  UNL1        0.0543
     56 H          -3.5453   -2.0797    0.2359 H       1  UNL1        0.0543
     57 H          -3.5222   -1.6624   -2.8835 H       1  UNL1        0.0621
     58 H          -5.2225   -0.4963   -4.2733 H       1  UNL1        0.0618
     59 H          -6.6191    1.1909   -3.2871 H       1  UNL1        0.0618
     60 H          -6.3907    1.8155   -0.8516 H       1  UNL1        0.0618
     61 H          -4.7140    0.6637    0.4634 H       1  UNL1        0.0621
     62 H          -0.2878    2.4601   -0.8341 H       1  UNL1        0.0318
     63 H           1.3978    1.1559   -2.4435 H       1  UNL1        0.0233
     64 H          -0.0040    1.3040   -3.5794 H       1  UNL1        0.0233
     65 H           0.7076    2.7572   -2.8747 H       1  UNL1        0.0233
     66 H          -1.7929    2.7360   -2.7770 H       1  UNL1        0.0233
     67 H          -2.6132    2.1210   -1.3056 H       1  UNL1        0.0233
     68 H          -2.1226    1.0117   -2.6721 H       1  UNL1        0.0233
     69 H           2.3844    0.5838    2.7310 H       1  UNL1        0.0625
     70 H           4.5088    0.0900    3.8416 H       1  UNL1        0.0620
@<TRIPOS>BOND
     1     1     2    1
     2     2     3   ar
     3     3     4   ar
     4     4     5   ar
     5     5     6    1
     6     6     7    2
     7     6     8   am
     8     8     9    1
     9     9    10    1
    10    10    11    1
    11    11    12    1
    12     8    13    1
    13    13    14    1
    14    14    15   ar
    15    15    16   ar
    16    16    17   ar
    17    17    18   ar
    18    18    19    1
    19    18    20   ar
    20    20    21   ar
    21    21    22   ar
    22    22    23   ar
    23    23    24    2
    24    23    25   ar
    25    25    26    1
    26    26    27    1
    27    27    28   ar
    28    28    29   ar
    29    29    30   ar
    30    30    31   ar
    31    31    32   ar
    32    13    33    1
    33    33    34    1
    34    33    35    1
    35     5    36   ar
    36    36    37   ar
    37    37     2   ar
    38    25    14   ar
    39    32    27   ar
    40    22    16   ar
    41     1    38    1
    42     1    39    1
    43     1    40    1
    44     3    41    1
    45     4    42    1
    46     9    43    1
    47     9    44    1
    48    10    45    1
    49    10    46    1
    50    11    47    1
    51    11    48    1
    52    12    49    1
    53    12    50    1
    54    13    51    1
    55    17    52    1
    56    20    53    1
    57    21    54    1
    58    26    55    1
    59    26    56    1
    60    28    57    1
    61    29    58    1
    62    30    59    1
    63    31    60    1
    64    32    61    1
    65    33    62    1
    66    34    63    1
    67    34    64    1
    68    34    65    1
    69    35    66    1
    70    35    67    1
    71    35    68    1
    72    36    69    1
    73    37    70    1
