
     RDKit          3D

 70 73  0  0  0  0  0  0  0  0999 V2000
    6.8113   -0.4772    2.6673 C   0  0  0  0  0  0  0  0  0  0  0  0
    5.5366   -0.1856    1.9893 C   0  0  0  0  0  0  0  0  0  0  0  0
    5.4343   -0.1730    0.6253 C   0  0  0  0  0  0  0  0  0  0  0  0
    4.1994    0.1247   -0.0061 C   0  0  0  0  0  0  0  0  0  0  0  0
    3.1151    0.3962    0.7554 C   0  0  0  0  0  0  0  0  0  0  0  0
    1.7817    0.7545    0.2367 C   0  0  0  0  0  0  0  0  0  0  0  0
    1.4171    1.9509    0.4816 O   0  0  0  0  0  0  0  0  0  0  0  0
    0.9332   -0.0889   -0.4613 N   0  0  0  0  0  0  0  0  0  0  0  0
    1.3153   -1.4355   -0.8125 C   0  0  0  0  0  0  0  0  0  0  0  0
    1.8709   -1.5853   -2.1798 C   0  0  0  0  0  0  0  0  0  0  0  0
    2.2821   -3.0125   -2.4883 C   0  0  0  0  0  0  0  0  0  0  0  0
    2.7928   -3.0400   -3.8505 N   0  0  0  0  0  0  0  0  0  0  0  0
   -0.4675    0.2532   -0.8343 C   0  0  1  0  0  0  0  0  0  0  0  0
   -1.2200    0.2406    0.4736 C   0  0  0  0  0  0  0  0  0  0  0  0
   -0.7090    0.9339    1.4923 N   0  0  0  0  0  0  0  0  0  0  0  0
   -1.1975    0.9742    2.7173 C   0  0  0  0  0  0  0  0  0  0  0  0
   -0.5714    1.7162    3.6892 C   0  0  0  0  0  0  0  0  0  0  0  0
   -1.0727    1.7536    5.0004 C   0  0  0  0  0  0  0  0  0  0  0  0
   -0.2777    2.6829    6.2696 Cl  0  0  0  0  0  0  0  0  0  0  0  0
   -2.2087    1.0160    5.2457 C   0  0  0  0  0  0  0  0  0  0  0  0
   -2.8346    0.2655    4.2437 C   0  0  0  0  0  0  0  0  0  0  0  0
   -2.3318    0.2409    2.9728 C   0  0  0  0  0  0  0  0  0  0  0  0
   -2.8736   -0.4767    1.9431 C   0  0  0  0  0  0  0  0  0  0  0  0
   -3.9075   -1.1420    2.1955 O   0  0  0  0  0  0  0  0  0  0  0  0
   -2.3146   -0.4778    0.6797 N   0  0  0  0  0  0  0  0  0  0  0  0
   -2.9732   -1.2635   -0.2990 C   0  0  0  0  0  0  0  0  0  0  0  0
   -4.0040   -0.5813   -1.1097 C   0  0  0  0  0  0  0  0  0  0  0  0
   -4.1457   -0.9078   -2.4482 C   0  0  0  0  0  0  0  0  0  0  0  0
   -5.0838   -0.2713   -3.2297 C   0  0  0  0  0  0  0  0  0  0  0  0
   -5.8804    0.6983   -2.6545 C   0  0  0  0  0  0  0  0  0  0  0  0
   -5.7645    1.0454   -1.3271 C   0  0  0  0  0  0  0  0  0  0  0  0
   -4.8029    0.3804   -0.5632 C   0  0  0  0  0  0  0  0  0  0  0  0
   -0.4744    1.5894   -1.4627 C   0  0  0  0  0  0  0  0  0  0  0  0
    0.4656    1.6884   -2.6725 C   0  0  0  0  0  0  0  0  0  0  0  0
   -1.8853    1.8909   -2.0518 C   0  0  0  0  0  0  0  0  0  0  0  0
    3.2489    0.3745    2.1449 C   0  0  0  0  0  0  0  0  0  0  0  0
    4.4338    0.0916    2.7562 C   0  0  0  0  0  0  0  0  0  0  0  0
    7.4578    0.4164    2.6216 H   0  0  0  0  0  0  0  0  0  0  0  0
    6.6635   -0.7313    3.7301 H   0  0  0  0  0  0  0  0  0  0  0  0
    7.3312   -1.3329    2.1820 H   0  0  0  0  0  0  0  0  0  0  0  0
    6.2956   -0.3866    0.0167 H   0  0  0  0  0  0  0  0  0  0  0  0
    4.1536    0.1413   -1.0807 H   0  0  0  0  0  0  0  0  0  0  0  0
    2.1076   -1.7626   -0.0859 H   0  0  0  0  0  0  0  0  0  0  0  0
    0.4514   -2.1512   -0.6301 H   0  0  0  0  0  0  0  0  0  0  0  0
    1.0287   -1.3822   -2.9198 H   0  0  0  0  0  0  0  0  0  0  0  0
    2.6717   -0.9243   -2.4749 H   0  0  0  0  0  0  0  0  0  0  0  0
    3.1349   -3.3230   -1.8407 H   0  0  0  0  0  0  0  0  0  0  0  0
    1.4129   -3.6836   -2.4287 H   0  0  0  0  0  0  0  0  0  0  0  0
    3.5547   -2.3516   -4.0124 H   0  0  0  0  0  0  0  0  0  0  0  0
    2.0356   -2.7669   -4.5433 H   0  0  0  0  0  0  0  0  0  0  0  0
   -0.8213   -0.5509   -1.4687 H   0  0  0  0  0  0  0  0  0  0  0  0
    0.3183    2.3061    3.5192 H   0  0  0  0  0  0  0  0  0  0  0  0
   -2.5988    1.0372    6.2705 H   0  0  0  0  0  0  0  0  0  0  0  0
   -3.7143   -0.2942    4.4740 H   0  0  0  0  0  0  0  0  0  0  0  0
   -2.2848   -1.8548   -0.9472 H   0  0  0  0  0  0  0  0  0  0  0  0
   -3.5453   -2.0797    0.2359 H   0  0  0  0  0  0  0  0  0  0  0  0
   -3.5222   -1.6624   -2.8835 H   0  0  0  0  0  0  0  0  0  0  0  0
   -5.2225   -0.4963   -4.2733 H   0  0  0  0  0  0  0  0  0  0  0  0
   -6.6191    1.1909   -3.2871 H   0  0  0  0  0  0  0  0  0  0  0  0
   -6.3907    1.8155   -0.8516 H   0  0  0  0  0  0  0  0  0  0  0  0
   -4.7140    0.6637    0.4634 H   0  0  0  0  0  0  0  0  0  0  0  0
   -0.2878    2.4601   -0.8341 H   0  0  0  0  0  0  0  0  0  0  0  0
    1.3978    1.1559   -2.4435 H   0  0  0  0  0  0  0  0  0  0  0  0
   -0.0040    1.3040   -3.5794 H   0  0  0  0  0  0  0  0  0  0  0  0
    0.7076    2.7572   -2.8747 H   0  0  0  0  0  0  0  0  0  0  0  0
   -1.7929    2.7360   -2.7770 H   0  0  0  0  0  0  0  0  0  0  0  0
   -2.6132    2.1210   -1.3056 H   0  0  0  0  0  0  0  0  0  0  0  0
   -2.1226    1.0117   -2.6721 H   0  0  0  0  0  0  0  0  0  0  0  0
    2.3844    0.5838    2.7310 H   0  0  0  0  0  0  0  0  0  0  0  0
    4.5088    0.0900    3.8416 H   0  0  0  0  0  0  0  0  0  0  0  0
  1  2  1  0
  2  3  2  0
  3  4  1  0
  4  5  2  0
  5  6  1  0
  6  7  2  0
  6  8  1  0
  8  9  1  0
  9 10  1  0
 10 11  1  0
 11 12  1  0
  8 13  1  0
 13 14  1  0
 14 15  2  0
 15 16  1  0
 16 17  2  0
 17 18  1  0
 18 19  1  0
 18 20  2  0
 20 21  1  0
 21 22  2  0
 22 23  1  0
 23 24  2  0
 23 25  1  0
 25 26  1  0
 26 27  1  0
 27 28  2  0
 28 29  1  0
 29 30  2  0
 30 31  1  0
 31 32  2  0
 13 33  1  0
 33 34  1  0
 33 35  1  0
  5 36  1  0
 36 37  2  0
 37  2  1  0
 25 14  1  0
 32 27  1  0
 22 16  1  0
  1 38  1  0
  1 39  1  0
  1 40  1  0
  3 41  1  0
  4 42  1  0
  9 43  1  0
  9 44  1  0
 10 45  1  0
 10 46  1  0
 11 47  1  0
 11 48  1  0
 12 49  1  0
 12 50  1  0
 13 51  1  6
 17 52  1  0
 20 53  1  0
 21 54  1  0
 26 55  1  0
 26 56  1  0
 28 57  1  0
 29 58  1  0
 30 59  1  0
 31 60  1  0
 32 61  1  0
 33 62  1  0
 34 63  1  0
 34 64  1  0
 34 65  1  0
 35 66  1  0
 35 67  1  0
 35 68  1  0
 36 69  1  0
 37 70  1  0
M  END
$$$$
