@<TRIPOS>MOLECULE
*****
 80 82 0 0 0
SMALL
GASTEIGER

@<TRIPOS>ATOM
      1 C           1.6600    4.4314    1.1290 C.3     1  UNL1       -0.0653
      2 C           1.7972    4.6789   -0.3281 C.3     1  UNL1       -0.0558
      3 C           1.0234    3.8128   -1.2217 C.3     1  UNL1       -0.0512
      4 C           1.2460    2.3550   -1.2539 C.3     1  UNL1       -0.0260
      5 C           0.9601    1.5411   -0.0669 C.3     1  UNL1        0.0994
      6 N           1.2648    0.0975   -0.2655 N.am    1  UNL1       -0.3025
      7 C           1.6986   -0.6882    0.8194 C.2     1  UNL1        0.2342
      8 O           1.8273   -0.0280    1.9265 O.2     1  UNL1       -0.2738
      9 C           1.9819   -2.0683    0.8450 C.3     1  UNL1        0.1023
     10 C           2.8077   -2.6405    1.9906 C.3     1  UNL1       -0.0243
     11 C           2.5962   -4.1461    1.7062 C.3     1  UNL1       -0.0350
     12 C           1.9628   -4.2318    0.3131 C.3     1  UNL1        0.0156
     13 N           2.4380   -2.8746   -0.2200 N.am    1  UNL1       -0.2884
     14 C           3.0735   -2.8369   -1.4387 C.2     1  UNL1        0.2362
     15 O           3.0131   -3.9015   -2.1905 O.2     1  UNL1       -0.2736
     16 C           3.8387   -1.7416   -2.0201 C.3     1  UNL1        0.0968
     17 C           5.1380   -2.2972   -2.6449 C.3     1  UNL1       -0.0381
     18 N           4.2746   -0.7165   -1.1036 N.am    1  UNL1       -0.3026
     19 C           4.5417    0.5987   -1.5447 C.2     1  UNL1        0.2420
     20 O           4.4083    0.9133   -2.7740 O.2     1  UNL1       -0.2735
     21 C           4.9884    1.7008   -0.6537 C.3     1  UNL1        0.1942
     22 N           5.1193    1.2688    0.7261 N.2     1  UNL1        0.0857
     23 N           4.9809    2.0711    1.6702 N.2     1  UNL1       -0.0143
     24 N           5.2988    3.0006    2.4235 N.2     1  UNL1       -0.3282
     25 C          -0.5566    1.4879    0.1576 C.2     1  UNL1        0.2339
     26 O          -1.1772    2.5478    0.3582 O.2     1  UNL1       -0.2738
     27 N          -1.2714    0.2827    0.1424 N.am    1  UNL1       -0.3037
     28 C          -2.7412    0.3252    0.3620 C.3     1  UNL1        0.0884
     29 C          -3.3156   -0.1650   -0.9544 C.3     1  UNL1       -0.0022
     30 C          -4.7632   -0.2003   -0.9284 C.ar    1  UNL1       -0.0452
     31 C          -5.4957   -1.3436   -0.6214 C.ar    1  UNL1       -0.0585
     32 C          -6.8662   -1.2483   -0.6313 C.ar    1  UNL1       -0.0615
     33 C          -7.5568   -0.0831   -0.9279 C.ar    1  UNL1       -0.0617
     34 C          -6.8229    1.0462   -1.2310 C.ar    1  UNL1       -0.0615
     35 C          -5.4589    0.9707   -1.2268 C.ar    1  UNL1       -0.0585
     36 C          -3.0966   -0.6093    1.4341 C.2     1  UNL1        0.1871
     37 O          -2.2956   -1.4500    1.7966 O.2     1  UNL1       -0.2923
     38 C          -4.4078   -0.5725    2.1123 C.3     1  UNL1        0.1492
     39 C          -4.9501   -1.8904    2.6727 C.3     1  UNL1       -0.0266
     40 C          -4.4743    0.5412    3.1514 C.3     1  UNL1        0.0847
     41 O          -5.3016    0.4720    1.9438 O.3     1  UNL1       -0.3605
     42 H           1.7602    5.4227    1.7141 H       1  UNL1        0.0230
     43 H           0.6881    4.0575    1.4788 H       1  UNL1        0.0230
     44 H           2.4676    3.8137    1.5836 H       1  UNL1        0.0230
     45 H           2.8757    4.7965   -0.6331 H       1  UNL1        0.0263
     46 H           1.4030    5.7414   -0.4889 H       1  UNL1        0.0263
     47 H           1.1660    4.1736   -2.2951 H       1  UNL1        0.0266
     48 H          -0.0824    4.0614   -1.0658 H       1  UNL1        0.0266
     49 H           0.5244    1.9668   -2.0703 H       1  UNL1        0.0288
     50 H           2.2337    2.1048   -1.7326 H       1  UNL1        0.0288
     51 H           1.3587    1.9050    0.8535 H       1  UNL1        0.0594
     52 H           1.1640   -0.3523   -1.1969 H       1  UNL1        0.1495
     53 H           0.9128   -2.6031    1.1066 H       1  UNL1        0.0597
     54 H           2.4511   -2.3548    2.9774 H       1  UNL1        0.0288
     55 H           3.8599   -2.3533    1.8125 H       1  UNL1        0.0288
     56 H           1.9347   -4.5157    2.4878 H       1  UNL1        0.0281
     57 H           3.5947   -4.5907    1.6671 H       1  UNL1        0.0281
     58 H           2.3287   -5.0343   -0.2942 H       1  UNL1        0.0465
     59 H           0.8768   -4.1748    0.4491 H       1  UNL1        0.0465
     60 H           3.2929   -1.3186   -2.8925 H       1  UNL1        0.0592
     61 H           6.0263   -2.0030   -2.0941 H       1  UNL1        0.0252
     62 H           5.0832   -3.4104   -2.6328 H       1  UNL1        0.0252
     63 H           5.1335   -2.0101   -3.7025 H       1  UNL1        0.0252
     64 H           4.4080   -0.9325   -0.0947 H       1  UNL1        0.1495
     65 H           4.3372    2.5845   -0.6996 H       1  UNL1        0.0676
     66 H           6.0212    2.0271   -0.9698 H       1  UNL1        0.0676
     67 H          -0.8160   -0.6206   -0.0144 H       1  UNL1        0.1495
     68 H          -3.0386    1.3412    0.5936 H       1  UNL1        0.0581
     69 H          -2.9467    0.5031   -1.7645 H       1  UNL1        0.0335
     70 H          -2.9503   -1.2047   -1.1808 H       1  UNL1        0.0335
     71 H          -4.9528   -2.2423   -0.3942 H       1  UNL1        0.0620
     72 H          -7.4613   -2.1318   -0.3952 H       1  UNL1        0.0618
     73 H          -8.6396   -0.0490   -0.9247 H       1  UNL1        0.0618
     74 H          -7.3314    1.9600   -1.4634 H       1  UNL1        0.0618
     75 H          -4.9078    1.8648   -1.4663 H       1  UNL1        0.0620
     76 H          -6.0390   -1.8001    2.6807 H       1  UNL1        0.0262
     77 H          -4.7116   -2.7410    1.9923 H       1  UNL1        0.0262
     78 H          -4.5219   -2.0893    3.6637 H       1  UNL1        0.0262
     79 H          -3.7725    1.3758    3.0682 H       1  UNL1        0.0593
     80 H          -5.1181    0.4220    4.0383 H       1  UNL1        0.0593
@<TRIPOS>UNITY_ATOM_ATTR
23 1
charge 1
24 1
charge -1
@<TRIPOS>BOND
     1     1     2    1
     2     2     3    1
     3     3     4    1
     4     4     5    1
     5     5     6    1
     6     6     7   am
     7     7     8    2
     8     7     9    1
     9     9    10    1
    10    10    11    1
    11    11    12    1
    12    12    13    1
    13    13    14   am
    14    14    15    2
    15    14    16    1
    16    16    17    1
    17    16    18    1
    18    18    19   am
    19    19    20    2
    20    19    21    1
    21    21    22    1
    22    22    23    2
    23    23    24    2
    24     5    25    1
    25    25    26    2
    26    25    27   am
    27    27    28    1
    28    28    29    1
    29    29    30    1
    30    30    31   ar
    31    31    32   ar
    32    32    33   ar
    33    33    34   ar
    34    34    35   ar
    35    28    36    1
    36    36    37    2
    37    36    38    1
    38    38    39    1
    39    38    40    1
    40    40    41    1
    41    13     9    1
    42    35    30   ar
    43    41    38    1
    44     1    42    1
    45     1    43    1
    46     1    44    1
    47     2    45    1
    48     2    46    1
    49     3    47    1
    50     3    48    1
    51     4    49    1
    52     4    50    1
    53     5    51    1
    54     6    52    1
    55     9    53    1
    56    10    54    1
    57    10    55    1
    58    11    56    1
    59    11    57    1
    60    12    58    1
    61    12    59    1
    62    16    60    1
    63    17    61    1
    64    17    62    1
    65    17    63    1
    66    18    64    1
    67    21    65    1
    68    21    66    1
    69    27    67    1
    70    28    68    1
    71    29    69    1
    72    29    70    1
    73    31    71    1
    74    32    72    1
    75    33    73    1
    76    34    74    1
    77    35    75    1
    78    39    76    1
    79    39    77    1
    80    39    78    1
    81    40    79    1
    82    40    80    1
