
     RDKit          3D

 80 82  0  0  0  0  0  0  0  0999 V2000
    1.6600    4.4314    1.1290 C   0  0  0  0  0  0  0  0  0  0  0  0
    1.7972    4.6789   -0.3281 C   0  0  0  0  0  0  0  0  0  0  0  0
    1.0234    3.8128   -1.2217 C   0  0  0  0  0  0  0  0  0  0  0  0
    1.2460    2.3550   -1.2539 C   0  0  0  0  0  0  0  0  0  0  0  0
    0.9601    1.5411   -0.0669 C   0  0  2  0  0  0  0  0  0  0  0  0
    1.2648    0.0975   -0.2655 N   0  0  0  0  0  0  0  0  0  0  0  0
    1.6986   -0.6882    0.8194 C   0  0  0  0  0  0  0  0  0  0  0  0
    1.8273   -0.0280    1.9265 O   0  0  0  0  0  0  0  0  0  0  0  0
    1.9819   -2.0683    0.8450 C   0  0  2  0  0  0  0  0  0  0  0  0
    2.8077   -2.6405    1.9906 C   0  0  0  0  0  0  0  0  0  0  0  0
    2.5962   -4.1461    1.7062 C   0  0  0  0  0  0  0  0  0  0  0  0
    1.9628   -4.2318    0.3131 C   0  0  0  0  0  0  0  0  0  0  0  0
    2.4380   -2.8746   -0.2200 N   0  0  0  0  0  0  0  0  0  0  0  0
    3.0735   -2.8369   -1.4387 C   0  0  0  0  0  0  0  0  0  0  0  0
    3.0131   -3.9015   -2.1905 O   0  0  0  0  0  0  0  0  0  0  0  0
    3.8387   -1.7416   -2.0201 C   0  0  2  0  0  0  0  0  0  0  0  0
    5.1380   -2.2972   -2.6449 C   0  0  0  0  0  0  0  0  0  0  0  0
    4.2746   -0.7165   -1.1036 N   0  0  0  0  0  0  0  0  0  0  0  0
    4.5417    0.5987   -1.5447 C   0  0  0  0  0  0  0  0  0  0  0  0
    4.4083    0.9133   -2.7740 O   0  0  0  0  0  0  0  0  0  0  0  0
    4.9884    1.7008   -0.6537 C   0  0  0  0  0  0  0  0  0  0  0  0
    5.1193    1.2688    0.7261 N   0  0  0  0  0  0  0  0  0  0  0  0
    4.9809    2.0711    1.6702 N   0  0  0  0  0  4  0  0  0  0  0  0
    5.2988    3.0006    2.4235 N   0  0  0  0  0  2  0  0  0  0  0  0
   -0.5566    1.4879    0.1576 C   0  0  0  0  0  0  0  0  0  0  0  0
   -1.1772    2.5478    0.3582 O   0  0  0  0  0  0  0  0  0  0  0  0
   -1.2714    0.2827    0.1424 N   0  0  0  0  0  0  0  0  0  0  0  0
   -2.7412    0.3252    0.3620 C   0  0  1  0  0  0  0  0  0  0  0  0
   -3.3156   -0.1650   -0.9544 C   0  0  0  0  0  0  0  0  0  0  0  0
   -4.7632   -0.2003   -0.9284 C   0  0  0  0  0  0  0  0  0  0  0  0
   -5.4957   -1.3436   -0.6214 C   0  0  0  0  0  0  0  0  0  0  0  0
   -6.8662   -1.2483   -0.6313 C   0  0  0  0  0  0  0  0  0  0  0  0
   -7.5568   -0.0831   -0.9279 C   0  0  0  0  0  0  0  0  0  0  0  0
   -6.8229    1.0462   -1.2310 C   0  0  0  0  0  0  0  0  0  0  0  0
   -5.4589    0.9707   -1.2268 C   0  0  0  0  0  0  0  0  0  0  0  0
   -3.0966   -0.6093    1.4341 C   0  0  0  0  0  0  0  0  0  0  0  0
   -2.2956   -1.4500    1.7966 O   0  0  0  0  0  0  0  0  0  0  0  0
   -4.4078   -0.5725    2.1123 C   0  0  1  0  0  0  0  0  0  0  0  0
   -4.9501   -1.8904    2.6727 C   0  0  0  0  0  0  0  0  0  0  0  0
   -4.4743    0.5412    3.1514 C   0  0  0  0  0  0  0  0  0  0  0  0
   -5.3016    0.4720    1.9438 O   0  0  0  0  0  0  0  0  0  0  0  0
    1.7602    5.4227    1.7141 H   0  0  0  0  0  0  0  0  0  0  0  0
    0.6881    4.0575    1.4788 H   0  0  0  0  0  0  0  0  0  0  0  0
    2.4676    3.8137    1.5836 H   0  0  0  0  0  0  0  0  0  0  0  0
    2.8757    4.7965   -0.6331 H   0  0  0  0  0  0  0  0  0  0  0  0
    1.4030    5.7414   -0.4889 H   0  0  0  0  0  0  0  0  0  0  0  0
    1.1660    4.1736   -2.2951 H   0  0  0  0  0  0  0  0  0  0  0  0
   -0.0824    4.0614   -1.0658 H   0  0  0  0  0  0  0  0  0  0  0  0
    0.5244    1.9668   -2.0703 H   0  0  0  0  0  0  0  0  0  0  0  0
    2.2337    2.1048   -1.7326 H   0  0  0  0  0  0  0  0  0  0  0  0
    1.3587    1.9050    0.8535 H   0  0  0  0  0  0  0  0  0  0  0  0
    1.1640   -0.3523   -1.1969 H   0  0  0  0  0  0  0  0  0  0  0  0
    0.9128   -2.6031    1.1066 H   0  0  0  0  0  0  0  0  0  0  0  0
    2.4511   -2.3548    2.9774 H   0  0  0  0  0  0  0  0  0  0  0  0
    3.8599   -2.3533    1.8125 H   0  0  0  0  0  0  0  0  0  0  0  0
    1.9347   -4.5157    2.4878 H   0  0  0  0  0  0  0  0  0  0  0  0
    3.5947   -4.5907    1.6671 H   0  0  0  0  0  0  0  0  0  0  0  0
    2.3287   -5.0343   -0.2942 H   0  0  0  0  0  0  0  0  0  0  0  0
    0.8768   -4.1748    0.4491 H   0  0  0  0  0  0  0  0  0  0  0  0
    3.2929   -1.3186   -2.8925 H   0  0  0  0  0  0  0  0  0  0  0  0
    6.0263   -2.0030   -2.0941 H   0  0  0  0  0  0  0  0  0  0  0  0
    5.0832   -3.4104   -2.6328 H   0  0  0  0  0  0  0  0  0  0  0  0
    5.1335   -2.0101   -3.7025 H   0  0  0  0  0  0  0  0  0  0  0  0
    4.4080   -0.9325   -0.0947 H   0  0  0  0  0  0  0  0  0  0  0  0
    4.3372    2.5845   -0.6996 H   0  0  0  0  0  0  0  0  0  0  0  0
    6.0212    2.0271   -0.9698 H   0  0  0  0  0  0  0  0  0  0  0  0
   -0.8160   -0.6206   -0.0144 H   0  0  0  0  0  0  0  0  0  0  0  0
   -3.0386    1.3412    0.5936 H   0  0  0  0  0  0  0  0  0  0  0  0
   -2.9467    0.5031   -1.7645 H   0  0  0  0  0  0  0  0  0  0  0  0
   -2.9503   -1.2047   -1.1808 H   0  0  0  0  0  0  0  0  0  0  0  0
   -4.9528   -2.2423   -0.3942 H   0  0  0  0  0  0  0  0  0  0  0  0
   -7.4613   -2.1318   -0.3952 H   0  0  0  0  0  0  0  0  0  0  0  0
   -8.6396   -0.0490   -0.9247 H   0  0  0  0  0  0  0  0  0  0  0  0
   -7.3314    1.9600   -1.4634 H   0  0  0  0  0  0  0  0  0  0  0  0
   -4.9078    1.8648   -1.4663 H   0  0  0  0  0  0  0  0  0  0  0  0
   -6.0390   -1.8001    2.6807 H   0  0  0  0  0  0  0  0  0  0  0  0
   -4.7116   -2.7410    1.9923 H   0  0  0  0  0  0  0  0  0  0  0  0
   -4.5219   -2.0893    3.6637 H   0  0  0  0  0  0  0  0  0  0  0  0
   -3.7725    1.3758    3.0682 H   0  0  0  0  0  0  0  0  0  0  0  0
   -5.1181    0.4220    4.0383 H   0  0  0  0  0  0  0  0  0  0  0  0
  1  2  1  0
  2  3  1  0
  3  4  1  0
  4  5  1  0
  5  6  1  0
  6  7  1  0
  7  8  2  0
  7  9  1  0
  9 10  1  0
 10 11  1  0
 11 12  1  0
 12 13  1  0
 13 14  1  0
 14 15  2  0
 14 16  1  0
 16 17  1  0
 16 18  1  0
 18 19  1  0
 19 20  2  0
 19 21  1  0
 21 22  1  0
 22 23  2  0
 23 24  2  0
  5 25  1  0
 25 26  2  0
 25 27  1  0
 27 28  1  0
 28 29  1  0
 29 30  1  0
 30 31  2  0
 31 32  1  0
 32 33  2  0
 33 34  1  0
 34 35  2  0
 28 36  1  0
 36 37  2  0
 36 38  1  0
 38 39  1  1
 38 40  1  0
 40 41  1  0
 13  9  1  0
 35 30  1  0
 41 38  1  0
  1 42  1  0
  1 43  1  0
  1 44  1  0
  2 45  1  0
  2 46  1  0
  3 47  1  0
  3 48  1  0
  4 49  1  0
  4 50  1  0
  5 51  1  1
  6 52  1  0
  9 53  1  1
 10 54  1  0
 10 55  1  0
 11 56  1  0
 11 57  1  0
 12 58  1  0
 12 59  1  0
 16 60  1  6
 17 61  1  0
 17 62  1  0
 17 63  1  0
 18 64  1  0
 21 65  1  0
 21 66  1  0
 27 67  1  0
 28 68  1  1
 29 69  1  0
 29 70  1  0
 31 71  1  0
 32 72  1  0
 33 73  1  0
 34 74  1  0
 35 75  1  0
 39 76  1  0
 39 77  1  0
 39 78  1  0
 40 79  1  0
 40 80  1  0
M  CHG  2  23   1  24  -1
M  END
$$$$
