
     RDKit          3D

 54 57  0  0  0  0  0  0  0  0999 V2000
   -0.5568   -0.7266    2.7961 C   0  0  0  0  0  0  0  0  0  0  0  0
    0.2290   -0.3269    1.7518 O   0  0  0  0  0  0  0  0  0  0  0  0
   -0.2332    0.0547    0.5208 C   0  0  0  0  0  0  0  0  0  0  0  0
    0.6216    0.4656   -0.5501 C   0  0  0  0  0  0  0  0  0  0  0  0
    1.7469    0.2997    0.0614 O   0  0  0  0  0  0  0  0  0  0  0  0
    2.8829    0.1341    0.6724 C   0  0  0  0  0  0  0  0  0  0  0  0
    3.6978   -0.9425   -0.0500 C   0  0  0  0  0  0  0  0  0  0  0  0
    4.0469   -0.4655   -1.4057 C   0  0  0  0  0  0  0  0  0  0  0  0
    5.4431    0.1376   -1.4409 C   0  0  0  0  0  0  0  0  0  0  0  0
    5.9323    0.6279   -0.2182 N   0  0  0  0  0  0  0  0  0  0  0  0
    7.3880    0.7740   -0.3327 C   0  0  0  0  0  0  0  0  0  0  0  0
    5.7247   -0.1884    0.9510 C   0  0  0  0  0  0  0  0  0  0  0  0
    4.8862   -1.3909    0.7010 C   0  0  0  0  0  0  0  0  0  0  0  0
    0.0111    0.8306   -1.7097 C   0  0  0  0  0  0  0  0  0  0  0  0
   -1.3573    0.7758   -1.7652 C   0  0  0  0  0  0  0  0  0  0  0  0
   -1.8949    1.1809   -2.9575 N   0  0  0  0  0  0  0  0  0  0  0  0
   -3.2339    1.1955   -3.1287 C   0  0  0  0  0  0  0  0  0  0  0  0
   -4.0742    0.8068   -2.1262 N   0  0  0  0  0  0  0  0  0  0  0  0
   -3.5452    0.4020   -0.9547 C   0  0  0  0  0  0  0  0  0  0  0  0
   -4.3688   -0.0928    0.1233 N   0  0  0  0  0  0  0  0  0  0  0  0
   -5.7528   -0.0612    0.3002 C   0  0  0  0  0  0  0  0  0  0  0  0
   -6.5537    1.0231    0.6302 C   0  0  0  0  0  0  0  0  0  0  0  0
   -5.9184    2.2223    0.7443 F   0  0  0  0  0  0  0  0  0  0  0  0
   -7.8963    0.8477    0.8270 C   0  0  0  0  0  0  0  0  0  0  0  0
   -8.4374   -0.4059    0.6949 C   0  0  0  0  0  0  0  0  0  0  0  0
  -10.2876   -0.7526    0.9553 Br  0  0  0  0  0  0  0  0  0  0  0  0
   -7.7278   -1.5386    0.3700 C   0  0  0  0  0  0  0  0  0  0  0  0
   -6.3672   -1.3420    0.1765 C   0  0  0  0  0  0  0  0  0  0  0  0
   -2.2013    0.3833   -0.7563 C   0  0  0  0  0  0  0  0  0  0  0  0
   -1.6475   -0.0004    0.4559 C   0  0  0  0  0  0  0  0  0  0  0  0
   -1.2812    0.0784    3.0544 H   0  0  0  0  0  0  0  0  0  0  0  0
    0.0459   -0.9055    3.7223 H   0  0  0  0  0  0  0  0  0  0  0  0
   -1.1048   -1.6490    2.5831 H   0  0  0  0  0  0  0  0  0  0  0  0
    2.8524   -0.0769    1.7805 H   0  0  0  0  0  0  0  0  0  0  0  0
    3.5412    1.0504    0.6225 H   0  0  0  0  0  0  0  0  0  0  0  0
    3.0040   -1.8482   -0.1758 H   0  0  0  0  0  0  0  0  0  0  0  0
    3.3000    0.2671   -1.7582 H   0  0  0  0  0  0  0  0  0  0  0  0
    4.0293   -1.2930   -2.1326 H   0  0  0  0  0  0  0  0  0  0  0  0
    5.3695    0.9927   -2.1763 H   0  0  0  0  0  0  0  0  0  0  0  0
    6.1771   -0.5742   -1.8793 H   0  0  0  0  0  0  0  0  0  0  0  0
    7.8160   -0.2242   -0.3828 H   0  0  0  0  0  0  0  0  0  0  0  0
    7.6507    1.3629   -1.2237 H   0  0  0  0  0  0  0  0  0  0  0  0
    7.8264    1.2474    0.5750 H   0  0  0  0  0  0  0  0  0  0  0  0
    6.7137   -0.5016    1.3884 H   0  0  0  0  0  0  0  0  0  0  0  0
    5.1935    0.4076    1.7217 H   0  0  0  0  0  0  0  0  0  0  0  0
    4.5276   -1.7676    1.7036 H   0  0  0  0  0  0  0  0  0  0  0  0
    5.4184   -2.2078    0.1758 H   0  0  0  0  0  0  0  0  0  0  0  0
    0.7407    1.1115   -2.4413 H   0  0  0  0  0  0  0  0  0  0  0  0
   -3.7256    1.5123   -4.0414 H   0  0  0  0  0  0  0  0  0  0  0  0
   -4.0216   -0.5413    0.9878 H   0  0  0  0  0  0  0  0  0  0  0  0
   -8.5071    1.6838    1.0836 H   0  0  0  0  0  0  0  0  0  0  0  0
   -8.1129   -2.5431    0.2408 H   0  0  0  0  0  0  0  0  0  0  0  0
   -5.7651   -2.2165   -0.0816 H   0  0  0  0  0  0  0  0  0  0  0  0
   -2.2444   -0.3167    1.3175 H   0  0  0  0  0  0  0  0  0  0  0  0
  1  2  1  0
  2  3  1  0
  3  4  2  0
  4  5  1  0
  5  6  1  0
  6  7  1  0
  7  8  1  0
  8  9  1  0
  9 10  1  0
 10 11  1  0
 10 12  1  0
 12 13  1  0
  4 14  1  0
 14 15  2  0
 15 16  1  0
 16 17  2  0
 17 18  1  0
 18 19  2  0
 19 20  1  0
 20 21  1  0
 21 22  2  0
 22 23  1  0
 22 24  1  0
 24 25  2  0
 25 26  1  0
 25 27  1  0
 27 28  2  0
 19 29  1  0
 29 30  2  0
 30  3  1  0
 13  7  1  0
 29 15  1  0
 28 21  1  0
  1 31  1  0
  1 32  1  0
  1 33  1  0
  6 34  1  0
  6 35  1  0
  7 36  1  0
  8 37  1  0
  8 38  1  0
  9 39  1  0
  9 40  1  0
 11 41  1  0
 11 42  1  0
 11 43  1  0
 12 44  1  0
 12 45  1  0
 13 46  1  0
 13 47  1  0
 14 48  1  0
 17 49  1  0
 20 50  1  0
 24 51  1  0
 27 52  1  0
 28 53  1  0
 30 54  1  0
M  END
$$$$
