@<TRIPOS>MOLECULE
*****
 45 48 0 0 0
SMALL
GASTEIGER

@<TRIPOS>ATOM
      1 O           4.3980    2.0750   -0.4841 O.2     1  UNL1       -0.2449
      2 C           4.5347    0.8538   -0.7043 C.2     1  UNL1        0.3401
      3 O           3.4322    0.1071   -1.0869 O.3     1  UNL1       -0.4482
      4 C           2.1624    0.6861   -1.2333 C.3     1  UNL1        0.1531
      5 C           1.7004    1.2715    0.0205 C.1     1  UNL1       -0.0605
      6 C           1.3135    1.7690    1.0523 C.1     1  UNL1       -0.0877
      7 C           0.8354    2.3650    2.3223 C.3     1  UNL1        0.0642
      8 S           0.2024    1.0604    3.4075 S.3     1  UNL1       -0.0528
      9 C          -1.2596    0.3568    2.6706 C.ar    1  UNL1        0.2785
     10 N          -1.9611   -0.6402    3.2379 N.ar    1  UNL1       -0.1006
     11 N          -2.9848   -0.9467    2.4627 N.ar    1  UNL1       -0.1065
     12 C          -2.9469   -0.1526    1.3986 C.ar    1  UNL1        0.2498
     13 C          -3.7895   -0.0268    0.2333 C.ar    1  UNL1        0.0462
     14 C          -3.4899    0.9176   -0.7461 C.ar    1  UNL1       -0.0488
     15 C          -4.2780    1.0524   -1.8542 C.ar    1  UNL1       -0.0604
     16 C          -5.3785    0.2869   -2.0604 C.ar    1  UNL1       -0.0540
     17 C          -5.6926   -0.6579   -1.0976 C.ar    1  UNL1       -0.0172
     18 C          -6.8317   -1.4448   -1.3177 C.ar    1  UNL1       -0.0540
     19 C          -7.2159   -2.4042   -0.4151 C.ar    1  UNL1       -0.0612
     20 C          -6.4322   -2.5483    0.7013 C.ar    1  UNL1       -0.0611
     21 C          -5.2923   -1.7725    0.9379 C.ar    1  UNL1       -0.0533
     22 C          -4.9096   -0.8109    0.0306 C.ar    1  UNL1       -0.0056
     23 O          -1.8766    0.6327    1.5601 O.2     1  UNL1       -0.4110
     24 C           5.8217    0.1724   -0.5745 C.ar    1  UNL1        0.0590
     25 C           6.9479    0.8821   -0.2032 C.ar    1  UNL1       -0.0478
     26 C           8.1825    0.2655   -0.0695 C.ar    1  UNL1       -0.0610
     27 C           8.2862   -1.0792   -0.3116 C.ar    1  UNL1       -0.0617
     28 C           7.1807   -1.8264   -0.6860 C.ar    1  UNL1       -0.0610
     29 C           5.9728   -1.1685   -0.8062 C.ar    1  UNL1       -0.0478
     30 H           1.4613   -0.0996   -1.5934 H       1  UNL1        0.0838
     31 H           2.1633    1.4818   -2.0118 H       1  UNL1        0.0838
     32 H           0.0448    3.0974    2.0256 H       1  UNL1        0.0515
     33 H           1.6734    2.8810    2.8513 H       1  UNL1        0.0515
     34 H          -2.6319    1.5287   -0.6061 H       1  UNL1        0.0625
     35 H          -4.0119    1.7966   -2.5903 H       1  UNL1        0.0618
     36 H          -6.0162    0.3800   -2.9349 H       1  UNL1        0.0624
     37 H          -7.4273   -1.2925   -2.2260 H       1  UNL1        0.0624
     38 H          -8.0998   -3.0029   -0.6025 H       1  UNL1        0.0618
     39 H          -6.7151   -3.2983    1.4273 H       1  UNL1        0.0618
     40 H          -4.7220   -1.9342    1.8307 H       1  UNL1        0.0624
     41 H           6.9206    1.9427   -0.0012 H       1  UNL1        0.0626
     42 H           9.0754    0.7995    0.2191 H       1  UNL1        0.0618
     43 H           9.2262   -1.5695   -0.2137 H       1  UNL1        0.0618
     44 H           7.3111   -2.8814   -0.8658 H       1  UNL1        0.0618
     45 H           5.1165   -1.7309   -1.0927 H       1  UNL1        0.0626
@<TRIPOS>BOND
     1     1     2    2
     2     2     3    1
     3     3     4    1
     4     4     5    1
     5     5     6    3
     6     6     7    1
     7     7     8    1
     8     8     9    1
     9     9    10   ar
    10    10    11   ar
    11    11    12   ar
    12    12    13    1
    13    13    14   ar
    14    14    15   ar
    15    15    16   ar
    16    16    17   ar
    17    17    18   ar
    18    18    19   ar
    19    19    20   ar
    20    20    21   ar
    21    21    22   ar
    22    12    23   ar
    23     2    24    1
    24    24    25   ar
    25    25    26   ar
    26    26    27   ar
    27    27    28   ar
    28    28    29   ar
    29    23     9   ar
    30    29    24   ar
    31    22    13   ar
    32    22    17   ar
    33     4    30    1
    34     4    31    1
    35     7    32    1
    36     7    33    1
    37    14    34    1
    38    15    35    1
    39    16    36    1
    40    18    37    1
    41    19    38    1
    42    20    39    1
    43    21    40    1
    44    25    41    1
    45    26    42    1
    46    27    43    1
    47    28    44    1
    48    29    45    1
