
     RDKit          3D

 45 48  0  0  0  0  0  0  0  0999 V2000
    4.3980    2.0750   -0.4841 O   0  0  0  0  0  0  0  0  0  0  0  0
    4.5347    0.8538   -0.7043 C   0  0  0  0  0  0  0  0  0  0  0  0
    3.4322    0.1071   -1.0869 O   0  0  0  0  0  0  0  0  0  0  0  0
    2.1624    0.6861   -1.2333 C   0  0  0  0  0  0  0  0  0  0  0  0
    1.7004    1.2715    0.0205 C   0  0  0  0  0  0  0  0  0  0  0  0
    1.3135    1.7690    1.0523 C   0  0  0  0  0  0  0  0  0  0  0  0
    0.8354    2.3650    2.3223 C   0  0  0  0  0  0  0  0  0  0  0  0
    0.2024    1.0604    3.4075 S   0  0  0  0  0  0  0  0  0  0  0  0
   -1.2596    0.3568    2.6706 C   0  0  0  0  0  0  0  0  0  0  0  0
   -1.9611   -0.6402    3.2379 N   0  0  0  0  0  0  0  0  0  0  0  0
   -2.9848   -0.9467    2.4627 N   0  0  0  0  0  0  0  0  0  0  0  0
   -2.9469   -0.1526    1.3986 C   0  0  0  0  0  0  0  0  0  0  0  0
   -3.7895   -0.0268    0.2333 C   0  0  0  0  0  0  0  0  0  0  0  0
   -3.4899    0.9176   -0.7461 C   0  0  0  0  0  0  0  0  0  0  0  0
   -4.2780    1.0524   -1.8542 C   0  0  0  0  0  0  0  0  0  0  0  0
   -5.3785    0.2869   -2.0604 C   0  0  0  0  0  0  0  0  0  0  0  0
   -5.6926   -0.6579   -1.0976 C   0  0  0  0  0  0  0  0  0  0  0  0
   -6.8317   -1.4448   -1.3177 C   0  0  0  0  0  0  0  0  0  0  0  0
   -7.2159   -2.4042   -0.4151 C   0  0  0  0  0  0  0  0  0  0  0  0
   -6.4322   -2.5483    0.7013 C   0  0  0  0  0  0  0  0  0  0  0  0
   -5.2923   -1.7725    0.9379 C   0  0  0  0  0  0  0  0  0  0  0  0
   -4.9096   -0.8109    0.0306 C   0  0  0  0  0  0  0  0  0  0  0  0
   -1.8766    0.6327    1.5601 O   0  0  0  0  0  0  0  0  0  0  0  0
    5.8217    0.1724   -0.5745 C   0  0  0  0  0  0  0  0  0  0  0  0
    6.9479    0.8821   -0.2032 C   0  0  0  0  0  0  0  0  0  0  0  0
    8.1825    0.2655   -0.0695 C   0  0  0  0  0  0  0  0  0  0  0  0
    8.2862   -1.0792   -0.3116 C   0  0  0  0  0  0  0  0  0  0  0  0
    7.1807   -1.8264   -0.6860 C   0  0  0  0  0  0  0  0  0  0  0  0
    5.9728   -1.1685   -0.8062 C   0  0  0  0  0  0  0  0  0  0  0  0
    1.4613   -0.0996   -1.5934 H   0  0  0  0  0  0  0  0  0  0  0  0
    2.1633    1.4818   -2.0118 H   0  0  0  0  0  0  0  0  0  0  0  0
    0.0448    3.0974    2.0256 H   0  0  0  0  0  0  0  0  0  0  0  0
    1.6734    2.8810    2.8513 H   0  0  0  0  0  0  0  0  0  0  0  0
   -2.6319    1.5287   -0.6061 H   0  0  0  0  0  0  0  0  0  0  0  0
   -4.0119    1.7966   -2.5903 H   0  0  0  0  0  0  0  0  0  0  0  0
   -6.0162    0.3800   -2.9349 H   0  0  0  0  0  0  0  0  0  0  0  0
   -7.4273   -1.2925   -2.2260 H   0  0  0  0  0  0  0  0  0  0  0  0
   -8.0998   -3.0029   -0.6025 H   0  0  0  0  0  0  0  0  0  0  0  0
   -6.7151   -3.2983    1.4273 H   0  0  0  0  0  0  0  0  0  0  0  0
   -4.7220   -1.9342    1.8307 H   0  0  0  0  0  0  0  0  0  0  0  0
    6.9206    1.9427   -0.0012 H   0  0  0  0  0  0  0  0  0  0  0  0
    9.0754    0.7995    0.2191 H   0  0  0  0  0  0  0  0  0  0  0  0
    9.2262   -1.5695   -0.2137 H   0  0  0  0  0  0  0  0  0  0  0  0
    7.3111   -2.8814   -0.8658 H   0  0  0  0  0  0  0  0  0  0  0  0
    5.1165   -1.7309   -1.0927 H   0  0  0  0  0  0  0  0  0  0  0  0
  1  2  2  0
  2  3  1  0
  3  4  1  0
  4  5  1  0
  5  6  3  0
  6  7  1  0
  7  8  1  0
  8  9  1  0
  9 10  2  0
 10 11  1  0
 11 12  2  0
 12 13  1  0
 13 14  2  0
 14 15  1  0
 15 16  2  0
 16 17  1  0
 17 18  2  0
 18 19  1  0
 19 20  2  0
 20 21  1  0
 21 22  2  0
 12 23  1  0
  2 24  1  0
 24 25  2  0
 25 26  1  0
 26 27  2  0
 27 28  1  0
 28 29  2  0
 23  9  1  0
 29 24  1  0
 22 13  1  0
 22 17  1  0
  4 30  1  0
  4 31  1  0
  7 32  1  0
  7 33  1  0
 14 34  1  0
 15 35  1  0
 16 36  1  0
 18 37  1  0
 19 38  1  0
 20 39  1  0
 21 40  1  0
 25 41  1  0
 26 42  1  0
 27 43  1  0
 28 44  1  0
 29 45  1  0
M  END
$$$$
