@<TRIPOS>MOLECULE
*****
 54 57 0 0 0
SMALL
GASTEIGER

@<TRIPOS>ATOM
      1 C          -3.2287   -0.3638    0.9499 C.3     1  UNL1        0.0620
      2 C          -3.8563    0.9526    1.3536 C.3     1  UNL1       -0.0255
      3 C          -5.1968    1.1340    0.6747 C.3     1  UNL1       -0.0059
      4 N          -6.1142    0.0784    1.0299 N.3     1  UNL1       -0.3299
      5 C          -1.9140   -0.4348    1.6784 C.2     1  UNL1        0.2247
      6 O          -1.2912    0.3868    2.4130 O.2     1  UNL1       -0.2748
      7 N          -1.1711   -1.6456    1.5568 N.am    1  UNL1       -0.2850
      8 C           0.0683   -1.5977    2.2959 C.ar    1  UNL1        0.0342
      9 C           0.1679   -1.9987    3.6124 C.ar    1  UNL1       -0.0385
     10 C           1.4255   -1.8979    4.2005 C.ar    1  UNL1       -0.0345
     11 C           2.5196   -1.4214    3.5048 C.ar    1  UNL1        0.0677
     12 N           3.8001   -1.2068    3.7559 N.ar    1  UNL1       -0.2752
     13 N           4.4339   -0.7188    2.6948 N.ar    1  UNL1       -0.1574
     14 C           3.5883   -0.5788    1.6541 C.ar    1  UNL1        0.1547
     15 N           3.8187   -0.1010    0.3353 N.am    1  UNL1       -0.2645
     16 C           3.7548    1.1831   -0.2564 C.2     1  UNL1        0.2494
     17 O           3.4279    2.1265    0.5196 O.2     1  UNL1       -0.2698
     18 C           4.0645    1.3050   -1.6776 C.ar    1  UNL1        0.0371
     19 C           4.4247    0.3111   -2.5636 C.ar    1  UNL1       -0.0496
     20 C           4.6809    0.6240   -3.8825 C.ar    1  UNL1       -0.0610
     21 C           4.5985    1.9004   -4.3885 C.ar    1  UNL1       -0.0617
     22 C           4.2372    2.8838   -3.4910 C.ar    1  UNL1       -0.0610
     23 C           3.9734    2.6086   -2.1646 C.ar    1  UNL1       -0.0496
     24 C           2.3749   -1.0251    2.1706 C.ar    1  UNL1        0.0433
     25 C           1.1237   -1.1137    1.5491 C.ar    1  UNL1       -0.0280
     26 C          -3.0635   -0.5375   -0.4941 C.ar    1  UNL1       -0.0341
     27 C          -3.6329   -1.4999   -1.3143 C.ar    1  UNL1       -0.0395
     28 C          -3.3651   -1.5176   -2.6750 C.ar    1  UNL1        0.0413
     29 CL         -4.1430   -2.7820   -3.6085 Cl      1  UNL1       -0.0835
     30 C          -2.5227   -0.5713   -3.2350 C.ar    1  UNL1       -0.0434
     31 C          -1.9546    0.3843   -2.4344 C.ar    1  UNL1       -0.0601
     32 C          -2.2137    0.4170   -1.0600 C.ar    1  UNL1       -0.0578
     33 H          -3.9168   -1.1665    1.2966 H       1  UNL1        0.0443
     34 H          -4.0735    0.8508    2.4450 H       1  UNL1        0.0288
     35 H          -3.2068    1.8204    1.2597 H       1  UNL1        0.0288
     36 H          -5.1045    1.1315   -0.4388 H       1  UNL1        0.0422
     37 H          -5.6768    2.0823    0.9363 H       1  UNL1        0.0422
     38 H          -6.0155   -0.7680    0.4497 H       1  UNL1        0.1182
     39 H          -6.0470   -0.1484    2.0296 H       1  UNL1        0.1182
     40 H          -1.4946   -2.4824    0.9884 H       1  UNL1        0.1548
     41 H          -0.7072   -2.3658    4.1252 H       1  UNL1        0.0637
     42 H           1.5513   -2.2004    5.2303 H       1  UNL1        0.0639
     43 H           4.2666   -1.3931    4.6687 H       1  UNL1        0.1890
     44 H           4.0699   -0.9903   -0.1503 H       1  UNL1        0.1566
     45 H           4.4766   -0.6719   -2.1236 H       1  UNL1        0.0625
     46 H           4.9578   -0.1900   -4.5298 H       1  UNL1        0.0618
     47 H           4.8060    2.1126   -5.4288 H       1  UNL1        0.0618
     48 H           4.1719    3.8954   -3.8920 H       1  UNL1        0.0618
     49 H           3.6951    3.4586   -1.5354 H       1  UNL1        0.0625
     50 H           1.0449   -0.8009    0.5214 H       1  UNL1        0.0644
     51 H          -4.2830   -2.2056   -0.7908 H       1  UNL1        0.0635
     52 H          -2.3317   -0.6113   -4.3075 H       1  UNL1        0.0632
     53 H          -1.2915    1.1194   -2.9115 H       1  UNL1        0.0618
     54 H          -1.7063    1.2160   -0.5463 H       1  UNL1        0.0621
@<TRIPOS>BOND
     1     1     2    1
     2     2     3    1
     3     3     4    1
     4     1     5    1
     5     5     6    2
     6     5     7   am
     7     7     8    1
     8     8     9   ar
     9     9    10   ar
    10    10    11   ar
    11    11    12   ar
    12    12    13   ar
    13    13    14   ar
    14    14    15    1
    15    15    16   am
    16    16    17    2
    17    16    18    1
    18    18    19   ar
    19    19    20   ar
    20    20    21   ar
    21    21    22   ar
    22    22    23   ar
    23    14    24   ar
    24    24    25   ar
    25     1    26    1
    26    26    27   ar
    27    27    28   ar
    28    28    29    1
    29    28    30   ar
    30    30    31   ar
    31    31    32   ar
    32    25     8   ar
    33    32    26   ar
    34    24    11   ar
    35    23    18   ar
    36     1    33    1
    37     2    34    1
    38     2    35    1
    39     3    36    1
    40     3    37    1
    41     4    38    1
    42     4    39    1
    43     7    40    1
    44     9    41    1
    45    10    42    1
    46    12    43    1
    47    15    44    1
    48    19    45    1
    49    20    46    1
    50    21    47    1
    51    22    48    1
    52    23    49    1
    53    25    50    1
    54    27    51    1
    55    30    52    1
    56    31    53    1
    57    32    54    1
