
     RDKit          3D

 68 72  0  0  0  0  0  0  0  0999 V2000
   -6.5455    2.4681    0.2940 C   0  0  0  0  0  0  0  0  0  0  0  0
   -6.0629    1.0615    0.0133 C   0  0  0  0  0  0  0  0  0  0  0  0
   -6.7121    0.6099   -1.2829 C   0  0  0  0  0  0  0  0  0  0  0  0
   -4.5398    1.1519   -0.1609 C   0  0  0  0  0  0  0  0  0  0  0  0
   -4.1160   -0.2253   -0.6108 C   0  0  0  0  0  0  0  0  0  0  0  0
   -2.6799   -0.3306   -0.8006 N   0  0  0  0  0  0  0  0  0  0  0  0
   -2.0647   -0.5324   -2.0417 C   0  0  0  0  0  0  0  0  0  0  0  0
   -2.8092   -0.6272   -3.0478 O   0  0  0  0  0  0  0  0  0  0  0  0
   -0.6257   -0.6345   -2.2083 C   0  0  0  0  0  0  0  0  0  0  0  0
   -0.1208   -0.8356   -3.4892 C   0  0  0  0  0  0  0  0  0  0  0  0
    1.2403   -0.9335   -3.6603 C   0  0  0  0  0  0  0  0  0  0  0  0
    2.1199   -0.8347   -2.5749 C   0  0  0  0  0  0  0  0  0  0  0  0
    1.6292   -0.6355   -1.3032 C   0  0  0  0  0  0  0  0  0  0  0  0
    2.5390   -0.5293   -0.1591 C   0  0  0  0  0  0  0  0  0  0  0  0
    2.1888   -0.3316    1.1571 C   0  0  0  0  0  0  0  0  0  0  0  0
    3.3734   -0.2983    1.8701 C   0  0  0  0  0  0  0  0  0  0  0  0
    3.6363   -0.1341    3.1778 N   0  0  0  0  0  0  0  0  0  0  0  0
    4.8875   -0.1329    3.6762 C   0  0  0  0  0  0  0  0  0  0  0  0
    5.9202   -0.3080    2.7948 C   0  0  0  0  0  0  0  0  0  0  0  0
    5.6762   -0.4768    1.4604 C   0  0  0  0  0  0  0  0  0  0  0  0
    6.7135   -0.6616    0.5033 N   0  0  0  0  0  0  0  0  0  0  0  0
    7.3147    0.4222   -0.1761 C   0  0  0  0  0  0  0  0  0  0  0  0
    8.3115    0.1886   -1.0887 C   0  0  0  0  0  0  0  0  0  0  0  0
    8.9059    1.2365   -1.7590 C   0  0  0  0  0  0  0  0  0  0  0  0
    8.5197    2.5275   -1.5329 C   0  0  0  0  0  0  0  0  0  0  0  0
    7.5242    2.7730   -0.6228 C   0  0  0  0  0  0  0  0  0  0  0  0
    7.1134    4.0680   -0.3738 O   0  0  0  0  0  0  0  0  0  0  0  0
    6.9291    1.7297    0.0476 C   0  0  0  0  0  0  0  0  0  0  0  0
    4.3992   -0.4689    1.0194 N   0  0  0  0  0  0  0  0  0  0  0  0
    3.8792   -0.6076   -0.2066 N   0  0  0  0  0  0  0  0  0  0  0  0
    0.2607   -0.5407   -1.1564 C   0  0  0  0  0  0  0  0  0  0  0  0
   -4.6837   -1.3153    0.2383 C   0  0  0  0  0  0  0  0  0  0  0  0
   -5.4976   -0.8321    1.4027 C   0  0  0  0  0  0  0  0  0  0  0  0
   -4.5763   -0.4970    2.5589 C   0  0  0  0  0  0  0  0  0  0  0  0
   -6.3400   -2.0217    1.8650 C   0  0  0  0  0  0  0  0  0  0  0  0
   -6.4115    0.2185    1.0978 N   0  0  0  0  0  0  0  0  0  0  0  0
   -6.6189    0.9453    2.2387 O   0  0  0  0  0  1  0  0  0  0  0  0
   -6.7114    3.0112   -0.6586 H   0  0  0  0  0  0  0  0  0  0  0  0
   -5.7691    3.0027    0.8846 H   0  0  0  0  0  0  0  0  0  0  0  0
   -7.4830    2.4380    0.8982 H   0  0  0  0  0  0  0  0  0  0  0  0
   -6.1255    0.9758   -2.1480 H   0  0  0  0  0  0  0  0  0  0  0  0
   -6.7612   -0.5040   -1.3439 H   0  0  0  0  0  0  0  0  0  0  0  0
   -7.7375    1.0057   -1.4027 H   0  0  0  0  0  0  0  0  0  0  0  0
   -4.1414    1.4479    0.8058 H   0  0  0  0  0  0  0  0  0  0  0  0
   -4.3690    1.8644   -0.9823 H   0  0  0  0  0  0  0  0  0  0  0  0
   -4.5562   -0.3376   -1.6272 H   0  0  0  0  0  0  0  0  0  0  0  0
   -2.1161   -0.2438    0.0739 H   0  0  0  0  0  0  0  0  0  0  0  0
   -0.7976   -0.9135   -4.3399 H   0  0  0  0  0  0  0  0  0  0  0  0
    1.6391   -1.0903   -4.6569 H   0  0  0  0  0  0  0  0  0  0  0  0
    3.1884   -0.9085   -2.6879 H   0  0  0  0  0  0  0  0  0  0  0  0
    1.2066   -0.2199    1.5920 H   0  0  0  0  0  0  0  0  0  0  0  0
    5.0982    0.0000    4.7348 H   0  0  0  0  0  0  0  0  0  0  0  0
    6.9558   -0.3160    3.1410 H   0  0  0  0  0  0  0  0  0  0  0  0
    7.0182   -1.6383    0.3191 H   0  0  0  0  0  0  0  0  0  0  0  0
    8.6291   -0.8255   -1.2798 H   0  0  0  0  0  0  0  0  0  0  0  0
    9.7018    1.0246   -2.4849 H   0  0  0  0  0  0  0  0  0  0  0  0
    9.0107    3.3333   -2.0802 H   0  0  0  0  0  0  0  0  0  0  0  0
    7.1110    4.4472    0.5498 H   0  0  0  0  0  0  0  0  0  0  0  0
    6.1420    1.9130    0.7683 H   0  0  0  0  0  0  0  0  0  0  0  0
   -0.1235   -0.3831   -0.1457 H   0  0  0  0  0  0  0  0  0  0  0  0
   -3.8062   -1.8744    0.6758 H   0  0  0  0  0  0  0  0  0  0  0  0
   -5.2502   -2.0842   -0.3346 H   0  0  0  0  0  0  0  0  0  0  0  0
   -4.8092    0.4932    2.9993 H   0  0  0  0  0  0  0  0  0  0  0  0
   -3.5099   -0.5484    2.2081 H   0  0  0  0  0  0  0  0  0  0  0  0
   -4.6429   -1.2278    3.3907 H   0  0  0  0  0  0  0  0  0  0  0  0
   -7.2933   -1.6702    2.2587 H   0  0  0  0  0  0  0  0  0  0  0  0
   -5.8273   -2.5674    2.6878 H   0  0  0  0  0  0  0  0  0  0  0  0
   -6.5480   -2.7197    1.0256 H   0  0  0  0  0  0  0  0  0  0  0  0
  1  2  1  0
  2  3  1  0
  2  4  1  0
  4  5  1  0
  5  6  1  0
  6  7  1  0
  7  8  2  0
  7  9  1  0
  9 10  2  0
 10 11  1  0
 11 12  2  0
 12 13  1  0
 13 14  1  0
 14 15  1  0
 15 16  2  0
 16 17  1  0
 17 18  2  0
 18 19  1  0
 19 20  2  0
 20 21  1  0
 21 22  1  0
 22 23  2  0
 23 24  1  0
 24 25  2  0
 25 26  1  0
 26 27  1  0
 26 28  2  0
 20 29  1  0
 29 30  1  0
 13 31  2  0
  5 32  1  0
 32 33  1  0
 33 34  1  0
 33 35  1  0
 33 36  1  0
 36 37  1  0
 36  2  1  0
 31  9  1  0
 30 14  2  0
 29 16  1  0
 28 22  1  0
  1 38  1  0
  1 39  1  0
  1 40  1  0
  3 41  1  0
  3 42  1  0
  3 43  1  0
  4 44  1  0
  4 45  1  0
  5 46  1  0
  6 47  1  0
 10 48  1  0
 11 49  1  0
 12 50  1  0
 15 51  1  0
 18 52  1  0
 19 53  1  0
 21 54  1  0
 23 55  1  0
 24 56  1  0
 25 57  1  0
 27 58  1  0
 28 59  1  0
 31 60  1  0
 32 61  1  0
 32 62  1  0
 34 63  1  0
 34 64  1  0
 34 65  1  0
 35 66  1  0
 35 67  1  0
 35 68  1  0
M  RAD  1  37   2
M  END
$$$$
