@<TRIPOS>MOLECULE
*****
 68 72 0 0 0
SMALL
GASTEIGER

@<TRIPOS>ATOM
      1 C          -6.5455    2.4681    0.2940 C.3     1  UNL1       -0.0445
      2 C          -6.0629    1.0615    0.0133 C.3     1  UNL1        0.0466
      3 C          -6.7121    0.6099   -1.2829 C.3     1  UNL1       -0.0445
      4 C          -4.5398    1.1519   -0.1609 C.3     1  UNL1       -0.0141
      5 C          -4.1160   -0.2253   -0.6108 C.3     1  UNL1        0.0269
      6 N          -2.6799   -0.3306   -0.8006 N.am    1  UNL1       -0.3084
      7 C          -2.0647   -0.5324   -2.0417 C.2     1  UNL1        0.2443
      8 O          -2.8092   -0.6272   -3.0478 O.2     1  UNL1       -0.2702
      9 C          -0.6257   -0.6345   -2.2083 C.ar    1  UNL1        0.0373
     10 C          -0.1208   -0.8356   -3.4892 C.ar    1  UNL1       -0.0496
     11 C           1.2403   -0.9335   -3.6603 C.ar    1  UNL1       -0.0604
     12 C           2.1199   -0.8347   -2.5749 C.ar    1  UNL1       -0.0525
     13 C           1.6292   -0.6355   -1.3032 C.ar    1  UNL1        0.0029
     14 C           2.5390   -0.5293   -0.1591 C.ar    1  UNL1        0.0953
     15 C           2.1888   -0.3316    1.1571 C.ar    1  UNL1        0.0103
     16 C           3.3734   -0.2983    1.8701 C.ar    1  UNL1        0.1580
     17 N           3.6363   -0.1341    3.1778 N.ar    1  UNL1       -0.2359
     18 C           4.8875   -0.1329    3.6762 C.ar    1  UNL1        0.0332
     19 C           5.9202   -0.3080    2.7948 C.ar    1  UNL1       -0.0033
     20 C           5.6762   -0.4768    1.4604 C.ar    1  UNL1        0.1281
     21 N           6.7135   -0.6616    0.5033 N.pl3   1  UNL1       -0.2992
     22 C           7.3147    0.4222   -0.1761 C.ar    1  UNL1        0.0358
     23 C           8.3115    0.1886   -1.0887 C.ar    1  UNL1       -0.0403
     24 C           8.9059    1.2365   -1.7590 C.ar    1  UNL1       -0.0566
     25 C           8.5197    2.5275   -1.5329 C.ar    1  UNL1       -0.0201
     26 C           7.5242    2.7730   -0.6228 C.ar    1  UNL1        0.1186
     27 O           7.1134    4.0680   -0.3738 O.3     1  UNL1       -0.5067
     28 C           6.9291    1.7297    0.0476 C.ar    1  UNL1        0.0010
     29 N           4.3992   -0.4689    1.0194 N.ar    1  UNL1       -0.1998
     30 N           3.8792   -0.6076   -0.2066 N.ar    1  UNL1       -0.1633
     31 C           0.2607   -0.5407   -1.1564 C.ar    1  UNL1       -0.0404
     32 C          -4.6837   -1.3153    0.2383 C.3     1  UNL1       -0.0141
     33 C          -5.4976   -0.8321    1.4027 C.3     1  UNL1        0.0466
     34 C          -4.5763   -0.4970    2.5589 C.3     1  UNL1       -0.0445
     35 C          -6.3400   -2.0217    1.8650 C.3     1  UNL1       -0.0445
     36 N          -6.4115    0.2185    1.0978 N.3     1  UNL1       -0.1429
     37 O          -6.6189    0.9453    2.2387 O.3     1  UNL1       -0.1183
     38 H          -6.7114    3.0112   -0.6586 H       1  UNL1        0.0248
     39 H          -5.7691    3.0027    0.8846 H       1  UNL1        0.0248
     40 H          -7.4830    2.4380    0.8982 H       1  UNL1        0.0248
     41 H          -6.1255    0.9758   -2.1480 H       1  UNL1        0.0248
     42 H          -6.7612   -0.5040   -1.3439 H       1  UNL1        0.0248
     43 H          -7.7375    1.0057   -1.4027 H       1  UNL1        0.0248
     44 H          -4.1414    1.4479    0.8058 H       1  UNL1        0.0301
     45 H          -4.3690    1.8644   -0.9823 H       1  UNL1        0.0301
     46 H          -4.5562   -0.3376   -1.6272 H       1  UNL1        0.0499
     47 H          -2.1161   -0.2438    0.0739 H       1  UNL1        0.1493
     48 H          -0.7976   -0.9135   -4.3399 H       1  UNL1        0.0625
     49 H           1.6391   -1.0903   -4.6569 H       1  UNL1        0.0618
     50 H           3.1884   -0.9085   -2.6879 H       1  UNL1        0.0624
     51 H           1.2066   -0.2199    1.5920 H       1  UNL1        0.0677
     52 H           5.0982    0.0000    4.7348 H       1  UNL1        0.0831
     53 H           6.9558   -0.3160    3.1410 H       1  UNL1        0.0667
     54 H           7.0182   -1.6383    0.3191 H       1  UNL1        0.1536
     55 H           8.6291   -0.8255   -1.2798 H       1  UNL1        0.0636
     56 H           9.7018    1.0246   -2.4849 H       1  UNL1        0.0619
     57 H           9.0107    3.3333   -2.0802 H       1  UNL1        0.0654
     58 H           7.1110    4.4472    0.5498 H       1  UNL1        0.2921
     59 H           6.1420    1.9130    0.7683 H       1  UNL1        0.0673
     60 H          -0.1235   -0.3831   -0.1457 H       1  UNL1        0.0632
     61 H          -3.8062   -1.8744    0.6758 H       1  UNL1        0.0301
     62 H          -5.2502   -2.0842   -0.3346 H       1  UNL1        0.0301
     63 H          -4.8092    0.4932    2.9993 H       1  UNL1        0.0248
     64 H          -3.5099   -0.5484    2.2081 H       1  UNL1        0.0248
     65 H          -4.6429   -1.2278    3.3907 H       1  UNL1        0.0248
     66 H          -7.2933   -1.6702    2.2587 H       1  UNL1        0.0248
     67 H          -5.8273   -2.5674    2.6878 H       1  UNL1        0.0248
     68 H          -6.5480   -2.7197    1.0256 H       1  UNL1        0.0248
@<TRIPOS>BOND
     1     1     2    1
     2     2     3    1
     3     2     4    1
     4     4     5    1
     5     5     6    1
     6     6     7   am
     7     7     8    2
     8     7     9    1
     9     9    10   ar
    10    10    11   ar
    11    11    12   ar
    12    12    13   ar
    13    13    14    1
    14    14    15   ar
    15    15    16   ar
    16    16    17   ar
    17    17    18   ar
    18    18    19   ar
    19    19    20   ar
    20    20    21    1
    21    21    22    1
    22    22    23   ar
    23    23    24   ar
    24    24    25   ar
    25    25    26   ar
    26    26    27    1
    27    26    28   ar
    28    20    29   ar
    29    29    30   ar
    30    13    31   ar
    31     5    32    1
    32    32    33    1
    33    33    34    1
    34    33    35    1
    35    33    36    1
    36    36    37    1
    37    36     2    1
    38    31     9   ar
    39    30    14   ar
    40    29    16   ar
    41    28    22   ar
    42     1    38    1
    43     1    39    1
    44     1    40    1
    45     3    41    1
    46     3    42    1
    47     3    43    1
    48     4    44    1
    49     4    45    1
    50     5    46    1
    51     6    47    1
    52    10    48    1
    53    11    49    1
    54    12    50    1
    55    15    51    1
    56    18    52    1
    57    19    53    1
    58    21    54    1
    59    23    55    1
    60    24    56    1
    61    25    57    1
    62    27    58    1
    63    28    59    1
    64    31    60    1
    65    32    61    1
    66    32    62    1
    67    34    63    1
    68    34    64    1
    69    34    65    1
    70    35    66    1
    71    35    67    1
    72    35    68    1
