
     RDKit          3D

 37 39  0  0  0  0  0  0  0  0999 V2000
   -4.0086    1.7436    0.8640 C   0  0  0  0  0  0  0  0  0  0  0  0
   -3.3877    0.4723    0.6586 N   0  0  0  0  0  0  0  0  0  0  0  0
   -2.2040    0.5603   -0.1757 C   0  0  1  0  0  0  0  0  0  0  0  0
   -1.1595    1.4766    0.4603 C   0  0  0  0  0  0  0  0  0  0  0  0
   -0.0386    1.6118   -0.5329 C   0  0  0  0  0  0  0  0  0  0  0  0
    0.5134    0.3291   -1.0464 C   0  0  1  0  0  0  0  0  0  0  0  0
    1.9503    0.2600   -0.7136 C   0  0  0  0  0  0  0  0  0  0  0  0
    2.3326    0.6930    0.5407 C   0  0  0  0  0  0  0  0  0  0  0  0
    3.6634    0.6593    0.9274 C   0  0  0  0  0  0  0  0  0  0  0  0
    4.2396    1.1851    2.4903 Cl  0  0  0  0  0  0  0  0  0  0  0  0
    4.6104    0.1817    0.0313 C   0  0  0  0  0  0  0  0  0  0  0  0
    6.3209    0.1072    0.4475 Cl  0  0  0  0  0  0  0  0  0  0  0  0
    4.2658   -0.2562   -1.2224 C   0  0  0  0  0  0  0  0  0  0  0  0
    2.9326   -0.2064   -1.5682 C   0  0  0  0  0  0  0  0  0  0  0  0
   -0.2367   -0.8836   -0.7006 C   0  0  0  0  0  0  0  0  0  0  0  0
    0.4117   -2.0984   -0.8126 C   0  0  0  0  0  0  0  0  0  0  0  0
   -0.3153   -3.2447   -0.4798 C   0  0  0  0  0  0  0  0  0  0  0  0
   -1.6234   -3.1782   -0.0569 C   0  0  0  0  0  0  0  0  0  0  0  0
   -2.2175   -1.9454    0.0358 C   0  0  0  0  0  0  0  0  0  0  0  0
   -1.5513   -0.7723   -0.2793 C   0  0  0  0  0  0  0  0  0  0  0  0
   -4.9964    1.5755    1.3251 H   0  0  0  0  0  0  0  0  0  0  0  0
   -3.4456    2.4014    1.5616 H   0  0  0  0  0  0  0  0  0  0  0  0
   -4.1685    2.2726   -0.0926 H   0  0  0  0  0  0  0  0  0  0  0  0
   -3.1492    0.0428    1.5643 H   0  0  0  0  0  0  0  0  0  0  0  0
   -2.4566    0.9534   -1.1822 H   0  0  0  0  0  0  0  0  0  0  0  0
   -0.8572    1.0516    1.4321 H   0  0  0  0  0  0  0  0  0  0  0  0
   -1.6229    2.4887    0.5657 H   0  0  0  0  0  0  0  0  0  0  0  0
   -0.4523    2.2693   -1.3531 H   0  0  0  0  0  0  0  0  0  0  0  0
    0.7224    2.2643   -0.0422 H   0  0  0  0  0  0  0  0  0  0  0  0
    0.4808    0.3880   -2.1741 H   0  0  0  0  0  0  0  0  0  0  0  0
    1.6843    1.0833    1.3179 H   0  0  0  0  0  0  0  0  0  0  0  0
    5.0205   -0.6294   -1.9175 H   0  0  0  0  0  0  0  0  0  0  0  0
    2.6116   -0.5373   -2.5372 H   0  0  0  0  0  0  0  0  0  0  0  0
    1.4421   -2.1794   -1.1434 H   0  0  0  0  0  0  0  0  0  0  0  0
    0.1350   -4.2285   -0.5460 H   0  0  0  0  0  0  0  0  0  0  0  0
   -2.2027   -4.0672    0.2063 H   0  0  0  0  0  0  0  0  0  0  0  0
   -3.2436   -1.8440    0.3635 H   0  0  0  0  0  0  0  0  0  0  0  0
  1  2  1  0
  2  3  1  0
  3  4  1  0
  4  5  1  0
  5  6  1  0
  6  7  1  0
  7  8  2  0
  8  9  1  0
  9 10  1  0
  9 11  2  0
 11 12  1  0
 11 13  1  0
 13 14  2  0
  6 15  1  0
 15 16  2  0
 16 17  1  0
 17 18  2  0
 18 19  1  0
 19 20  2  0
 20  3  1  0
 14  7  1  0
 20 15  1  0
  1 21  1  0
  1 22  1  0
  1 23  1  0
  2 24  1  0
  3 25  1  6
  4 26  1  0
  4 27  1  0
  5 28  1  0
  5 29  1  0
  6 30  1  6
  8 31  1  0
 13 32  1  0
 14 33  1  0
 16 34  1  0
 17 35  1  0
 18 36  1  0
 19 37  1  0
M  END
$$$$
