
     RDKit          3D

 44 46  0  0  0  0  0  0  0  0999 V2000
   -2.8061   -1.3599    2.5847 C   0  0  0  0  0  0  0  0  0  0  0  0
   -2.6533   -0.5467    1.2933 C   0  0  1  0  0  0  0  0  0  0  0  0
   -1.6226   -1.1491    0.4928 C   0  0  0  0  0  0  0  0  0  0  0  0
   -0.4434   -0.4860    0.2238 C   0  0  0  0  0  0  0  0  0  0  0  0
    0.5316   -1.0985   -0.5539 C   0  0  0  0  0  0  0  0  0  0  0  0
    1.7839   -0.4547   -0.8685 N   0  0  0  0  0  0  0  0  0  0  0  0
    2.8567   -0.6471   -0.0031 C   0  0  0  0  0  0  0  0  0  0  0  0
    2.6244   -1.3915    1.0320 O   0  0  0  0  0  0  0  0  0  0  0  0
    4.1744   -0.0962   -0.1550 C   0  0  0  0  0  0  0  0  0  0  0  0
    4.9468   -0.0642    0.9762 N   0  0  0  0  0  0  0  0  0  0  0  0
    6.1777    0.4070    0.9046 C   0  0  0  0  0  0  0  0  0  0  0  0
    6.7143    0.8684   -0.2686 C   0  0  0  0  0  0  0  0  0  0  0  0
    8.0489    1.3716   -0.3099 C   0  0  0  0  0  0  0  0  0  0  0  0
    9.1361    1.8009   -0.3456 N   0  0  0  0  0  0  0  0  0  0  0  0
    5.9811    0.8516   -1.4064 C   0  0  0  0  0  0  0  0  0  0  0  0
    4.6643    0.3498   -1.3438 C   0  0  0  0  0  0  0  0  0  0  0  0
    3.7625    0.2954   -2.8407 Cl  0  0  0  0  0  0  0  0  0  0  0  0
    0.3412   -2.3606   -1.0630 C   0  0  0  0  0  0  0  0  0  0  0  0
   -0.8149   -2.9971   -0.7927 N   0  0  0  0  0  0  0  0  0  0  0  0
   -1.7628   -2.4052   -0.0383 C   0  0  0  0  0  0  0  0  0  0  0  0
   -2.9081   -3.0559    0.2195 F   0  0  0  0  0  0  0  0  0  0  0  0
   -3.9947   -0.3946    0.6431 C   0  0  0  0  0  0  0  0  0  0  0  0
   -3.8364    0.5690   -0.4915 C   0  0  1  0  0  0  0  0  0  0  0  0
   -5.1612    0.7806   -1.2219 C   0  0  0  0  0  0  0  0  0  0  0  0
   -6.0532    1.2865   -0.2863 F   0  0  0  0  0  0  0  0  0  0  0  0
   -4.9954    1.6310   -2.2782 F   0  0  0  0  0  0  0  0  0  0  0  0
   -5.5706   -0.4643   -1.6790 F   0  0  0  0  0  0  0  0  0  0  0  0
   -3.4178    1.8060    0.0471 O   0  0  0  0  0  0  0  0  0  0  0  0
   -2.5792    1.8799    1.1596 C   0  0  0  0  0  0  0  0  0  0  0  0
   -2.1198    3.1450    1.6515 N   0  0  0  0  0  0  0  0  0  0  0  0
   -2.2392    0.7750    1.7194 N   0  0  0  0  0  0  0  0  0  0  0  0
   -3.4570   -0.7523    3.2411 H   0  0  0  0  0  0  0  0  0  0  0  0
   -1.7905   -1.3907    3.0323 H   0  0  0  0  0  0  0  0  0  0  0  0
   -3.2161   -2.3603    2.3842 H   0  0  0  0  0  0  0  0  0  0  0  0
   -0.2230    0.5027    0.5871 H   0  0  0  0  0  0  0  0  0  0  0  0
    1.8030    0.1258   -1.7029 H   0  0  0  0  0  0  0  0  0  0  0  0
    6.7975    0.4381    1.7891 H   0  0  0  0  0  0  0  0  0  0  0  0
    6.3593    1.2022   -2.3460 H   0  0  0  0  0  0  0  0  0  0  0  0
    1.0611   -2.8829   -1.6707 H   0  0  0  0  0  0  0  0  0  0  0  0
   -4.4991   -1.3273    0.3975 H   0  0  0  0  0  0  0  0  0  0  0  0
   -4.6474    0.1168    1.4061 H   0  0  0  0  0  0  0  0  0  0  0  0
   -3.0535    0.2592   -1.2203 H   0  0  0  0  0  0  0  0  0  0  0  0
   -1.8180    3.8589    0.9706 H   0  0  0  0  0  0  0  0  0  0  0  0
   -2.0814    3.3635    2.6605 H   0  0  0  0  0  0  0  0  0  0  0  0
  2  1  1  1
  2  3  1  0
  3  4  2  0
  4  5  1  0
  5  6  1  0
  6  7  1  0
  7  8  2  0
  7  9  1  0
  9 10  2  0
 10 11  1  0
 11 12  2  0
 12 13  1  0
 13 14  3  0
 12 15  1  0
 15 16  2  0
 16 17  1  0
  5 18  2  0
 18 19  1  0
 19 20  2  0
 20 21  1  0
  2 22  1  0
 22 23  1  0
 23 24  1  0
 24 25  1  0
 24 26  1  0
 24 27  1  0
 23 28  1  0
 28 29  1  0
 29 30  1  0
 29 31  2  0
 31  2  1  0
 20  3  1  0
 16  9  1  0
  1 32  1  0
  1 33  1  0
  1 34  1  0
  4 35  1  0
  6 36  1  0
 11 37  1  0
 15 38  1  0
 18 39  1  0
 22 40  1  0
 22 41  1  0
 23 42  1  6
 30 43  1  0
 30 44  1  0
M  END
$$$$
