@<TRIPOS>MOLECULE
*****
 44 46 0 0 0
SMALL
GASTEIGER

@<TRIPOS>ATOM
      1 C          -2.8061   -1.3599    2.5847 C.3     1  UNL1       -0.0352
      2 C          -2.6533   -0.5467    1.2933 C.3     1  UNL1        0.0966
      3 C          -1.6226   -1.1491    0.4928 C.ar    1  UNL1        0.0359
      4 C          -0.4434   -0.4860    0.2238 C.ar    1  UNL1       -0.0292
      5 C           0.5316   -1.0985   -0.5539 C.ar    1  UNL1        0.0525
      6 N           1.7839   -0.4547   -0.8685 N.am    1  UNL1       -0.2789
      7 C           2.8567   -0.6471   -0.0031 C.2     1  UNL1        0.2680
      8 O           2.6244   -1.3915    1.0320 O.2     1  UNL1       -0.2681
      9 C           4.1744   -0.0962   -0.1550 C.ar    1  UNL1        0.1439
     10 N           4.9468   -0.0642    0.9762 N.ar    1  UNL1       -0.2476
     11 C           6.1777    0.4070    0.9046 C.ar    1  UNL1        0.0459
     12 C           6.7143    0.8684   -0.2686 C.ar    1  UNL1        0.0712
     13 C           8.0489    1.3716   -0.3099 C.1     1  UNL1        0.1007
     14 N           9.1361    1.8009   -0.3456 N.1     1  UNL1       -0.1908
     15 C           5.9811    0.8516   -1.4064 C.ar    1  UNL1       -0.0223
     16 C           4.6643    0.3498   -1.3438 C.ar    1  UNL1        0.0726
     17 CL          3.7625    0.2954   -2.8407 Cl      1  UNL1       -0.0811
     18 C           0.3412   -2.3606   -1.0630 C.ar    1  UNL1        0.0519
     19 N          -0.8149   -2.9971   -0.7927 N.ar    1  UNL1       -0.2255
     20 C          -1.7628   -2.4052   -0.0383 C.ar    1  UNL1        0.2188
     21 F          -2.9081   -3.0559    0.2195 F       1  UNL1       -0.1835
     22 C          -3.9947   -0.3946    0.6431 C.3     1  UNL1        0.0224
     23 C          -3.8364    0.5690   -0.4915 C.3     1  UNL1        0.1997
     24 C          -5.1612    0.7806   -1.2219 C.3     1  UNL1        0.4266
     25 F          -6.0532    1.2865   -0.2863 F       1  UNL1       -0.1669
     26 F          -4.9954    1.6310   -2.2782 F       1  UNL1       -0.1669
     27 F          -5.5706   -0.4643   -1.6790 F       1  UNL1       -0.1669
     28 O          -3.4178    1.8060    0.0471 O.2     1  UNL1       -0.4534
     29 C          -2.5792    1.8799    1.1596 C.2     1  UNL1        0.2765
     30 N          -2.1198    3.1450    1.6515 N.pl3   1  UNL1       -0.3134
     31 N          -2.2392    0.7750    1.7194 N.2     1  UNL1       -0.2256
     32 H          -3.4570   -0.7523    3.2411 H       1  UNL1        0.0256
     33 H          -1.7905   -1.3907    3.0323 H       1  UNL1        0.0256
     34 H          -3.2161   -2.3603    2.3842 H       1  UNL1        0.0256
     35 H          -0.2230    0.5027    0.5871 H       1  UNL1        0.0641
     36 H           1.8030    0.1258   -1.7029 H       1  UNL1        0.1552
     37 H           6.7975    0.4381    1.7891 H       1  UNL1        0.0843
     38 H           6.3593    1.2022   -2.3460 H       1  UNL1        0.0646
     39 H           1.0611   -2.8829   -1.6707 H       1  UNL1        0.0849
     40 H          -4.4991   -1.3273    0.3975 H       1  UNL1        0.0330
     41 H          -4.6474    0.1168    1.4061 H       1  UNL1        0.0330
     42 H          -3.0535    0.2592   -1.2203 H       1  UNL1        0.0826
     43 H          -1.8180    3.8589    0.9706 H       1  UNL1        0.1466
     44 H          -2.0814    3.3635    2.6605 H       1  UNL1        0.1466
@<TRIPOS>BOND
     1     2     1    1
     2     2     3    1
     3     3     4   ar
     4     4     5   ar
     5     5     6    1
     6     6     7   am
     7     7     8    2
     8     7     9    1
     9     9    10   ar
    10    10    11   ar
    11    11    12   ar
    12    12    13    1
    13    13    14    3
    14    12    15   ar
    15    15    16   ar
    16    16    17    1
    17     5    18   ar
    18    18    19   ar
    19    19    20   ar
    20    20    21    1
    21     2    22    1
    22    22    23    1
    23    23    24    1
    24    24    25    1
    25    24    26    1
    26    24    27    1
    27    23    28    1
    28    28    29    1
    29    29    30    1
    30    29    31    2
    31    31     2    1
    32    20     3   ar
    33    16     9   ar
    34     1    32    1
    35     1    33    1
    36     1    34    1
    37     4    35    1
    38     6    36    1
    39    11    37    1
    40    15    38    1
    41    18    39    1
    42    22    40    1
    43    22    41    1
    44    23    42    1
    45    30    43    1
    46    30    44    1
