@<TRIPOS>MOLECULE
*****
 47 50 0 0 0
SMALL
GASTEIGER

@<TRIPOS>ATOM
      1 C          -7.9566    1.7531   -0.4000 C.3     1  UNL1        0.0790
      2 O          -6.8831    1.4340   -1.1248 O.3     1  UNL1       -0.4915
      3 C          -5.5468    1.3801   -1.0594 C.ar    1  UNL1        0.1613
      4 C          -4.8917    1.7842    0.1237 C.ar    1  UNL1       -0.0160
      5 C          -3.5189    1.7401    0.2281 C.ar    1  UNL1       -0.0534
      6 C          -2.7197    1.3050   -0.8007 C.ar    1  UNL1       -0.0268
      7 C          -1.2529    1.2248   -0.7457 C.3     1  UNL1        0.0340
      8 N          -0.8357   -0.0770   -0.2592 N.pl3   1  UNL1       -0.3449
      9 C           0.5537   -0.4073   -0.0901 C.2     1  UNL1        0.0025
     10 C           1.0538   -0.3212    1.1014 C.2     1  UNL1        0.0584
     11 C           0.2090    0.0990    2.2220 C.2     1  UNL1        0.2523
     12 O          -1.0048    0.3702    2.0202 O.2     1  UNL1       -0.2697
     13 N           0.7822    0.1870    3.5098 N.am    1  UNL1       -0.2483
     14 C           2.1507   -0.1211    3.7296 C.2     1  UNL1        0.2511
     15 O           2.7023   -0.0501    4.8779 O.2     1  UNL1       -0.2698
     16 C           2.9709   -0.5380    2.5890 C.ar    1  UNL1        0.0450
     17 C           4.3157   -0.8528    2.7867 C.ar    1  UNL1       -0.0485
     18 C           5.1227   -1.2580    1.7403 C.ar    1  UNL1       -0.0533
     19 C           4.6255   -1.3622    0.4722 C.ar    1  UNL1       -0.0168
     20 C           5.4869   -1.8024   -0.6686 C.ar    1  UNL1       -0.0109
     21 C           5.3463   -1.4162   -1.9396 C.ar    1  UNL1       -0.0470
     22 C           6.1454   -1.8530   -2.9062 C.ar    1  UNL1       -0.0237
     23 S           7.2847   -2.9617   -2.0139 S.2     1  UNL1       -0.1045
     24 C           6.5695   -2.7234   -0.4392 C.ar    1  UNL1       -0.0166
     25 C           3.2869   -1.0480    0.2788 C.ar    1  UNL1       -0.0454
     26 C           2.4734   -0.6457    1.3079 C.ar    1  UNL1        0.0010
     27 C          -3.3607    0.9085   -1.9611 C.ar    1  UNL1       -0.0119
     28 C          -4.7284    0.9434   -2.0898 C.ar    1  UNL1        0.1587
     29 O          -5.3361    0.5296   -3.2906 O.3     1  UNL1       -0.5033
     30 H          -8.7678    0.9748   -0.4217 H       1  UNL1        0.0660
     31 H          -8.4050    2.7678   -0.5887 H       1  UNL1        0.0660
     32 H          -7.6942    1.8017    0.6992 H       1  UNL1        0.0660
     33 H          -5.5219    2.1274    0.9290 H       1  UNL1        0.0655
     34 H          -3.0173    2.0570    1.1480 H       1  UNL1        0.0622
     35 H          -0.7852    1.3330   -1.7653 H       1  UNL1        0.0511
     36 H          -0.8553    2.0354   -0.1333 H       1  UNL1        0.0511
     37 H          -1.5554   -0.7799   -0.0298 H       1  UNL1        0.1459
     38 H           1.0282   -0.6971   -1.0053 H       1  UNL1        0.0786
     39 H           0.1970    0.4815    4.3127 H       1  UNL1        0.1581
     40 H           4.6984   -0.7710    3.7936 H       1  UNL1        0.0625
     41 H           6.1623   -1.4902    1.9752 H       1  UNL1        0.0624
     42 H           4.5125   -0.6849   -2.2085 H       1  UNL1        0.0629
     43 H           6.2003   -1.6700   -3.9720 H       1  UNL1        0.0693
     44 H           6.8381   -3.1501    0.5311 H       1  UNL1        0.0699
     45 H           2.8876   -1.1296   -0.7239 H       1  UNL1        0.0630
     46 H          -2.7466    0.5582   -2.7792 H       1  UNL1        0.0658
     47 H          -6.2199    0.0151   -3.1692 H       1  UNL1        0.2923
@<TRIPOS>BOND
     1     1     2    1
     2     2     3    1
     3     3     4   ar
     4     4     5   ar
     5     5     6   ar
     6     6     7    1
     7     7     8    1
     8     8     9    1
     9     9    10    2
    10    10    11    1
    11    11    12    2
    12    11    13   am
    13    13    14   am
    14    14    15    2
    15    14    16    1
    16    16    17   ar
    17    17    18   ar
    18    18    19   ar
    19    19    20    1
    20    20    21   ar
    21    21    22   ar
    22    22    23   ar
    23    23    24   ar
    24    19    25   ar
    25    25    26   ar
    26     6    27   ar
    27    27    28   ar
    28    28    29    1
    29    28     3   ar
    30    26    10    1
    31    26    16   ar
    32    24    20   ar
    33     1    30    1
    34     1    31    1
    35     1    32    1
    36     4    33    1
    37     5    34    1
    38     7    35    1
    39     7    36    1
    40     8    37    1
    41     9    38    1
    42    13    39    1
    43    17    40    1
    44    18    41    1
    45    21    42    1
    46    22    43    1
    47    24    44    1
    48    25    45    1
    49    27    46    1
    50    29    47    1
