
     RDKit          3D

 47 50  0  0  0  0  0  0  0  0999 V2000
   -7.9566    1.7531   -0.4000 C   0  0  0  0  0  0  0  0  0  0  0  0
   -6.8831    1.4340   -1.1248 O   0  0  0  0  0  0  0  0  0  0  0  0
   -5.5468    1.3801   -1.0594 C   0  0  0  0  0  0  0  0  0  0  0  0
   -4.8917    1.7842    0.1237 C   0  0  0  0  0  0  0  0  0  0  0  0
   -3.5189    1.7401    0.2281 C   0  0  0  0  0  0  0  0  0  0  0  0
   -2.7197    1.3050   -0.8007 C   0  0  0  0  0  0  0  0  0  0  0  0
   -1.2529    1.2248   -0.7457 C   0  0  0  0  0  0  0  0  0  0  0  0
   -0.8357   -0.0770   -0.2592 N   0  0  0  0  0  0  0  0  0  0  0  0
    0.5537   -0.4073   -0.0901 C   0  0  0  0  0  0  0  0  0  0  0  0
    1.0538   -0.3212    1.1014 C   0  0  0  0  0  0  0  0  0  0  0  0
    0.2090    0.0990    2.2220 C   0  0  0  0  0  0  0  0  0  0  0  0
   -1.0048    0.3702    2.0202 O   0  0  0  0  0  0  0  0  0  0  0  0
    0.7822    0.1870    3.5098 N   0  0  0  0  0  0  0  0  0  0  0  0
    2.1507   -0.1211    3.7296 C   0  0  0  0  0  0  0  0  0  0  0  0
    2.7023   -0.0501    4.8779 O   0  0  0  0  0  0  0  0  0  0  0  0
    2.9709   -0.5380    2.5890 C   0  0  0  0  0  0  0  0  0  0  0  0
    4.3157   -0.8528    2.7867 C   0  0  0  0  0  0  0  0  0  0  0  0
    5.1227   -1.2580    1.7403 C   0  0  0  0  0  0  0  0  0  0  0  0
    4.6255   -1.3622    0.4722 C   0  0  0  0  0  0  0  0  0  0  0  0
    5.4869   -1.8024   -0.6686 C   0  0  0  0  0  0  0  0  0  0  0  0
    5.3463   -1.4162   -1.9396 C   0  0  0  0  0  0  0  0  0  0  0  0
    6.1454   -1.8530   -2.9062 C   0  0  0  0  0  0  0  0  0  0  0  0
    7.2847   -2.9617   -2.0139 S   0  0  0  0  0  0  0  0  0  0  0  0
    6.5695   -2.7234   -0.4392 C   0  0  0  0  0  0  0  0  0  0  0  0
    3.2869   -1.0480    0.2788 C   0  0  0  0  0  0  0  0  0  0  0  0
    2.4734   -0.6457    1.3079 C   0  0  0  0  0  0  0  0  0  0  0  0
   -3.3607    0.9085   -1.9611 C   0  0  0  0  0  0  0  0  0  0  0  0
   -4.7284    0.9434   -2.0898 C   0  0  0  0  0  0  0  0  0  0  0  0
   -5.3361    0.5296   -3.2906 O   0  0  0  0  0  0  0  0  0  0  0  0
   -8.7678    0.9748   -0.4217 H   0  0  0  0  0  0  0  0  0  0  0  0
   -8.4050    2.7678   -0.5887 H   0  0  0  0  0  0  0  0  0  0  0  0
   -7.6942    1.8017    0.6992 H   0  0  0  0  0  0  0  0  0  0  0  0
   -5.5219    2.1274    0.9290 H   0  0  0  0  0  0  0  0  0  0  0  0
   -3.0173    2.0570    1.1480 H   0  0  0  0  0  0  0  0  0  0  0  0
   -0.7852    1.3330   -1.7653 H   0  0  0  0  0  0  0  0  0  0  0  0
   -0.8553    2.0354   -0.1333 H   0  0  0  0  0  0  0  0  0  0  0  0
   -1.5554   -0.7799   -0.0298 H   0  0  0  0  0  0  0  0  0  0  0  0
    1.0282   -0.6971   -1.0053 H   0  0  0  0  0  0  0  0  0  0  0  0
    0.1970    0.4815    4.3127 H   0  0  0  0  0  0  0  0  0  0  0  0
    4.6984   -0.7710    3.7936 H   0  0  0  0  0  0  0  0  0  0  0  0
    6.1623   -1.4902    1.9752 H   0  0  0  0  0  0  0  0  0  0  0  0
    4.5125   -0.6849   -2.2085 H   0  0  0  0  0  0  0  0  0  0  0  0
    6.2003   -1.6700   -3.9720 H   0  0  0  0  0  0  0  0  0  0  0  0
    6.8381   -3.1501    0.5311 H   0  0  0  0  0  0  0  0  0  0  0  0
    2.8876   -1.1296   -0.7239 H   0  0  0  0  0  0  0  0  0  0  0  0
   -2.7466    0.5582   -2.7792 H   0  0  0  0  0  0  0  0  0  0  0  0
   -6.2199    0.0151   -3.1692 H   0  0  0  0  0  0  0  0  0  0  0  0
  1  2  1  0
  2  3  1  0
  3  4  2  0
  4  5  1  0
  5  6  2  0
  6  7  1  0
  7  8  1  0
  8  9  1  0
  9 10  2  3
 10 11  1  0
 11 12  2  0
 11 13  1  0
 13 14  1  0
 14 15  2  0
 14 16  1  0
 16 17  2  0
 17 18  1  0
 18 19  2  0
 19 20  1  0
 20 21  1  0
 21 22  2  0
 22 23  1  0
 23 24  1  0
 19 25  1  0
 25 26  2  0
  6 27  1  0
 27 28  2  0
 28 29  1  0
 28  3  1  0
 26 10  1  0
 26 16  1  0
 24 20  2  0
  1 30  1  0
  1 31  1  0
  1 32  1  0
  4 33  1  0
  5 34  1  0
  7 35  1  0
  7 36  1  0
  8 37  1  0
  9 38  1  0
 13 39  1  0
 17 40  1  0
 18 41  1  0
 21 42  1  0
 22 43  1  0
 24 44  1  0
 25 45  1  0
 27 46  1  0
 29 47  1  0
M  END
$$$$
