@<TRIPOS>MOLECULE
*****
 47 50 0 0 0
SMALL
GASTEIGER

@<TRIPOS>ATOM
      1 N           5.6854   -0.5463   -0.7875 N.am    1  UNL1       -0.3241
      2 C           4.2743   -0.4829   -0.6550 C.2     1  UNL1        0.2599
      3 O           3.5770   -1.0378   -1.5301 O.2     1  UNL1       -0.2687
      4 C           3.7086    0.2164    0.4791 C.ar    1  UNL1        0.1280
      5 C           4.4283    0.8507    1.4807 C.ar    1  UNL1        0.0588
      6 N           3.5161    1.3608    2.3181 N.ar    1  UNL1       -0.2353
      7 C           2.2899    1.0639    1.8682 C.ar    1  UNL1        0.1381
      8 C           1.0010    1.3386    2.3361 C.ar    1  UNL1       -0.0182
      9 C          -0.1307    0.9134    1.6784 C.ar    1  UNL1       -0.0477
     10 C          -0.0082    0.1881    0.5129 C.ar    1  UNL1        0.0173
     11 C          -1.1753   -0.2907   -0.2315 C.ar    1  UNL1        0.0782
     12 C          -2.1139    0.5668   -0.8094 C.ar    1  UNL1        0.0968
     13 C          -2.0660    2.0260   -0.7549 C.ar    1  UNL1        0.0040
     14 C          -1.0316    2.7295   -1.3170 C.ar    1  UNL1       -0.0497
     15 C          -1.0567    4.1040   -1.2250 C.ar    1  UNL1       -0.0244
     16 C          -2.0822    4.7817   -0.5905 C.ar    1  UNL1        0.1417
     17 F          -2.1131    6.1368   -0.4960 F       1  UNL1       -0.2040
     18 C          -3.1222    4.0747   -0.0254 C.ar    1  UNL1        0.0767
     19 CL         -4.4572    4.8607    0.7951 Cl      1  UNL1       -0.0806
     20 C          -3.0890    2.7060   -0.1217 C.ar    1  UNL1       -0.0313
     21 N          -3.0221   -0.2362   -1.3959 N.ar    1  UNL1       -0.2351
     22 C          -2.6498   -1.5160   -1.1823 C.ar    1  UNL1        0.0975
     23 N          -1.5201   -1.5619   -0.4703 N.ar    1  UNL1       -0.3220
     24 C          -0.7786   -2.7176   -0.0216 C.3     1  UNL1        0.0820
     25 C          -1.6671   -3.5371    0.9245 C.3     1  UNL1        0.0671
     26 O          -2.0104   -2.7261    2.0074 O.3     1  UNL1       -0.3929
     27 C          -0.4058   -3.5757   -1.2053 C.3     1  UNL1        0.0671
     28 O          -1.5322   -4.0029   -1.8662 O.3     1  UNL1       -0.3929
     29 C           1.2726   -0.0705    0.0710 C.ar    1  UNL1        0.0211
     30 N           2.3870    0.3587    0.7355 N.ar    1  UNL1       -0.2949
     31 H           6.1869   -0.5249   -1.7042 H       1  UNL1        0.1453
     32 H           6.2721   -0.6189    0.0709 H       1  UNL1        0.1453
     33 H           5.5127    0.9104    1.5536 H       1  UNL1        0.0853
     34 H           0.9430    1.9108    3.2550 H       1  UNL1        0.0654
     35 H          -1.1234    1.1312    2.0489 H       1  UNL1        0.0626
     36 H          -0.2130    2.2114   -1.8224 H       1  UNL1        0.0625
     37 H          -0.2534    4.6613   -1.6608 H       1  UNL1        0.0647
     38 H          -3.9052    2.1497    0.3218 H       1  UNL1        0.0640
     39 H          -3.1831   -2.3830   -1.5333 H       1  UNL1        0.1029
     40 H           0.1244   -2.4265    0.5127 H       1  UNL1        0.0574
     41 H          -1.1601   -4.4242    1.2999 H       1  UNL1        0.0578
     42 H          -2.6136   -3.7493    0.3831 H       1  UNL1        0.0578
     43 H          -2.5314   -1.9331    1.7277 H       1  UNL1        0.2095
     44 H           0.2461   -2.9682   -1.8567 H       1  UNL1        0.0578
     45 H           0.1160   -4.4721   -0.7937 H       1  UNL1        0.0578
     46 H          -1.9388   -4.8134   -1.4850 H       1  UNL1        0.2095
     47 H           1.4124   -0.6361   -0.8390 H       1  UNL1        0.0820
@<TRIPOS>BOND
     1     1     2   am
     2     2     3    2
     3     2     4    1
     4     4     5   ar
     5     5     6   ar
     6     6     7   ar
     7     7     8   ar
     8     8     9   ar
     9     9    10   ar
    10    10    11    1
    11    11    12   ar
    12    12    13    1
    13    13    14   ar
    14    14    15   ar
    15    15    16   ar
    16    16    17    1
    17    16    18   ar
    18    18    19    1
    19    18    20   ar
    20    12    21   ar
    21    21    22   ar
    22    22    23   ar
    23    23    24    1
    24    24    25    1
    25    25    26    1
    26    24    27    1
    27    27    28    1
    28    10    29   ar
    29    29    30   ar
    30    30     4   ar
    31    30     7   ar
    32    23    11   ar
    33    20    13   ar
    34     1    31    1
    35     1    32    1
    36     5    33    1
    37     8    34    1
    38     9    35    1
    39    14    36    1
    40    15    37    1
    41    20    38    1
    42    22    39    1
    43    24    40    1
    44    25    41    1
    45    25    42    1
    46    26    43    1
    47    27    44    1
    48    27    45    1
    49    28    46    1
    50    29    47    1
