
     RDKit          3D

 47 50  0  0  0  0  0  0  0  0999 V2000
    5.6854   -0.5463   -0.7875 N   0  0  0  0  0  0  0  0  0  0  0  0
    4.2743   -0.4829   -0.6550 C   0  0  0  0  0  0  0  0  0  0  0  0
    3.5770   -1.0378   -1.5301 O   0  0  0  0  0  0  0  0  0  0  0  0
    3.7086    0.2164    0.4791 C   0  0  0  0  0  0  0  0  0  0  0  0
    4.4283    0.8507    1.4807 C   0  0  0  0  0  0  0  0  0  0  0  0
    3.5161    1.3608    2.3181 N   0  0  0  0  0  0  0  0  0  0  0  0
    2.2899    1.0639    1.8682 C   0  0  0  0  0  0  0  0  0  0  0  0
    1.0010    1.3386    2.3361 C   0  0  0  0  0  0  0  0  0  0  0  0
   -0.1307    0.9134    1.6784 C   0  0  0  0  0  0  0  0  0  0  0  0
   -0.0082    0.1881    0.5129 C   0  0  0  0  0  0  0  0  0  0  0  0
   -1.1753   -0.2907   -0.2315 C   0  0  0  0  0  0  0  0  0  0  0  0
   -2.1139    0.5668   -0.8094 C   0  0  0  0  0  0  0  0  0  0  0  0
   -2.0660    2.0260   -0.7549 C   0  0  0  0  0  0  0  0  0  0  0  0
   -1.0316    2.7295   -1.3170 C   0  0  0  0  0  0  0  0  0  0  0  0
   -1.0567    4.1040   -1.2250 C   0  0  0  0  0  0  0  0  0  0  0  0
   -2.0822    4.7817   -0.5905 C   0  0  0  0  0  0  0  0  0  0  0  0
   -2.1131    6.1368   -0.4960 F   0  0  0  0  0  0  0  0  0  0  0  0
   -3.1222    4.0747   -0.0254 C   0  0  0  0  0  0  0  0  0  0  0  0
   -4.4572    4.8607    0.7951 Cl  0  0  0  0  0  0  0  0  0  0  0  0
   -3.0890    2.7060   -0.1217 C   0  0  0  0  0  0  0  0  0  0  0  0
   -3.0221   -0.2362   -1.3959 N   0  0  0  0  0  0  0  0  0  0  0  0
   -2.6498   -1.5160   -1.1823 C   0  0  0  0  0  0  0  0  0  0  0  0
   -1.5201   -1.5619   -0.4703 N   0  0  0  0  0  0  0  0  0  0  0  0
   -0.7786   -2.7176   -0.0216 C   0  0  0  0  0  0  0  0  0  0  0  0
   -1.6671   -3.5371    0.9245 C   0  0  0  0  0  0  0  0  0  0  0  0
   -2.0104   -2.7261    2.0074 O   0  0  0  0  0  0  0  0  0  0  0  0
   -0.4058   -3.5757   -1.2053 C   0  0  0  0  0  0  0  0  0  0  0  0
   -1.5322   -4.0029   -1.8662 O   0  0  0  0  0  0  0  0  0  0  0  0
    1.2726   -0.0705    0.0710 C   0  0  0  0  0  0  0  0  0  0  0  0
    2.3870    0.3587    0.7355 N   0  0  0  0  0  0  0  0  0  0  0  0
    6.1869   -0.5249   -1.7042 H   0  0  0  0  0  0  0  0  0  0  0  0
    6.2721   -0.6189    0.0709 H   0  0  0  0  0  0  0  0  0  0  0  0
    5.5127    0.9104    1.5536 H   0  0  0  0  0  0  0  0  0  0  0  0
    0.9430    1.9108    3.2550 H   0  0  0  0  0  0  0  0  0  0  0  0
   -1.1234    1.1312    2.0489 H   0  0  0  0  0  0  0  0  0  0  0  0
   -0.2130    2.2114   -1.8224 H   0  0  0  0  0  0  0  0  0  0  0  0
   -0.2534    4.6613   -1.6608 H   0  0  0  0  0  0  0  0  0  0  0  0
   -3.9052    2.1497    0.3218 H   0  0  0  0  0  0  0  0  0  0  0  0
   -3.1831   -2.3830   -1.5333 H   0  0  0  0  0  0  0  0  0  0  0  0
    0.1244   -2.4265    0.5127 H   0  0  0  0  0  0  0  0  0  0  0  0
   -1.1601   -4.4242    1.2999 H   0  0  0  0  0  0  0  0  0  0  0  0
   -2.6136   -3.7493    0.3831 H   0  0  0  0  0  0  0  0  0  0  0  0
   -2.5314   -1.9331    1.7277 H   0  0  0  0  0  0  0  0  0  0  0  0
    0.2461   -2.9682   -1.8567 H   0  0  0  0  0  0  0  0  0  0  0  0
    0.1160   -4.4721   -0.7937 H   0  0  0  0  0  0  0  0  0  0  0  0
   -1.9388   -4.8134   -1.4850 H   0  0  0  0  0  0  0  0  0  0  0  0
    1.4124   -0.6361   -0.8390 H   0  0  0  0  0  0  0  0  0  0  0  0
  1  2  1  0
  2  3  2  0
  2  4  1  0
  4  5  2  0
  5  6  1  0
  6  7  2  0
  7  8  1  0
  8  9  2  0
  9 10  1  0
 10 11  1  0
 11 12  2  0
 12 13  1  0
 13 14  2  0
 14 15  1  0
 15 16  2  0
 16 17  1  0
 16 18  1  0
 18 19  1  0
 18 20  2  0
 12 21  1  0
 21 22  2  0
 22 23  1  0
 23 24  1  0
 24 25  1  0
 25 26  1  0
 24 27  1  0
 27 28  1  0
 10 29  2  0
 29 30  1  0
 30  4  1  0
 30  7  1  0
 23 11  1  0
 20 13  1  0
  1 31  1  0
  1 32  1  0
  5 33  1  0
  8 34  1  0
  9 35  1  0
 14 36  1  0
 15 37  1  0
 20 38  1  0
 22 39  1  0
 24 40  1  0
 25 41  1  0
 25 42  1  0
 26 43  1  0
 27 44  1  0
 27 45  1  0
 28 46  1  0
 29 47  1  0
M  END
$$$$
