
     RDKit          3D

 36 38  0  0  0  0  0  0  0  0999 V2000
   -3.1966   -1.8643    0.5076 C   0  0  0  0  0  0  0  0  0  0  0  0
   -3.4135   -0.8645   -0.4514 N   0  0  0  0  0  0  0  0  0  0  0  0
   -2.2954   -0.1329   -0.9129 C   0  0  0  0  0  0  0  0  0  0  0  0
   -1.2744   -1.0027   -1.5530 C   0  0  0  0  0  0  0  0  0  0  0  0
   -0.1139   -0.1033   -2.0104 C   0  0  0  0  0  0  0  0  0  0  0  0
    0.5567    0.2402   -0.7484 N   0  0  0  0  0  0  0  0  0  0  0  0
    1.9112   -0.0478   -0.4762 C   0  0  0  0  0  0  0  0  0  0  0  0
    2.8664   -0.0450   -1.5047 C   0  0  0  0  0  0  0  0  0  0  0  0
    4.1855   -0.3475   -1.2570 C   0  0  0  0  0  0  0  0  0  0  0  0
    4.6149   -0.6633    0.0075 C   0  0  0  0  0  0  0  0  0  0  0  0
    6.2813   -1.0565    0.3833 Cl  0  0  0  0  0  0  0  0  0  0  0  0
    3.7118   -0.6789    1.0484 C   0  0  0  0  0  0  0  0  0  0  0  0
    4.2328   -1.0813    2.6872 Cl  0  0  0  0  0  0  0  0  0  0  0  0
    2.4016   -0.3724    0.7677 C   0  0  0  0  0  0  0  0  0  0  0  0
   -0.2698    0.9013    0.1973 C   0  0  0  0  0  0  0  0  0  0  0  0
    0.3076    1.7023    1.1555 C   0  0  0  0  0  0  0  0  0  0  0  0
   -0.4593    2.3601    2.1060 C   0  0  0  0  0  0  0  0  0  0  0  0
   -1.8162    2.1624    2.0284 C   0  0  0  0  0  0  0  0  0  0  0  0
   -2.4100    1.3701    1.0818 C   0  0  0  0  0  0  0  0  0  0  0  0
   -1.6580    0.7112    0.1318 C   0  0  0  0  0  0  0  0  0  0  0  0
   -2.8233   -2.8403    0.1013 H   0  0  0  0  0  0  0  0  0  0  0  0
   -2.4729   -1.5769    1.3151 H   0  0  0  0  0  0  0  0  0  0  0  0
   -4.1485   -2.0969    1.0278 H   0  0  0  0  0  0  0  0  0  0  0  0
   -4.3229   -0.3934   -0.4669 H   0  0  0  0  0  0  0  0  0  0  0  0
   -2.6725    0.5671   -1.7187 H   0  0  0  0  0  0  0  0  0  0  0  0
   -1.6207   -1.5598   -2.4258 H   0  0  0  0  0  0  0  0  0  0  0  0
   -0.8626   -1.6818   -0.7757 H   0  0  0  0  0  0  0  0  0  0  0  0
   -0.4886    0.8430   -2.4348 H   0  0  0  0  0  0  0  0  0  0  0  0
    0.5513   -0.6324   -2.6969 H   0  0  0  0  0  0  0  0  0  0  0  0
    2.5671    0.1981   -2.5117 H   0  0  0  0  0  0  0  0  0  0  0  0
    4.9300   -0.3461   -2.0543 H   0  0  0  0  0  0  0  0  0  0  0  0
    1.7121   -0.4100    1.6064 H   0  0  0  0  0  0  0  0  0  0  0  0
    1.4004    1.8410    1.1654 H   0  0  0  0  0  0  0  0  0  0  0  0
    0.0149    2.9780    2.8423 H   0  0  0  0  0  0  0  0  0  0  0  0
   -2.4287    2.6785    2.7759 H   0  0  0  0  0  0  0  0  0  0  0  0
   -3.4979    1.2448    1.0621 H   0  0  0  0  0  0  0  0  0  0  0  0
  1  2  1  0
  2  3  1  0
  3  4  1  0
  4  5  1  0
  5  6  1  0
  6  7  1  0
  7  8  2  0
  8  9  1  0
  9 10  2  0
 10 11  1  0
 10 12  1  0
 12 13  1  0
 12 14  2  0
  6 15  1  0
 15 16  2  0
 16 17  1  0
 17 18  2  0
 18 19  1  0
 19 20  2  0
 20  3  1  0
 14  7  1  0
 20 15  1  0
  1 21  1  0
  1 22  1  0
  1 23  1  0
  2 24  1  0
  3 25  1  0
  4 26  1  0
  4 27  1  0
  5 28  1  0
  5 29  1  0
  8 30  1  0
  9 31  1  0
 14 32  1  0
 16 33  1  0
 17 34  1  0
 18 35  1  0
 19 36  1  0
M  END
$$$$
