@<TRIPOS>MOLECULE
*****
 36 38 0 0 0
SMALL
GASTEIGER

@<TRIPOS>ATOM
      1 C          -3.1966   -1.8643    0.5076 C.3     1  UNL1       -0.0152
      2 N          -3.4135   -0.8645   -0.4514 N.3     1  UNL1       -0.3122
      3 C          -2.2954   -0.1329   -0.9129 C.3     1  UNL1        0.0358
      4 C          -1.2744   -1.0027   -1.5530 C.3     1  UNL1       -0.0172
      5 C          -0.1139   -0.1033   -2.0104 C.3     1  UNL1        0.0190
      6 N           0.5567    0.2402   -0.7484 N.pl3   1  UNL1       -0.2997
      7 C           1.9112   -0.0478   -0.4762 C.ar    1  UNL1        0.0354
      8 C           2.8664   -0.0450   -1.5047 C.ar    1  UNL1       -0.0389
      9 C           4.1855   -0.3475   -1.2570 C.ar    1  UNL1       -0.0402
     10 C           4.6149   -0.6633    0.0075 C.ar    1  UNL1        0.0594
     11 CL          6.2813   -1.0565    0.3833 Cl      1  UNL1       -0.0820
     12 C           3.7118   -0.6789    1.0484 C.ar    1  UNL1        0.0610
     13 CL          4.2328   -1.0813    2.6872 Cl      1  UNL1       -0.0820
     14 C           2.4016   -0.3724    0.7677 C.ar    1  UNL1       -0.0206
     15 C          -0.2698    0.9013    0.1973 C.ar    1  UNL1        0.0386
     16 C           0.3076    1.7023    1.1555 C.ar    1  UNL1       -0.0400
     17 C          -0.4593    2.3601    2.1060 C.ar    1  UNL1       -0.0600
     18 C          -1.8162    2.1624    2.0284 C.ar    1  UNL1       -0.0613
     19 C          -2.4100    1.3701    1.0818 C.ar    1  UNL1       -0.0553
     20 C          -1.6580    0.7112    0.1318 C.ar    1  UNL1       -0.0091
     21 H          -2.8233   -2.8403    0.1013 H       1  UNL1        0.0388
     22 H          -2.4729   -1.5769    1.3151 H       1  UNL1        0.0388
     23 H          -4.1485   -2.0969    1.0278 H       1  UNL1        0.0388
     24 H          -4.3229   -0.3934   -0.4669 H       1  UNL1        0.1222
     25 H          -2.6725    0.5671   -1.7187 H       1  UNL1        0.0511
     26 H          -1.6207   -1.5598   -2.4258 H       1  UNL1        0.0299
     27 H          -0.8626   -1.6818   -0.7757 H       1  UNL1        0.0299
     28 H          -0.4886    0.8430   -2.4348 H       1  UNL1        0.0468
     29 H           0.5513   -0.6324   -2.6969 H       1  UNL1        0.0468
     30 H           2.5671    0.1981   -2.5117 H       1  UNL1        0.0637
     31 H           4.9300   -0.3461   -2.0543 H       1  UNL1        0.0633
     32 H           1.7121   -0.4100    1.6064 H       1  UNL1        0.0651
     33 H           1.4004    1.8410    1.1654 H       1  UNL1        0.0636
     34 H           0.0149    2.9780    2.8423 H       1  UNL1        0.0618
     35 H          -2.4287    2.6785    2.7759 H       1  UNL1        0.0618
     36 H          -3.4979    1.2448    1.0621 H       1  UNL1        0.0621
@<TRIPOS>BOND
     1     1     2    1
     2     2     3    1
     3     3     4    1
     4     4     5    1
     5     5     6    1
     6     6     7    1
     7     7     8   ar
     8     8     9   ar
     9     9    10   ar
    10    10    11    1
    11    10    12   ar
    12    12    13    1
    13    12    14   ar
    14     6    15    1
    15    15    16   ar
    16    16    17   ar
    17    17    18   ar
    18    18    19   ar
    19    19    20   ar
    20    20     3    1
    21    14     7   ar
    22    20    15   ar
    23     1    21    1
    24     1    22    1
    25     1    23    1
    26     2    24    1
    27     3    25    1
    28     4    26    1
    29     4    27    1
    30     5    28    1
    31     5    29    1
    32     8    30    1
    33     9    31    1
    34    14    32    1
    35    16    33    1
    36    17    34    1
    37    18    35    1
    38    19    36    1
