@<TRIPOS>MOLECULE
*****
 46 48 0 0 0
SMALL
GASTEIGER

@<TRIPOS>ATOM
      1 C           7.1884    1.1026    0.2024 C.3     1  UNL1        0.0364
      2 O           6.9945    0.1731    1.1113 O.3     1  UNL1       -0.3829
      3 C           6.1038   -0.7738    1.2556 C.3     1  UNL1        0.0504
      4 C           4.6348   -0.5403    1.3301 C.3     1  UNL1        0.0049
      5 C           4.0799   -0.0058    0.0497 C.3     1  UNL1        0.0917
      6 O           2.7792    0.2239   -0.0036 O.3     1  UNL1       -0.4915
      7 C           1.5355    0.4501   -0.0472 C.ar    1  UNL1        0.1266
      8 C           0.7615   -0.2210   -1.0006 C.ar    1  UNL1        0.0134
      9 C           1.4012   -1.1785   -1.9368 C.3     1  UNL1       -0.0345
     10 C          -0.6145   -0.0625   -1.1506 C.ar    1  UNL1        0.0603
     11 C          -1.3605   -0.7982   -2.2032 C.3     1  UNL1        0.0734
     12 S          -2.8611    0.0716   -2.6790 S.O     1  UNL1        0.0954
     13 O          -2.5273    1.4391   -3.2811 O.2     1  UNL1       -0.2488
     14 C          -3.9541    0.2499   -1.2710 C.ar    1  UNL1        0.1981
     15 N          -4.7383   -0.8460   -1.2159 N.ar    1  UNL1       -0.2200
     16 C          -5.5875   -0.7624   -0.1633 C.ar    1  UNL1        0.0900
     17 C          -6.6061   -1.4835    0.4580 C.ar    1  UNL1       -0.0342
     18 C          -7.2351   -0.9869    1.5789 C.ar    1  UNL1       -0.0596
     19 C          -6.8919    0.2229    2.1264 C.ar    1  UNL1       -0.0597
     20 C          -5.8879    0.9867    1.5555 C.ar    1  UNL1       -0.0362
     21 C          -5.2845    0.4555    0.4369 C.ar    1  UNL1        0.0669
     22 N          -4.2846    1.0460   -0.2645 N.ar    1  UNL1       -0.3310
     23 N          -1.1809    0.8031   -0.2973 N.ar    1  UNL1       -0.2585
     24 C          -0.5040    1.4800    0.6381 C.ar    1  UNL1        0.0314
     25 C           0.8585    1.3359    0.8012 C.ar    1  UNL1       -0.0015
     26 H           8.1938    1.6240    0.4715 H       1  UNL1        0.0523
     27 H           7.1569    0.8608   -0.8687 H       1  UNL1        0.0523
     28 H           6.4411    1.9722    0.3312 H       1  UNL1        0.0523
     29 H           6.4128   -1.5079    2.0937 H       1  UNL1        0.0561
     30 H           6.2524   -1.5037    0.3564 H       1  UNL1        0.0561
     31 H           4.1522   -1.5003    1.6340 H       1  UNL1        0.0320
     32 H           4.3749    0.1504    2.1932 H       1  UNL1        0.0320
     33 H           4.6849    0.8801   -0.2694 H       1  UNL1        0.0697
     34 H           4.3388   -0.8293   -0.7230 H       1  UNL1        0.0697
     35 H           0.6994   -1.9671   -2.2754 H       1  UNL1        0.0279
     36 H           2.2166   -1.7087   -1.4059 H       1  UNL1        0.0279
     37 H           1.8657   -0.6098   -2.7631 H       1  UNL1        0.0279
     38 H          -0.7006   -0.7557   -3.1203 H       1  UNL1        0.0470
     39 H          -1.6044   -1.8263   -1.9264 H       1  UNL1        0.0470
     40 H          -6.8299   -2.4268   -0.0213 H       1  UNL1        0.0639
     41 H          -8.0006   -1.6724    1.9329 H       1  UNL1        0.0618
     42 H          -7.4353    0.5396    3.0079 H       1  UNL1        0.0618
     43 H          -5.6061    1.9331    1.9705 H       1  UNL1        0.0639
     44 H          -3.7254    1.9078   -0.2450 H       1  UNL1        0.1679
     45 H          -1.0661    2.1642    1.2847 H       1  UNL1        0.0831
     46 H           1.3599    1.8943    1.5601 H       1  UNL1        0.0669
@<TRIPOS>BOND
     1     1     2    1
     2     2     3    1
     3     3     4    1
     4     4     5    1
     5     5     6    1
     6     6     7    1
     7     7     8   ar
     8     8     9    1
     9     8    10   ar
    10    10    11    1
    11    11    12    1
    12    12    13    2
    13    12    14    1
    14    14    15   ar
    15    15    16   ar
    16    16    17   ar
    17    17    18   ar
    18    18    19   ar
    19    19    20   ar
    20    20    21   ar
    21    21    22   ar
    22    10    23   ar
    23    23    24   ar
    24    24    25   ar
    25    25     7   ar
    26    22    14   ar
    27    21    16   ar
    28     1    26    1
    29     1    27    1
    30     1    28    1
    31     3    29    1
    32     3    30    1
    33     4    31    1
    34     4    32    1
    35     5    33    1
    36     5    34    1
    37     9    35    1
    38     9    36    1
    39     9    37    1
    40    11    38    1
    41    11    39    1
    42    17    40    1
    43    18    41    1
    44    19    42    1
    45    20    43    1
    46    22    44    1
    47    24    45    1
    48    25    46    1
