@<TRIPOS>MOLECULE
*****
 37 39 0 0 0
SMALL
GASTEIGER

@<TRIPOS>ATOM
      1 C           6.3586    1.4563    0.2756 C.3     1  UNL1        0.0788
      2 O           4.9653    1.3985    0.4447 O.3     1  UNL1       -0.4950
      3 C           4.1772    0.3210    0.0086 C.ar    1  UNL1        0.1219
      4 C           2.8283    0.4985    0.2912 C.ar    1  UNL1        0.0027
      5 C           1.9472   -0.4973   -0.0901 C.ar    1  UNL1        0.0547
      6 C           2.3555   -1.6457   -0.7326 C.ar    1  UNL1       -0.0388
      7 C           3.7057   -1.7638   -0.9851 C.ar    1  UNL1       -0.0565
      8 C           4.6353   -0.8114   -0.6329 C.ar    1  UNL1       -0.0198
      9 N           0.5482   -0.3170    0.2010 N.pl3   1  UNL1       -0.2021
     10 C          -0.2667   -0.6877    1.3692 C.3     1  UNL1        0.0390
     11 C          -1.3492    0.3499    1.5146 C.3     1  UNL1       -0.0077
     12 C          -2.4495    0.1441    0.5374 C.ar    1  UNL1       -0.0100
     13 C          -2.0048    0.2042   -0.7519 C.ar    1  UNL1        0.1509
     14 S          -3.4360   -0.0592   -1.7296 S.2     1  UNL1       -0.0482
     15 C          -4.5762   -0.2398   -0.3644 C.ar    1  UNL1        0.1443
     16 C          -3.7675   -0.0826    0.7996 C.ar    1  UNL1       -0.0229
     17 S          -6.3278   -0.5474   -0.4744 S.O2    1  UNL1        0.0623
     18 N          -7.1167    0.7177   -1.3305 N.3     1  UNL1       -0.2030
     19 O          -6.8365   -0.7523    0.8968 O.2     1  UNL1       -0.1527
     20 O          -6.4523   -1.8022   -1.2903 O.2     1  UNL1       -0.1527
     21 S          -0.3060    0.4943   -1.0933 S.O2    1  UNL1        0.0813
     22 O           0.0540   -0.1728   -2.3999 O.2     1  UNL1       -0.1493
     23 O           0.0219    1.9469   -1.0727 O.2     1  UNL1       -0.1493
     24 H           6.8991    1.1738    1.2080 H       1  UNL1        0.0660
     25 H           6.7388    0.8763   -0.5905 H       1  UNL1        0.0660
     26 H           6.6238    2.5281    0.0957 H       1  UNL1        0.0660
     27 H           2.4218    1.3671    0.7911 H       1  UNL1        0.0673
     28 H           1.6768   -2.4374   -1.0388 H       1  UNL1        0.0637
     29 H           4.1058   -2.6480   -1.4920 H       1  UNL1        0.0619
     30 H           5.6912   -0.8606   -0.8083 H       1  UNL1        0.0654
     31 H          -0.7201   -1.6619    1.1457 H       1  UNL1        0.0485
     32 H           0.3517   -0.6676    2.2726 H       1  UNL1        0.0485
     33 H          -1.6735    0.3364    2.5700 H       1  UNL1        0.0330
     34 H          -0.8997    1.3711    1.3646 H       1  UNL1        0.0330
     35 H          -4.2375   -0.1516    1.7686 H       1  UNL1        0.0646
     36 H          -7.2446    1.5354   -0.6695 H       1  UNL1        0.1443
     37 H          -6.4412    1.0865   -2.0486 H       1  UNL1        0.1443
@<TRIPOS>BOND
     1     1     2    1
     2     2     3    1
     3     3     4   ar
     4     4     5   ar
     5     5     6   ar
     6     6     7   ar
     7     7     8   ar
     8     5     9    1
     9     9    10    1
    10    10    11    1
    11    11    12    1
    12    12    13   ar
    13    13    14   ar
    14    14    15   ar
    15    15    16   ar
    16    15    17    1
    17    17    18    1
    18    17    19    2
    19    17    20    2
    20    13    21    1
    21    21    22    2
    22    21    23    2
    23     8     3   ar
    24    21     9    1
    25    16    12   ar
    26     1    24    1
    27     1    25    1
    28     1    26    1
    29     4    27    1
    30     6    28    1
    31     7    29    1
    32     8    30    1
    33    10    31    1
    34    10    32    1
    35    11    33    1
    36    11    34    1
    37    16    35    1
    38    18    36    1
    39    18    37    1
