@<TRIPOS>MOLECULE
*****
 71 76 0 0 0
SMALL
GASTEIGER

@<TRIPOS>ATOM
      1 C          -6.5165    2.8025    0.6298 C.3     1  UNL1        0.0032
      2 N          -7.0589    1.8928   -0.3609 N.am    1  UNL1       -0.3024
      3 C          -8.4924    1.9506   -0.5778 C.3     1  UNL1        0.0032
      4 C          -6.2902    0.9857   -1.0995 C.2     1  UNL1        0.2627
      5 O          -6.8203    0.2402   -1.9334 O.2     1  UNL1       -0.2684
      6 C          -4.8533    0.9171   -0.8885 C.ar    1  UNL1        0.1070
      7 C          -4.0146    1.9661   -1.3122 C.ar    1  UNL1       -0.0209
      8 C          -2.7483    1.5873   -0.9433 C.ar    1  UNL1        0.0378
      9 C          -1.4918    2.1776   -1.0625 C.ar    1  UNL1        0.0419
     10 N          -0.4434    1.5101   -0.5606 N.ar    1  UNL1       -0.2219
     11 C          -0.4768    0.3259    0.0474 C.ar    1  UNL1        0.2224
     12 N           0.6723   -0.3000    0.5888 N.pl3   1  UNL1       -0.2685
     13 C           1.9921    0.1589    0.5216 C.ar    1  UNL1        0.1250
     14 C           2.4164    1.2513   -0.1777 C.ar    1  UNL1       -0.0208
     15 C           3.7432    1.7096   -0.1681 C.ar    1  UNL1       -0.0449
     16 C           4.6672    1.0357    0.5781 C.ar    1  UNL1        0.0551
     17 C           6.0328    1.4761    0.6333 C.2     1  UNL1        0.2482
     18 O           6.2362    2.6159    1.1543 O.2     1  UNL1       -0.2699
     19 N           7.1419    0.7082    0.1383 N.am    1  UNL1       -0.2945
     20 C           6.9063   -0.5732   -0.4543 C.3     1  UNL1        0.0304
     21 C           8.1524   -1.2531   -0.9761 C.3     1  UNL1        0.0237
     22 C           8.8871   -1.8266    0.2359 C.3     1  UNL1       -0.0346
     23 C           9.9333   -0.7662    0.4885 C.3     1  UNL1       -0.0346
     24 C           9.5240    0.4188   -0.3626 C.3     1  UNL1        0.0237
     25 C           8.4879    1.2763    0.2624 C.3     1  UNL1        0.0304
     26 N           8.9884   -0.2286   -1.5361 N.3     1  UNL1       -0.3075
     27 C           4.2466   -0.0605    1.2804 C.ar    1  UNL1        0.0418
     28 N           2.9567   -0.4803    1.2496 N.ar    1  UNL1       -0.2394
     29 N          -1.7082   -0.2491    0.1587 N.ar    1  UNL1       -0.1962
     30 C          -2.8139    0.3644   -0.3234 C.ar    1  UNL1        0.1466
     31 N          -4.1318   -0.0369   -0.2997 N.ar    1  UNL1       -0.3180
     32 C          -4.5646   -1.2952    0.2659 C.3     1  UNL1        0.0366
     33 C          -5.7167   -1.0789    1.2094 C.3     1  UNL1       -0.0320
     34 C          -6.9168   -1.8941    0.8393 C.3     1  UNL1       -0.0512
     35 C          -6.4579   -3.3500    0.8094 C.3     1  UNL1       -0.0529
     36 C          -5.5783   -3.5075   -0.3831 C.3     1  UNL1       -0.0512
     37 C          -4.8006   -2.3121   -0.7970 C.3     1  UNL1       -0.0320
     38 H          -5.5172    2.5092    0.9952 H       1  UNL1        0.0428
     39 H          -7.2345    2.8678    1.4549 H       1  UNL1        0.0428
     40 H          -6.3956    3.7753    0.1265 H       1  UNL1        0.0428
     41 H          -8.7461    2.5696   -1.4592 H       1  UNL1        0.0428
     42 H          -8.8906    0.9383   -0.7569 H       1  UNL1        0.0428
     43 H          -9.0218    2.4050    0.2937 H       1  UNL1        0.0428
     44 H          -4.2970    2.8807   -1.8196 H       1  UNL1        0.0647
     45 H          -1.4469    3.1367   -1.5546 H       1  UNL1        0.0838
     46 H           0.5228   -1.2208    1.1042 H       1  UNL1        0.1564
     47 H           1.7579    1.8321   -0.7962 H       1  UNL1        0.0652
     48 H           4.0538    2.5836   -0.7381 H       1  UNL1        0.0627
     49 H           6.2073   -0.3997   -1.3137 H       1  UNL1        0.0480
     50 H           6.3900   -1.3049    0.1982 H       1  UNL1        0.0480
     51 H           7.9200   -2.0442   -1.7001 H       1  UNL1        0.0476
     52 H           9.3138   -2.8236    0.0046 H       1  UNL1        0.0281
     53 H           8.2256   -1.9105    1.1148 H       1  UNL1        0.0281
     54 H          10.0878   -0.5242    1.5434 H       1  UNL1        0.0281
     55 H          10.8858   -1.1781    0.0673 H       1  UNL1        0.0281
     56 H          10.4694    0.9781   -0.5979 H       1  UNL1        0.0476
     57 H           8.7125    1.5787    1.3071 H       1  UNL1        0.0480
     58 H           8.4594    2.2393   -0.3273 H       1  UNL1        0.0480
     59 H           8.3660    0.4519   -2.0287 H       1  UNL1        0.1226
     60 H           4.9704   -0.5901    1.8833 H       1  UNL1        0.0838
     61 H          -3.7398   -1.7169    0.9146 H       1  UNL1        0.0528
     62 H          -6.0425   -0.0169    1.2849 H       1  UNL1        0.0285
     63 H          -5.4617   -1.3543    2.2653 H       1  UNL1        0.0285
     64 H          -7.3551   -1.6898   -0.1323 H       1  UNL1        0.0266
     65 H          -7.7057   -1.7413    1.6061 H       1  UNL1        0.0266
     66 H          -6.0011   -3.5888    1.7746 H       1  UNL1        0.0265
     67 H          -7.4041   -3.9404    0.7072 H       1  UNL1        0.0265
     68 H          -4.9359   -4.4304   -0.2336 H       1  UNL1        0.0266
     69 H          -6.2535   -3.8243   -1.2341 H       1  UNL1        0.0266
     70 H          -3.7725   -2.6993   -1.0886 H       1  UNL1        0.0285
     71 H          -5.2107   -1.9063   -1.7433 H       1  UNL1        0.0285
@<TRIPOS>BOND
     1     1     2    1
     2     2     3    1
     3     2     4   am
     4     4     5    2
     5     4     6    1
     6     6     7   ar
     7     7     8   ar
     8     8     9   ar
     9     9    10   ar
    10    10    11   ar
    11    11    12    1
    12    12    13    1
    13    13    14   ar
    14    14    15   ar
    15    15    16   ar
    16    16    17    1
    17    17    18    2
    18    17    19   am
    19    19    20    1
    20    20    21    1
    21    21    22    1
    22    22    23    1
    23    23    24    1
    24    24    25    1
    25    24    26    1
    26    16    27   ar
    27    27    28   ar
    28    11    29   ar
    29    29    30   ar
    30    30    31   ar
    31    31    32    1
    32    32    33    1
    33    33    34    1
    34    34    35    1
    35    35    36    1
    36    36    37    1
    37    31     6   ar
    38    37    32    1
    39    30     8   ar
    40    28    13   ar
    41    25    19    1
    42    26    21    1
    43     1    38    1
    44     1    39    1
    45     1    40    1
    46     3    41    1
    47     3    42    1
    48     3    43    1
    49     7    44    1
    50     9    45    1
    51    12    46    1
    52    14    47    1
    53    15    48    1
    54    20    49    1
    55    20    50    1
    56    21    51    1
    57    22    52    1
    58    22    53    1
    59    23    54    1
    60    23    55    1
    61    24    56    1
    62    25    57    1
    63    25    58    1
    64    26    59    1
    65    27    60    1
    66    32    61    1
    67    33    62    1
    68    33    63    1
    69    34    64    1
    70    34    65    1
    71    35    66    1
    72    35    67    1
    73    36    68    1
    74    36    69    1
    75    37    70    1
    76    37    71    1
