
     RDKit          3D

 56 58  0  0  0  0  0  0  0  0999 V2000
   -6.1447    1.0175   -1.8597 C   0  0  0  0  0  0  0  0  0  0  0  0
   -4.6465    1.0052   -1.8106 C   0  0  0  0  0  0  0  0  0  0  0  0
   -4.0073    1.6646   -3.0038 C   0  0  0  0  0  0  0  0  0  0  0  0
   -4.2240    1.8089   -0.5833 C   0  0  0  0  0  0  0  0  0  0  0  0
   -4.1487   -0.3948   -1.6404 C   0  0  0  0  0  0  0  0  0  0  0  0
   -3.4032   -0.9122   -2.4939 O   0  0  0  0  0  0  0  0  0  0  0  0
   -4.5115   -1.1259   -0.5351 O   0  0  0  0  0  0  0  0  0  0  0  0
   -4.0882   -2.4356   -0.3071 C   0  0  0  0  0  0  0  0  0  0  0  0
   -2.6828   -2.5743   -0.2181 O   0  0  0  0  0  0  0  0  0  0  0  0
   -1.9037   -1.9400    0.7114 C   0  0  0  0  0  0  0  0  0  0  0  0
   -2.4250   -1.1843    1.5498 O   0  0  0  0  0  0  0  0  0  0  0  0
   -0.4026   -2.1210    0.7663 C   0  0  0  0  0  0  0  0  0  0  0  0
    0.2446   -0.8348    0.4022 C   0  0  0  0  0  0  0  0  0  0  0  0
    0.6635    0.1690    1.1346 C   0  0  0  0  0  0  0  0  0  0  0  0
    0.5441    0.1620    2.5699 C   0  0  0  0  0  0  0  0  0  0  0  0
    0.0503   -0.7871    3.2188 O   0  0  0  0  0  0  0  0  0  0  0  0
    1.2798    1.3822    0.5211 C   0  0  0  0  0  0  0  0  0  0  0  0
    2.6664    1.4728    1.0906 C   0  0  0  0  0  0  0  0  0  0  0  0
    3.7360    1.4393    0.3485 C   0  0  0  0  0  0  0  0  0  0  0  0
    5.0867    1.5229    0.8499 C   0  0  0  0  0  0  0  0  0  0  0  0
    6.1611    1.4775   -0.0307 C   0  0  0  0  0  0  0  0  0  0  0  0
    7.4740    1.5509    0.3688 C   0  0  0  0  0  0  0  0  0  0  0  0
    7.7671    1.6769    1.7114 C   0  0  0  0  0  0  0  0  0  0  0  0
    6.7212    1.7241    2.6042 C   0  0  0  0  0  0  0  0  0  0  0  0
    5.3958    1.6477    2.1752 C   0  0  0  0  0  0  0  0  0  0  0  0
    0.3207   -0.9368   -1.0227 O   0  0  0  0  0  0  0  0  0  0  0  0
    0.8097   -2.2450   -1.2874 C   0  0  2  0  0  0  0  0  0  0  0  0
    0.1237   -3.0646   -2.3184 C   0  0  0  0  0  0  0  0  0  0  0  0
    0.1714   -4.1009   -1.2103 C   0  0  0  0  0  0  0  0  0  0  0  0
    0.3085   -5.3214   -1.0889 O   0  0  0  0  0  0  0  0  0  0  0  0
   -0.0174   -3.0200   -0.3311 N   0  0  0  0  0  0  0  0  0  0  0  0
   -6.5912    1.5697   -1.0228 H   0  0  0  0  0  0  0  0  0  0  0  0
   -6.4903    1.4491   -2.8410 H   0  0  0  0  0  0  0  0  0  0  0  0
   -6.5158   -0.0271   -1.8624 H   0  0  0  0  0  0  0  0  0  0  0  0
   -4.5431    1.4444   -3.9425 H   0  0  0  0  0  0  0  0  0  0  0  0
   -2.9440    1.3281   -3.0513 H   0  0  0  0  0  0  0  0  0  0  0  0
   -3.9564    2.7735   -2.8667 H   0  0  0  0  0  0  0  0  0  0  0  0
   -3.2096    2.2300   -0.6906 H   0  0  0  0  0  0  0  0  0  0  0  0
   -4.3044    1.1914    0.3361 H   0  0  0  0  0  0  0  0  0  0  0  0
   -4.9629    2.6384   -0.5012 H   0  0  0  0  0  0  0  0  0  0  0  0
   -4.5877   -2.7839    0.6414 H   0  0  0  0  0  0  0  0  0  0  0  0
   -4.4318   -3.1587   -1.0844 H   0  0  0  0  0  0  0  0  0  0  0  0
   -0.1105   -2.5212    1.7329 H   0  0  0  0  0  0  0  0  0  0  0  0
    0.8950    1.0219    3.1734 H   0  0  0  0  0  0  0  0  0  0  0  0
    1.3988    1.2724   -0.5749 H   0  0  0  0  0  0  0  0  0  0  0  0
    0.7103    2.2980    0.7588 H   0  0  0  0  0  0  0  0  0  0  0  0
    2.7727    1.5697    2.1614 H   0  0  0  0  0  0  0  0  0  0  0  0
    3.5752    1.3397   -0.7348 H   0  0  0  0  0  0  0  0  0  0  0  0
    5.9271    1.3779   -1.0936 H   0  0  0  0  0  0  0  0  0  0  0  0
    8.3063    1.5154   -0.3180 H   0  0  0  0  0  0  0  0  0  0  0  0
    8.8063    1.7351    2.0284 H   0  0  0  0  0  0  0  0  0  0  0  0
    6.9671    1.8238    3.6605 H   0  0  0  0  0  0  0  0  0  0  0  0
    4.6422    1.6908    2.9222 H   0  0  0  0  0  0  0  0  0  0  0  0
    1.8802   -2.3984   -1.1883 H   0  0  0  0  0  0  0  0  0  0  0  0
    0.7288   -3.3446   -3.1958 H   0  0  0  0  0  0  0  0  0  0  0  0
   -0.8815   -2.7583   -2.6031 H   0  0  0  0  0  0  0  0  0  0  0  0
  1  2  1  0
  2  3  1  0
  2  4  1  0
  2  5  1  0
  5  6  2  0
  5  7  1  0
  7  8  1  0
  8  9  1  0
  9 10  1  0
 10 11  2  0
 10 12  1  0
 12 13  1  0
 13 14  2  3
 14 15  1  0
 15 16  2  0
 14 17  1  0
 17 18  1  0
 18 19  2  3
 19 20  1  0
 20 21  2  0
 21 22  1  0
 22 23  2  0
 23 24  1  0
 24 25  2  0
 13 26  1  0
 26 27  1  0
 27 28  1  0
 28 29  1  0
 29 30  2  0
 29 31  1  0
 31 12  1  0
 25 20  1  0
 31 27  1  0
  1 32  1  0
  1 33  1  0
  1 34  1  0
  3 35  1  0
  3 36  1  0
  3 37  1  0
  4 38  1  0
  4 39  1  0
  4 40  1  0
  8 41  1  0
  8 42  1  0
 12 43  1  0
 15 44  1  0
 17 45  1  0
 17 46  1  0
 18 47  1  0
 19 48  1  0
 21 49  1  0
 22 50  1  0
 23 51  1  0
 24 52  1  0
 25 53  1  0
 27 54  1  1
 28 55  1  0
 28 56  1  0
M  END
$$$$
