@<TRIPOS>MOLECULE
*****
 56 58 0 0 0
SMALL
GASTEIGER

@<TRIPOS>ATOM
      1 C          -6.1447    1.0175   -1.8597 C.3     1  UNL1       -0.0499
      2 C          -4.6465    1.0052   -1.8106 C.3     1  UNL1        0.0595
      3 C          -4.0073    1.6646   -3.0038 C.3     1  UNL1       -0.0499
      4 C          -4.2240    1.8089   -0.5833 C.3     1  UNL1       -0.0499
      5 C          -4.1487   -0.3948   -1.6404 C.2     1  UNL1        0.3152
      6 O          -3.4032   -0.9122   -2.4939 O.2     1  UNL1       -0.2502
      7 O          -4.5115   -1.1259   -0.5351 O.3     1  UNL1       -0.4269
      8 C          -4.0882   -2.4356   -0.3071 C.3     1  UNL1        0.2388
      9 O          -2.6828   -2.5743   -0.2181 O.3     1  UNL1       -0.4257
     10 C          -1.9037   -1.9400    0.7114 C.2     1  UNL1        0.3383
     11 O          -2.4250   -1.1843    1.5498 O.2     1  UNL1       -0.2481
     12 C          -0.4026   -2.1210    0.7663 C.3     1  UNL1        0.1838
     13 C           0.2446   -0.8348    0.4022 C.2     1  UNL1        0.1382
     14 C           0.6635    0.1690    1.1346 C.2     1  UNL1        0.0354
     15 C           0.5441    0.1620    2.5699 C.2     1  UNL1        0.1498
     16 O           0.0503   -0.7871    3.2188 O.2     1  UNL1       -0.2959
     17 C           1.2798    1.3822    0.5211 C.3     1  UNL1       -0.0029
     18 C           2.6664    1.4728    1.0906 C.2     1  UNL1       -0.0789
     19 C           3.7360    1.4393    0.3485 C.2     1  UNL1       -0.0582
     20 C           5.0867    1.5229    0.8499 C.ar    1  UNL1       -0.0253
     21 C           6.1611    1.4775   -0.0307 C.ar    1  UNL1       -0.0546
     22 C           7.4740    1.5509    0.3688 C.ar    1  UNL1       -0.0612
     23 C           7.7671    1.6769    1.7114 C.ar    1  UNL1       -0.0617
     24 C           6.7212    1.7241    2.6042 C.ar    1  UNL1       -0.0612
     25 C           5.3958    1.6477    2.1752 C.ar    1  UNL1       -0.0546
     26 O           0.3207   -0.9368   -1.0227 O.2     1  UNL1       -0.4716
     27 C           0.8097   -2.2450   -1.2874 C.3     1  UNL1        0.1784
     28 C           0.1237   -3.0646   -2.3184 C.3     1  UNL1        0.0786
     29 C           0.1714   -4.1009   -1.2103 C.2     1  UNL1        0.2244
     30 O           0.3085   -5.3214   -1.0889 O.2     1  UNL1       -0.2753
     31 N          -0.0174   -3.0200   -0.3311 N.am    1  UNL1       -0.2451
     32 H          -6.5912    1.5697   -1.0228 H       1  UNL1        0.0240
     33 H          -6.4903    1.4491   -2.8410 H       1  UNL1        0.0240
     34 H          -6.5158   -0.0271   -1.8624 H       1  UNL1        0.0240
     35 H          -4.5431    1.4444   -3.9425 H       1  UNL1        0.0240
     36 H          -2.9440    1.3281   -3.0513 H       1  UNL1        0.0240
     37 H          -3.9564    2.7735   -2.8667 H       1  UNL1        0.0240
     38 H          -3.2096    2.2300   -0.6906 H       1  UNL1        0.0240
     39 H          -4.3044    1.1914    0.3361 H       1  UNL1        0.0240
     40 H          -4.9629    2.6384   -0.5012 H       1  UNL1        0.0240
     41 H          -4.5877   -2.7839    0.6414 H       1  UNL1        0.1168
     42 H          -4.4318   -3.1587   -1.0844 H       1  UNL1        0.1168
     43 H          -0.1105   -2.5212    1.7329 H       1  UNL1        0.0701
     44 H           0.8950    1.0219    3.1734 H       1  UNL1        0.1079
     45 H           1.3988    1.2724   -0.5749 H       1  UNL1        0.0358
     46 H           0.7103    2.2980    0.7588 H       1  UNL1        0.0358
     47 H           2.7727    1.5697    2.1614 H       1  UNL1        0.0575
     48 H           3.5752    1.3397   -0.7348 H       1  UNL1        0.0620
     49 H           5.9271    1.3779   -1.0936 H       1  UNL1        0.0623
     50 H           8.3063    1.5154   -0.3180 H       1  UNL1        0.0618
     51 H           8.8063    1.7351    2.0284 H       1  UNL1        0.0618
     52 H           6.9671    1.8238    3.6605 H       1  UNL1        0.0618
     53 H           4.6422    1.6908    2.9222 H       1  UNL1        0.0623
     54 H           1.8802   -2.3984   -1.1883 H       1  UNL1        0.0957
     55 H           0.7288   -3.3446   -3.1958 H       1  UNL1        0.0412
     56 H          -0.8815   -2.7583   -2.6031 H       1  UNL1        0.0412
@<TRIPOS>BOND
     1     1     2    1
     2     2     3    1
     3     2     4    1
     4     2     5    1
     5     5     6    2
     6     5     7    1
     7     7     8    1
     8     8     9    1
     9     9    10    1
    10    10    11    2
    11    10    12    1
    12    12    13    1
    13    13    14    2
    14    14    15    1
    15    15    16    2
    16    14    17    1
    17    17    18    1
    18    18    19    2
    19    19    20    1
    20    20    21   ar
    21    21    22   ar
    22    22    23   ar
    23    23    24   ar
    24    24    25   ar
    25    13    26    1
    26    26    27    1
    27    27    28    1
    28    28    29    1
    29    29    30    2
    30    29    31   am
    31    31    12    1
    32    25    20   ar
    33    31    27    1
    34     1    32    1
    35     1    33    1
    36     1    34    1
    37     3    35    1
    38     3    36    1
    39     3    37    1
    40     4    38    1
    41     4    39    1
    42     4    40    1
    43     8    41    1
    44     8    42    1
    45    12    43    1
    46    15    44    1
    47    17    45    1
    48    17    46    1
    49    18    47    1
    50    19    48    1
    51    21    49    1
    52    22    50    1
    53    23    51    1
    54    24    52    1
    55    25    53    1
    56    27    54    1
    57    28    55    1
    58    28    56    1
