@<TRIPOS>MOLECULE
*****
 67 69 0 0 0
SMALL
GASTEIGER

@<TRIPOS>ATOM
      1 C          -1.9169   -3.0655    3.0827 C.3     1  UNL1        0.0370
      2 O          -1.1058   -2.2946    2.3076 O.3     1  UNL1       -0.3756
      3 C          -1.3828   -2.2756    0.9461 C.3     1  UNL1        0.1033
      4 C          -1.4624   -0.9578    0.3188 C.3     1  UNL1        0.0512
      5 C          -2.8780   -0.3635    0.1795 C.3     1  UNL1        0.1015
      6 C          -3.7231   -0.2937    1.4281 C.3     1  UNL1       -0.0329
      7 O          -2.7119    0.9722   -0.4235 O.3     1  UNL1       -0.3642
      8 C          -3.4156    0.0145   -1.1071 C.3     1  UNL1        0.0920
      9 C          -4.8342    0.2578   -1.3972 C.3     1  UNL1       -0.0054
     10 C          -5.5546    1.3082   -0.6626 C.2     1  UNL1       -0.0828
     11 C          -5.9897    2.4559   -1.1439 C.2     1  UNL1       -0.0795
     12 C          -5.8263    2.9091   -2.5385 C.3     1  UNL1       -0.0440
     13 C          -6.7432    3.3902   -0.2210 C.3     1  UNL1       -0.0440
     14 C          -0.9214   -0.9850   -1.1113 C.3     1  UNL1        0.1009
     15 C          -1.2934   -2.2715   -1.7418 C.3     1  UNL1       -0.0177
     16 C          -0.4079   -3.3465   -1.1132 C.3     1  UNL1       -0.0105
     17 C          -0.2915   -3.1787    0.3579 C.3     1  UNL1        0.1299
     18 O           1.0001   -2.7265    0.6608 O.3     1  UNL1       -0.4556
     19 C           1.8838   -3.3849    1.4555 C.2     1  UNL1        0.3323
     20 O           1.5927   -4.4592    2.0024 O.2     1  UNL1       -0.2456
     21 C           3.2028   -2.8027    1.6563 C.2     1  UNL1        0.0225
     22 C           3.5584   -1.6652    1.0827 C.2     1  UNL1       -0.0550
     23 C           4.8430   -1.0092    1.2184 C.2     1  UNL1       -0.0615
     24 C           5.0184    0.1249    0.5645 C.2     1  UNL1       -0.0618
     25 C           6.2646    0.8643    0.6277 C.2     1  UNL1       -0.0618
     26 C           6.3589    1.9918   -0.0522 C.2     1  UNL1       -0.0615
     27 C           7.5928    2.7472   -0.0088 C.2     1  UNL1       -0.0550
     28 C           7.7017    3.8817   -0.6782 C.2     1  UNL1        0.0223
     29 C           8.9079    4.6925   -0.6831 C.2     1  UNL1        0.3295
     30 O           9.9449    4.3932   -0.0705 O.2     1  UNL1       -0.2458
     31 O           8.9281    5.8784   -1.4067 O.3     1  UNL1       -0.4775
     32 C           0.4939   -0.5098   -1.3373 C.3     1  UNL1        0.0779
     33 O          -0.6450    0.1501   -1.7926 O.3     1  UNL1       -0.3678
     34 H          -1.8801   -4.1402    2.7414 H       1  UNL1        0.0524
     35 H          -2.9430   -2.7824    3.2383 H       1  UNL1        0.0524
     36 H          -1.4631   -3.1326    4.1222 H       1  UNL1        0.0524
     37 H          -2.3210   -2.8425    0.7994 H       1  UNL1        0.0637
     38 H          -0.8762   -0.2124    0.8682 H       1  UNL1        0.0385
     39 H          -3.1774   -0.6696    2.3226 H       1  UNL1        0.0258
     40 H          -3.9546    0.7648    1.6502 H       1  UNL1        0.0258
     41 H          -4.6759   -0.8158    1.2253 H       1  UNL1        0.0258
     42 H          -2.8688   -0.4357   -2.0173 H       1  UNL1        0.0628
     43 H          -5.4171   -0.7260   -1.3527 H       1  UNL1        0.0333
     44 H          -4.9641    0.5224   -2.5014 H       1  UNL1        0.0333
     45 H          -5.7805    1.1037    0.3917 H       1  UNL1        0.0572
     46 H          -6.7663    2.7065   -3.1000 H       1  UNL1        0.0274
     47 H          -4.9821    2.4240   -3.0705 H       1  UNL1        0.0274
     48 H          -5.6513    4.0090   -2.6109 H       1  UNL1        0.0274
     49 H          -7.2821    4.1668   -0.7878 H       1  UNL1        0.0274
     50 H          -6.0121    3.8832    0.4423 H       1  UNL1        0.0274
     51 H          -7.4599    2.7956    0.3959 H       1  UNL1        0.0274
     52 H          -2.3379   -2.6092   -1.5405 H       1  UNL1        0.0295
     53 H          -1.0868   -2.3194   -2.8308 H       1  UNL1        0.0295
     54 H          -0.8214   -4.3224   -1.4299 H       1  UNL1        0.0303
     55 H           0.5869   -3.2381   -1.6024 H       1  UNL1        0.0303
     56 H          -0.4256   -4.1533    0.8482 H       1  UNL1        0.0760
     57 H           3.9108   -3.3032    2.2830 H       1  UNL1        0.0689
     58 H           2.7757   -1.2149    0.4572 H       1  UNL1        0.0620
     59 H           5.6588   -1.3534    1.8073 H       1  UNL1        0.0618
     60 H           4.2060    0.5271   -0.0421 H       1  UNL1        0.0618
     61 H           7.1163    0.5378    1.1991 H       1  UNL1        0.0618
     62 H           5.5222    2.3529   -0.6388 H       1  UNL1        0.0618
     63 H           8.4306    2.4069    0.5557 H       1  UNL1        0.0620
     64 H           6.8331    4.1911   -1.2370 H       1  UNL1        0.0689
     65 H           9.7844    6.4226   -1.5560 H       1  UNL1        0.2954
     66 H           0.9665    0.0108   -0.4804 H       1  UNL1        0.0589
     67 H           1.1676   -0.9963   -2.0446 H       1  UNL1        0.0589
@<TRIPOS>BOND
     1     1     2    1
     2     2     3    1
     3     3     4    1
     4     4     5    1
     5     5     6    1
     6     5     7    1
     7     7     8    1
     8     8     9    1
     9     9    10    1
    10    10    11    2
    11    11    12    1
    12    11    13    1
    13     4    14    1
    14    14    15    1
    15    15    16    1
    16    16    17    1
    17    17    18    1
    18    18    19    1
    19    19    20    2
    20    19    21    1
    21    21    22    2
    22    22    23    1
    23    23    24    2
    24    24    25    1
    25    25    26    2
    26    26    27    1
    27    27    28    2
    28    28    29    1
    29    29    30    2
    30    29    31    1
    31    14    32    1
    32    32    33    1
    33    17     3    1
    34     8     5    1
    35    14    33    1
    36     1    34    1
    37     1    35    1
    38     1    36    1
    39     3    37    1
    40     4    38    1
    41     6    39    1
    42     6    40    1
    43     6    41    1
    44     8    42    1
    45     9    43    1
    46     9    44    1
    47    10    45    1
    48    12    46    1
    49    12    47    1
    50    12    48    1
    51    13    49    1
    52    13    50    1
    53    13    51    1
    54    15    52    1
    55    15    53    1
    56    16    54    1
    57    16    55    1
    58    17    56    1
    59    21    57    1
    60    22    58    1
    61    23    59    1
    62    24    60    1
    63    25    61    1
    64    26    62    1
    65    27    63    1
    66    28    64    1
    67    31    65    1
    68    32    66    1
    69    32    67    1
