
     RDKit          3D

 67 69  0  0  0  0  0  0  0  0999 V2000
   -1.9169   -3.0655    3.0827 C   0  0  0  0  0  0  0  0  0  0  0  0
   -1.1058   -2.2946    2.3076 O   0  0  0  0  0  0  0  0  0  0  0  0
   -1.3828   -2.2756    0.9461 C   0  0  1  0  0  0  0  0  0  0  0  0
   -1.4624   -0.9578    0.3188 C   0  0  2  0  0  0  0  0  0  0  0  0
   -2.8780   -0.3635    0.1795 C   0  0  1  0  0  0  0  0  0  0  0  0
   -3.7231   -0.2937    1.4281 C   0  0  0  0  0  0  0  0  0  0  0  0
   -2.7119    0.9722   -0.4235 O   0  0  0  0  0  0  0  0  0  0  0  0
   -3.4156    0.0145   -1.1071 C   0  0  2  0  0  0  0  0  0  0  0  0
   -4.8342    0.2578   -1.3972 C   0  0  0  0  0  0  0  0  0  0  0  0
   -5.5546    1.3082   -0.6626 C   0  0  0  0  0  0  0  0  0  0  0  0
   -5.9897    2.4559   -1.1439 C   0  0  0  0  0  0  0  0  0  0  0  0
   -5.8263    2.9091   -2.5385 C   0  0  0  0  0  0  0  0  0  0  0  0
   -6.7432    3.3902   -0.2210 C   0  0  0  0  0  0  0  0  0  0  0  0
   -0.9214   -0.9850   -1.1113 C   0  0  2  0  0  0  0  0  0  0  0  0
   -1.2934   -2.2715   -1.7418 C   0  0  0  0  0  0  0  0  0  0  0  0
   -0.4079   -3.3465   -1.1132 C   0  0  0  0  0  0  0  0  0  0  0  0
   -0.2915   -3.1787    0.3579 C   0  0  1  0  0  0  0  0  0  0  0  0
    1.0001   -2.7265    0.6608 O   0  0  0  0  0  0  0  0  0  0  0  0
    1.8838   -3.3849    1.4555 C   0  0  0  0  0  0  0  0  0  0  0  0
    1.5927   -4.4592    2.0024 O   0  0  0  0  0  0  0  0  0  0  0  0
    3.2028   -2.8027    1.6563 C   0  0  0  0  0  0  0  0  0  0  0  0
    3.5584   -1.6652    1.0827 C   0  0  0  0  0  0  0  0  0  0  0  0
    4.8430   -1.0092    1.2184 C   0  0  0  0  0  0  0  0  0  0  0  0
    5.0184    0.1249    0.5645 C   0  0  0  0  0  0  0  0  0  0  0  0
    6.2646    0.8643    0.6277 C   0  0  0  0  0  0  0  0  0  0  0  0
    6.3589    1.9918   -0.0522 C   0  0  0  0  0  0  0  0  0  0  0  0
    7.5928    2.7472   -0.0088 C   0  0  0  0  0  0  0  0  0  0  0  0
    7.7017    3.8817   -0.6782 C   0  0  0  0  0  0  0  0  0  0  0  0
    8.9079    4.6925   -0.6831 C   0  0  0  0  0  0  0  0  0  0  0  0
    9.9449    4.3932   -0.0705 O   0  0  0  0  0  0  0  0  0  0  0  0
    8.9281    5.8784   -1.4067 O   0  0  0  0  0  0  0  0  0  0  0  0
    0.4939   -0.5098   -1.3373 C   0  0  0  0  0  0  0  0  0  0  0  0
   -0.6450    0.1501   -1.7926 O   0  0  0  0  0  0  0  0  0  0  0  0
   -1.8801   -4.1402    2.7414 H   0  0  0  0  0  0  0  0  0  0  0  0
   -2.9430   -2.7824    3.2383 H   0  0  0  0  0  0  0  0  0  0  0  0
   -1.4631   -3.1326    4.1222 H   0  0  0  0  0  0  0  0  0  0  0  0
   -2.3210   -2.8425    0.7994 H   0  0  0  0  0  0  0  0  0  0  0  0
   -0.8762   -0.2124    0.8682 H   0  0  0  0  0  0  0  0  0  0  0  0
   -3.1774   -0.6696    2.3226 H   0  0  0  0  0  0  0  0  0  0  0  0
   -3.9546    0.7648    1.6502 H   0  0  0  0  0  0  0  0  0  0  0  0
   -4.6759   -0.8158    1.2253 H   0  0  0  0  0  0  0  0  0  0  0  0
   -2.8688   -0.4357   -2.0173 H   0  0  0  0  0  0  0  0  0  0  0  0
   -5.4171   -0.7260   -1.3527 H   0  0  0  0  0  0  0  0  0  0  0  0
   -4.9641    0.5224   -2.5014 H   0  0  0  0  0  0  0  0  0  0  0  0
   -5.7805    1.1037    0.3917 H   0  0  0  0  0  0  0  0  0  0  0  0
   -6.7663    2.7065   -3.1000 H   0  0  0  0  0  0  0  0  0  0  0  0
   -4.9821    2.4240   -3.0705 H   0  0  0  0  0  0  0  0  0  0  0  0
   -5.6513    4.0090   -2.6109 H   0  0  0  0  0  0  0  0  0  0  0  0
   -7.2821    4.1668   -0.7878 H   0  0  0  0  0  0  0  0  0  0  0  0
   -6.0121    3.8832    0.4423 H   0  0  0  0  0  0  0  0  0  0  0  0
   -7.4599    2.7956    0.3959 H   0  0  0  0  0  0  0  0  0  0  0  0
   -2.3379   -2.6092   -1.5405 H   0  0  0  0  0  0  0  0  0  0  0  0
   -1.0868   -2.3194   -2.8308 H   0  0  0  0  0  0  0  0  0  0  0  0
   -0.8214   -4.3224   -1.4299 H   0  0  0  0  0  0  0  0  0  0  0  0
    0.5869   -3.2381   -1.6024 H   0  0  0  0  0  0  0  0  0  0  0  0
   -0.4256   -4.1533    0.8482 H   0  0  0  0  0  0  0  0  0  0  0  0
    3.9108   -3.3032    2.2830 H   0  0  0  0  0  0  0  0  0  0  0  0
    2.7757   -1.2149    0.4572 H   0  0  0  0  0  0  0  0  0  0  0  0
    5.6588   -1.3534    1.8073 H   0  0  0  0  0  0  0  0  0  0  0  0
    4.2060    0.5271   -0.0421 H   0  0  0  0  0  0  0  0  0  0  0  0
    7.1163    0.5378    1.1991 H   0  0  0  0  0  0  0  0  0  0  0  0
    5.5222    2.3529   -0.6388 H   0  0  0  0  0  0  0  0  0  0  0  0
    8.4306    2.4069    0.5557 H   0  0  0  0  0  0  0  0  0  0  0  0
    6.8331    4.1911   -1.2370 H   0  0  0  0  0  0  0  0  0  0  0  0
    9.7844    6.4226   -1.5560 H   0  0  0  0  0  0  0  0  0  0  0  0
    0.9665    0.0108   -0.4804 H   0  0  0  0  0  0  0  0  0  0  0  0
    1.1676   -0.9963   -2.0446 H   0  0  0  0  0  0  0  0  0  0  0  0
  1  2  1  0
  2  3  1  0
  3  4  1  0
  4  5  1  0
  5  6  1  1
  5  7  1  0
  7  8  1  0
  8  9  1  0
  9 10  1  0
 10 11  2  3
 11 12  1  0
 11 13  1  0
  4 14  1  0
 14 15  1  0
 15 16  1  0
 16 17  1  0
 17 18  1  0
 18 19  1  0
 19 20  2  0
 19 21  1  0
 21 22  2  0
 22 23  1  0
 23 24  2  0
 24 25  1  0
 25 26  2  0
 26 27  1  0
 27 28  2  0
 28 29  1  0
 29 30  2  0
 29 31  1  0
 14 32  1  0
 32 33  1  0
 17  3  1  0
  8  5  1  0
 14 33  1  6
  1 34  1  0
  1 35  1  0
  1 36  1  0
  3 37  1  1
  4 38  1  1
  6 39  1  0
  6 40  1  0
  6 41  1  0
  8 42  1  6
  9 43  1  0
  9 44  1  0
 10 45  1  0
 12 46  1  0
 12 47  1  0
 12 48  1  0
 13 49  1  0
 13 50  1  0
 13 51  1  0
 15 52  1  0
 15 53  1  0
 16 54  1  0
 16 55  1  0
 17 56  1  1
 21 57  1  0
 22 58  1  0
 23 59  1  0
 24 60  1  0
 25 61  1  0
 26 62  1  0
 27 63  1  0
 28 64  1  0
 31 65  1  0
 32 66  1  0
 32 67  1  0
M  END
$$$$
