@<TRIPOS>MOLECULE
*****
 46 49 0 0 0
SMALL
GASTEIGER

@<TRIPOS>ATOM
      1 C           0.1562   -0.6854   -2.1484 C.3     1  UNL1        0.0999
      2 C          -0.9347   -1.2220   -1.2619 C.3     1  UNL1        0.0455
      3 N          -1.5161   -0.1587   -0.4324 N.am    1  UNL1       -0.2925
      4 C          -1.9696   -0.2125    0.9568 C.3     1  UNL1        0.0399
      5 C          -3.4047   -0.5949    0.9705 C.ar    1  UNL1       -0.0301
      6 C          -4.3237    0.4492    0.9181 C.ar    1  UNL1       -0.0571
      7 C          -5.6842    0.1884    0.9262 C.ar    1  UNL1       -0.0615
      8 C          -6.0902   -1.1440    0.9882 C.ar    1  UNL1       -0.0617
      9 C          -5.1868   -2.1893    1.0406 C.ar    1  UNL1       -0.0615
     10 C          -3.8186   -1.9097    1.0316 C.ar    1  UNL1       -0.0571
     11 C          -1.6225    1.0844   -1.1619 C.2     1  UNL1        0.2417
     12 O          -1.7771    2.1796   -0.5648 O.2     1  UNL1       -0.2731
     13 C          -1.5236    0.8574   -2.6498 C.3     1  UNL1        0.1247
     14 O          -0.2722    0.3673   -2.9052 O.3     1  UNL1       -0.3612
     15 C           1.3519   -0.2271   -1.3931 C.ar    1  UNL1       -0.0170
     16 C           1.5456   -0.4855   -0.0526 C.ar    1  UNL1       -0.0495
     17 C           2.6837   -0.0396    0.6319 C.ar    1  UNL1       -0.0018
     18 C           3.6169    0.6631   -0.0408 C.ar    1  UNL1        0.0554
     19 C           3.4063    0.9126   -1.3827 C.ar    1  UNL1       -0.0384
     20 C           2.2910    0.4901   -2.1066 C.ar    1  UNL1       -0.0543
     21 N           4.7141    1.0488    0.7791 N.pl3   1  UNL1       -0.2098
     22 C           5.6514    2.1357    0.4681 C.3     1  UNL1        0.0232
     23 S           4.6647   -0.0282    2.1570 S.O2    1  UNL1        0.0494
     24 O           5.4490   -1.2671    1.9188 O.2     1  UNL1       -0.1547
     25 O           5.0633    0.6926    3.4080 O.2     1  UNL1       -0.1547
     26 C           2.9082   -0.3077    2.0766 C.3     1  UNL1        0.1117
     27 H           0.4779   -1.5393   -2.7889 H       1  UNL1        0.0662
     28 H          -1.7580   -1.5273   -1.9405 H       1  UNL1        0.0493
     29 H          -0.6391   -2.0927   -0.6892 H       1  UNL1        0.0493
     30 H          -1.8224    0.8127    1.3537 H       1  UNL1        0.0514
     31 H          -1.3483   -0.9192    1.5462 H       1  UNL1        0.0514
     32 H          -4.0283    1.4850    0.8698 H       1  UNL1        0.0621
     33 H          -6.3824    1.0147    0.8848 H       1  UNL1        0.0618
     34 H          -7.1496   -1.3409    0.9943 H       1  UNL1        0.0618
     35 H          -5.5605   -3.2138    1.0881 H       1  UNL1        0.0618
     36 H          -3.0915   -2.7118    1.0719 H       1  UNL1        0.0621
     37 H          -2.3454    0.1803   -2.9613 H       1  UNL1        0.0657
     38 H          -1.6037    1.8415   -3.1598 H       1  UNL1        0.0657
     39 H           0.7470   -1.0487    0.3833 H       1  UNL1        0.0625
     40 H           4.1399    1.4726   -1.9376 H       1  UNL1        0.0637
     41 H           2.1998    0.7271   -3.1599 H       1  UNL1        0.0622
     42 H           6.1852    2.4647    1.3870 H       1  UNL1        0.0446
     43 H           5.1309    3.0175    0.0648 H       1  UNL1        0.0446
     44 H           6.4064    1.7295   -0.2262 H       1  UNL1        0.0446
     45 H           2.6926   -1.3589    2.3190 H       1  UNL1        0.0569
     46 H           2.3711    0.4095    2.7295 H       1  UNL1        0.0569
@<TRIPOS>BOND
     1     1     2    1
     2     2     3    1
     3     3     4    1
     4     4     5    1
     5     5     6   ar
     6     6     7   ar
     7     7     8   ar
     8     8     9   ar
     9     9    10   ar
    10     3    11   am
    11    11    12    2
    12    11    13    1
    13    13    14    1
    14     1    15    1
    15    15    16   ar
    16    16    17   ar
    17    17    18   ar
    18    18    19   ar
    19    19    20   ar
    20    18    21    1
    21    21    22    1
    22    21    23    1
    23    23    24    2
    24    23    25    2
    25    23    26    1
    26    14     1    1
    27    20    15   ar
    28    10     5   ar
    29    26    17    1
    30     1    27    1
    31     2    28    1
    32     2    29    1
    33     4    30    1
    34     4    31    1
    35     6    32    1
    36     7    33    1
    37     8    34    1
    38     9    35    1
    39    10    36    1
    40    13    37    1
    41    13    38    1
    42    16    39    1
    43    19    40    1
    44    20    41    1
    45    22    42    1
    46    22    43    1
    47    22    44    1
    48    26    45    1
    49    26    46    1
