@<TRIPOS>MOLECULE
*****
 61 64 0 0 0
SMALL
GASTEIGER

@<TRIPOS>ATOM
      1 C           7.2207    1.9616    3.2295 C.3     1  UNL1        0.0788
      2 O           6.9449    0.5857    3.2086 O.3     1  UNL1       -0.4951
      3 C           5.8222    0.0269    2.6437 C.ar    1  UNL1        0.1201
      4 C           4.8344    0.7675    2.0300 C.ar    1  UNL1       -0.0193
      5 C           3.7326    0.1584    1.4814 C.ar    1  UNL1       -0.0475
      6 C           3.5389   -1.2001    1.5036 C.ar    1  UNL1        0.0226
      7 C           2.4388   -1.9316    0.9610 C.2     1  UNL1        0.1955
      8 O           2.1504   -3.0716    1.5131 O.2     1  UNL1       -0.2866
      9 C           1.5872   -1.5413   -0.1516 C.ar    1  UNL1        0.0520
     10 C           0.2412   -1.9156   -0.3208 C.ar    1  UNL1        0.0293
     11 C          -0.5241   -2.7529    0.6430 C.3     1  UNL1       -0.0235
     12 N          -0.2512   -1.4259   -1.4605 N.ar    1  UNL1       -0.3242
     13 C          -1.6082   -1.5744   -1.9968 C.3     1  UNL1        0.0500
     14 C          -2.5146   -0.4998   -1.5851 C.ar    1  UNL1       -0.0242
     15 C          -2.5946    0.6853   -2.3129 C.ar    1  UNL1       -0.0553
     16 C          -3.4468    1.6925   -1.9292 C.ar    1  UNL1       -0.0395
     17 C          -4.2620    1.5685   -0.8007 C.ar    1  UNL1        0.0826
     18 CL         -5.3093    2.9242   -0.4191 Cl      1  UNL1       -0.0798
     19 C          -4.2029    0.4110   -0.0655 C.ar    1  UNL1        0.1402
     20 O          -4.9291    0.1578    1.0378 O.3     1  UNL1       -0.4765
     21 C          -5.8490    0.7876    1.7917 C.3     1  UNL1        0.1931
     22 C          -7.2197    0.0772    1.7313 C.3     1  UNL1       -0.0172
     23 C          -5.3893    0.8047    3.2234 C.2     1  UNL1        0.3456
     24 O          -4.3092    0.2926    3.5817 O.2     1  UNL1       -0.2468
     25 O          -6.1932    1.4089    4.1702 O.3     1  UNL1       -0.4781
     26 C          -3.3116   -0.6031   -0.4942 C.ar    1  UNL1       -0.0136
     27 C           0.7265   -0.7336   -2.0653 C.ar    1  UNL1        0.1457
     28 N           0.7066   -0.0744   -3.2450 N.ar    1  UNL1       -0.1949
     29 C           1.7822    0.5617   -3.7314 C.ar    1  UNL1        0.2163
     30 O           1.7834    1.2473   -4.9437 O.3     1  UNL1       -0.4796
     31 C           0.5874    1.2862   -5.7241 C.3     1  UNL1        0.0804
     32 C           2.9245    0.5154   -2.9707 C.ar    1  UNL1        0.0007
     33 C           2.9879   -0.1557   -1.7431 C.ar    1  UNL1       -0.0453
     34 C           1.8719   -0.7928   -1.2737 C.ar    1  UNL1        0.0302
     35 C           4.5612   -1.9259    2.1351 C.ar    1  UNL1       -0.0475
     36 C           5.6683   -1.3250    2.6872 C.ar    1  UNL1       -0.0193
     37 H           6.6588    2.4213    4.0631 H       1  UNL1        0.0660
     38 H           6.9313    2.3775    2.2351 H       1  UNL1        0.0660
     39 H           8.3077    2.1586    3.4270 H       1  UNL1        0.0660
     40 H           4.9737    1.8554    2.0033 H       1  UNL1        0.0654
     41 H           2.9723    0.7594    1.0070 H       1  UNL1        0.0626
     42 H           0.0725   -3.6935    0.7893 H       1  UNL1        0.0292
     43 H          -1.4843   -3.0754    0.1781 H       1  UNL1        0.0292
     44 H          -0.6862   -2.1897    1.5816 H       1  UNL1        0.0292
     45 H          -2.0667   -2.5485   -1.7000 H       1  UNL1        0.0542
     46 H          -1.5529   -1.6356   -3.1243 H       1  UNL1        0.0542
     47 H          -1.9599    0.7609   -3.1788 H       1  UNL1        0.0621
     48 H          -3.5012    2.6174   -2.5074 H       1  UNL1        0.0633
     49 H          -6.0844    1.8353    1.5562 H       1  UNL1        0.0849
     50 H          -7.8362    0.4828    2.5324 H       1  UNL1        0.0271
     51 H          -7.6497    0.4226    0.7525 H       1  UNL1        0.0271
     52 H          -7.1197   -1.0076    1.6906 H       1  UNL1        0.0271
     53 H          -6.2670    1.0497    5.1280 H       1  UNL1        0.2952
     54 H          -3.2710   -1.5206    0.0935 H       1  UNL1        0.0658
     55 H           0.7286    0.7485   -6.6769 H       1  UNL1        0.0660
     56 H          -0.2367    0.7489   -5.1786 H       1  UNL1        0.0660
     57 H           0.2357    2.3316   -5.8527 H       1  UNL1        0.0660
     58 H           3.8048    1.0204   -3.3433 H       1  UNL1        0.0671
     59 H           3.8983   -0.1953   -1.1834 H       1  UNL1        0.0626
     60 H           4.4848   -2.9900    2.1937 H       1  UNL1        0.0626
     61 H           6.4513   -1.9276    3.1754 H       1  UNL1        0.0654
@<TRIPOS>BOND
     1     1     2    1
     2     2     3    1
     3     3     4   ar
     4     4     5   ar
     5     5     6   ar
     6     6     7    1
     7     7     8    2
     8     7     9    1
     9     9    10   ar
    10    10    11    1
    11    10    12   ar
    12    12    13    1
    13    13    14    1
    14    14    15   ar
    15    15    16   ar
    16    16    17   ar
    17    17    18    1
    18    17    19   ar
    19    19    20    1
    20    20    21    1
    21    21    22    1
    22    21    23    1
    23    23    24    2
    24    23    25    1
    25    19    26   ar
    26    12    27   ar
    27    27    28   ar
    28    28    29   ar
    29    29    30    1
    30    30    31    1
    31    29    32   ar
    32    32    33   ar
    33    33    34   ar
    34     6    35   ar
    35    35    36   ar
    36    36     3   ar
    37    34     9   ar
    38    26    14   ar
    39    34    27   ar
    40     1    37    1
    41     1    38    1
    42     1    39    1
    43     4    40    1
    44     5    41    1
    45    11    42    1
    46    11    43    1
    47    11    44    1
    48    13    45    1
    49    13    46    1
    50    15    47    1
    51    16    48    1
    52    21    49    1
    53    22    50    1
    54    22    51    1
    55    22    52    1
    56    25    53    1
    57    26    54    1
    58    31    55    1
    59    31    56    1
    60    31    57    1
    61    32    58    1
    62    33    59    1
    63    35    60    1
    64    36    61    1
