
     RDKit          3D

 61 64  0  0  0  0  0  0  0  0999 V2000
    7.2207    1.9616    3.2295 C   0  0  0  0  0  0  0  0  0  0  0  0
    6.9449    0.5857    3.2086 O   0  0  0  0  0  0  0  0  0  0  0  0
    5.8222    0.0269    2.6437 C   0  0  0  0  0  0  0  0  0  0  0  0
    4.8344    0.7675    2.0300 C   0  0  0  0  0  0  0  0  0  0  0  0
    3.7326    0.1584    1.4814 C   0  0  0  0  0  0  0  0  0  0  0  0
    3.5389   -1.2001    1.5036 C   0  0  0  0  0  0  0  0  0  0  0  0
    2.4388   -1.9316    0.9610 C   0  0  0  0  0  0  0  0  0  0  0  0
    2.1504   -3.0716    1.5131 O   0  0  0  0  0  0  0  0  0  0  0  0
    1.5872   -1.5413   -0.1516 C   0  0  0  0  0  0  0  0  0  0  0  0
    0.2412   -1.9156   -0.3208 C   0  0  0  0  0  0  0  0  0  0  0  0
   -0.5241   -2.7529    0.6430 C   0  0  0  0  0  0  0  0  0  0  0  0
   -0.2512   -1.4259   -1.4605 N   0  0  0  0  0  0  0  0  0  0  0  0
   -1.6082   -1.5744   -1.9968 C   0  0  0  0  0  0  0  0  0  0  0  0
   -2.5146   -0.4998   -1.5851 C   0  0  0  0  0  0  0  0  0  0  0  0
   -2.5946    0.6853   -2.3129 C   0  0  0  0  0  0  0  0  0  0  0  0
   -3.4468    1.6925   -1.9292 C   0  0  0  0  0  0  0  0  0  0  0  0
   -4.2620    1.5685   -0.8007 C   0  0  0  0  0  0  0  0  0  0  0  0
   -5.3093    2.9242   -0.4191 Cl  0  0  0  0  0  0  0  0  0  0  0  0
   -4.2029    0.4110   -0.0655 C   0  0  0  0  0  0  0  0  0  0  0  0
   -4.9291    0.1578    1.0378 O   0  0  0  0  0  0  0  0  0  0  0  0
   -5.8490    0.7876    1.7917 C   0  0  1  0  0  0  0  0  0  0  0  0
   -7.2197    0.0772    1.7313 C   0  0  0  0  0  0  0  0  0  0  0  0
   -5.3893    0.8047    3.2234 C   0  0  0  0  0  0  0  0  0  0  0  0
   -4.3092    0.2926    3.5817 O   0  0  0  0  0  0  0  0  0  0  0  0
   -6.1932    1.4089    4.1702 O   0  0  0  0  0  0  0  0  0  0  0  0
   -3.3116   -0.6031   -0.4942 C   0  0  0  0  0  0  0  0  0  0  0  0
    0.7265   -0.7336   -2.0653 C   0  0  0  0  0  0  0  0  0  0  0  0
    0.7066   -0.0744   -3.2450 N   0  0  0  0  0  0  0  0  0  0  0  0
    1.7822    0.5617   -3.7314 C   0  0  0  0  0  0  0  0  0  0  0  0
    1.7834    1.2473   -4.9437 O   0  0  0  0  0  0  0  0  0  0  0  0
    0.5874    1.2862   -5.7241 C   0  0  0  0  0  0  0  0  0  0  0  0
    2.9245    0.5154   -2.9707 C   0  0  0  0  0  0  0  0  0  0  0  0
    2.9879   -0.1557   -1.7431 C   0  0  0  0  0  0  0  0  0  0  0  0
    1.8719   -0.7928   -1.2737 C   0  0  0  0  0  0  0  0  0  0  0  0
    4.5612   -1.9259    2.1351 C   0  0  0  0  0  0  0  0  0  0  0  0
    5.6683   -1.3250    2.6872 C   0  0  0  0  0  0  0  0  0  0  0  0
    6.6588    2.4213    4.0631 H   0  0  0  0  0  0  0  0  0  0  0  0
    6.9313    2.3775    2.2351 H   0  0  0  0  0  0  0  0  0  0  0  0
    8.3077    2.1586    3.4270 H   0  0  0  0  0  0  0  0  0  0  0  0
    4.9737    1.8554    2.0033 H   0  0  0  0  0  0  0  0  0  0  0  0
    2.9723    0.7594    1.0070 H   0  0  0  0  0  0  0  0  0  0  0  0
    0.0725   -3.6935    0.7893 H   0  0  0  0  0  0  0  0  0  0  0  0
   -1.4843   -3.0754    0.1781 H   0  0  0  0  0  0  0  0  0  0  0  0
   -0.6862   -2.1897    1.5816 H   0  0  0  0  0  0  0  0  0  0  0  0
   -2.0667   -2.5485   -1.7000 H   0  0  0  0  0  0  0  0  0  0  0  0
   -1.5529   -1.6356   -3.1243 H   0  0  0  0  0  0  0  0  0  0  0  0
   -1.9599    0.7609   -3.1788 H   0  0  0  0  0  0  0  0  0  0  0  0
   -3.5012    2.6174   -2.5074 H   0  0  0  0  0  0  0  0  0  0  0  0
   -6.0844    1.8353    1.5562 H   0  0  0  0  0  0  0  0  0  0  0  0
   -7.8362    0.4828    2.5324 H   0  0  0  0  0  0  0  0  0  0  0  0
   -7.6497    0.4226    0.7525 H   0  0  0  0  0  0  0  0  0  0  0  0
   -7.1197   -1.0076    1.6906 H   0  0  0  0  0  0  0  0  0  0  0  0
   -6.2670    1.0497    5.1280 H   0  0  0  0  0  0  0  0  0  0  0  0
   -3.2710   -1.5206    0.0935 H   0  0  0  0  0  0  0  0  0  0  0  0
    0.7286    0.7485   -6.6769 H   0  0  0  0  0  0  0  0  0  0  0  0
   -0.2367    0.7489   -5.1786 H   0  0  0  0  0  0  0  0  0  0  0  0
    0.2357    2.3316   -5.8527 H   0  0  0  0  0  0  0  0  0  0  0  0
    3.8048    1.0204   -3.3433 H   0  0  0  0  0  0  0  0  0  0  0  0
    3.8983   -0.1953   -1.1834 H   0  0  0  0  0  0  0  0  0  0  0  0
    4.4848   -2.9900    2.1937 H   0  0  0  0  0  0  0  0  0  0  0  0
    6.4513   -1.9276    3.1754 H   0  0  0  0  0  0  0  0  0  0  0  0
  1  2  1  0
  2  3  1  0
  3  4  2  0
  4  5  1  0
  5  6  2  0
  6  7  1  0
  7  8  2  0
  7  9  1  0
  9 10  2  0
 10 11  1  0
 10 12  1  0
 12 13  1  0
 13 14  1  0
 14 15  2  0
 15 16  1  0
 16 17  2  0
 17 18  1  0
 17 19  1  0
 19 20  1  0
 20 21  1  0
 21 22  1  0
 21 23  1  0
 23 24  2  0
 23 25  1  0
 19 26  2  0
 12 27  1  0
 27 28  2  0
 28 29  1  0
 29 30  1  0
 30 31  1  0
 29 32  2  0
 32 33  1  0
 33 34  2  0
  6 35  1  0
 35 36  2  0
 36  3  1  0
 34  9  1  0
 26 14  1  0
 34 27  1  0
  1 37  1  0
  1 38  1  0
  1 39  1  0
  4 40  1  0
  5 41  1  0
 11 42  1  0
 11 43  1  0
 11 44  1  0
 13 45  1  0
 13 46  1  0
 15 47  1  0
 16 48  1  0
 21 49  1  6
 22 50  1  0
 22 51  1  0
 22 52  1  0
 25 53  1  0
 26 54  1  0
 31 55  1  0
 31 56  1  0
 31 57  1  0
 32 58  1  0
 33 59  1  0
 35 60  1  0
 36 61  1  0
M  END
$$$$
