@<TRIPOS>MOLECULE
*****
 22 22 0 0 0
SMALL
GASTEIGER

@<TRIPOS>ATOM
      1 N          -3.8825    0.2424    0.7278 N.3     1  UNL1       -0.2705
      2 N          -2.9126   -0.4676    0.0398 N.3     1  UNL1       -0.2589
      3 C          -1.5827    0.0657    0.3006 C.3     1  UNL1        0.0144
      4 C          -0.5789   -0.7744   -0.4971 C.3     1  UNL1       -0.0138
      5 C           0.8000   -0.2926   -0.2837 C.ar    1  UNL1       -0.0461
      6 C           1.3141    0.6764   -1.1210 C.ar    1  UNL1       -0.0585
      7 C           2.6009    1.1320   -0.9287 C.ar    1  UNL1       -0.0615
      8 C           3.4166    0.6487    0.0902 C.ar    1  UNL1       -0.0617
      9 C           2.9025   -0.3240    0.9319 C.ar    1  UNL1       -0.0615
     10 C           1.6131   -0.7750    0.7328 C.ar    1  UNL1       -0.0585
     11 H          -4.1994   -0.2548    1.6041 H       1  UNL1        0.1368
     12 H          -4.6730    0.4086    0.0731 H       1  UNL1        0.1368
     13 H          -3.1039   -0.5876   -0.9584 H       1  UNL1        0.1403
     14 H          -1.5740    1.1074   -0.0394 H       1  UNL1        0.0441
     15 H          -1.3489    0.0505    1.3750 H       1  UNL1        0.0441
     16 H          -0.8711   -0.7400   -1.5645 H       1  UNL1        0.0326
     17 H          -0.7270   -1.8274   -0.1396 H       1  UNL1        0.0326
     18 H           0.6929    1.0636   -1.9192 H       1  UNL1        0.0620
     19 H           2.9737    1.9030   -1.6152 H       1  UNL1        0.0618
     20 H           4.4227    1.0274    0.2145 H       1  UNL1        0.0618
     21 H           3.5068   -0.7364    1.7499 H       1  UNL1        0.0618
     22 H           1.2105   -1.5460    1.4026 H       1  UNL1        0.0620
@<TRIPOS>BOND
     1     1     2    1
     2     2     3    1
     3     3     4    1
     4     4     5    1
     5     5     6   ar
     6     6     7   ar
     7     7     8   ar
     8     8     9   ar
     9     9    10   ar
    10    10     5   ar
    11     1    11    1
    12     1    12    1
    13     2    13    1
    14     3    14    1
    15     3    15    1
    16     4    16    1
    17     4    17    1
    18     6    18    1
    19     7    19    1
    20     8    20    1
    21     9    21    1
    22    10    22    1
