@<TRIPOS>MOLECULE
*****
 57 60 0 0 0
SMALL
GASTEIGER

@<TRIPOS>ATOM
      1 C           6.2496   -0.6890   -0.2613 C.3     1  UNL1        0.0215
      2 S           6.3656   -2.1139   -1.3931 S.3     1  UNL1        0.0647
      3 O           7.4272   -1.8938   -2.3645 O.2     1  UNL1       -0.2464
      4 C           4.7507   -2.3430   -1.9494 C.3     1  UNL1        0.0575
      5 C           4.1217   -1.0284   -2.3191 C.ar    1  UNL1       -0.0325
      6 C           4.3832   -0.4400   -3.5074 C.ar    1  UNL1       -0.0576
      7 C           3.8043    0.6715   -3.8075 C.ar    1  UNL1       -0.0597
      8 C           2.8752    1.3388   -2.9742 C.ar    1  UNL1       -0.0405
      9 C           2.5868    0.7770   -1.7777 C.ar    1  UNL1        0.0339
     10 N           1.4873    1.1138   -0.9080 N.pl3   1  UNL1       -0.2836
     11 C           0.4429    0.1473   -0.8658 C.ar    1  UNL1        0.2202
     12 N           0.8792   -1.1834   -1.0346 N.ar    1  UNL1       -0.2198
     13 C           0.0197   -2.1836   -1.0240 C.ar    1  UNL1        0.0685
     14 C          -1.3124   -1.9743   -0.8315 C.ar    1  UNL1        0.1675
     15 F          -2.1357   -3.0481   -0.8356 F       1  UNL1       -0.2016
     16 C          -1.7959   -0.6048   -0.6418 C.ar    1  UNL1        0.1147
     17 C          -3.1817   -0.5089   -0.2468 C.ar    1  UNL1        0.0452
     18 C          -4.2575   -0.8214   -1.1150 C.ar    1  UNL1       -0.0463
     19 C          -5.4888   -0.8880   -0.5168 C.ar    1  UNL1       -0.0256
     20 C          -5.7555   -0.6783    0.8036 C.ar    1  UNL1        0.1269
     21 F          -7.0651   -0.8331    1.3433 F       1  UNL1       -0.2054
     22 C          -4.7458   -0.3594    1.6251 C.ar    1  UNL1        0.0160
     23 C          -3.4335   -0.2557    1.1221 C.ar    1  UNL1        0.1329
     24 O          -2.2946    0.1124    1.9433 O.3     1  UNL1       -0.4866
     25 C          -2.7829    0.5759    3.2380 C.3     1  UNL1        0.1147
     26 C          -3.7283    1.7689    2.9356 C.ar    1  UNL1       -0.0104
     27 C          -4.0027    2.2728    1.6843 C.ar    1  UNL1       -0.0554
     28 C          -4.8072    3.3065    1.4747 C.ar    1  UNL1       -0.0614
     29 C          -5.4580    4.0271    2.5341 C.ar    1  UNL1       -0.0617
     30 C          -5.1301    3.4586    3.7545 C.ar    1  UNL1       -0.0614
     31 C          -4.2896    2.3615    4.0297 C.ar    1  UNL1       -0.0554
     32 N          -0.8673    0.3359   -0.6702 N.ar    1  UNL1       -0.2112
     33 C           3.2092   -0.4409   -1.4443 C.ar    1  UNL1       -0.0364
     34 N           6.9250   -3.3316   -0.4290 N.2     1  UNL1       -0.1212
     35 C           8.3482   -2.7928   -0.0058 C.1     1  UNL1        0.2138
     36 N           9.1789   -2.4618    0.2378 N.1     1  UNL1       -0.1689
     37 H           6.0558   -0.9799    0.7881 H       1  UNL1        0.0374
     38 H           7.1759   -0.1546   -0.4458 H       1  UNL1        0.0374
     39 H           5.4230   -0.0186   -0.7350 H       1  UNL1        0.0374
     40 H           4.7799   -2.9298   -2.9386 H       1  UNL1        0.0459
     41 H           4.1449   -2.9155   -1.2174 H       1  UNL1        0.0459
     42 H           5.1013   -0.9804   -4.1807 H       1  UNL1        0.0621
     43 H           4.0081    1.1788   -4.7645 H       1  UNL1        0.0618
     44 H           2.3683    2.2184   -3.2050 H       1  UNL1        0.0636
     45 H           1.4670    1.9650   -0.4173 H       1  UNL1        0.1550
     46 H           0.4517   -3.2345   -1.1778 H       1  UNL1        0.0861
     47 H          -4.1007   -0.9565   -2.1919 H       1  UNL1        0.0626
     48 H          -6.3969   -1.1608   -1.2108 H       1  UNL1        0.0646
     49 H          -4.8624   -0.2463    2.6913 H       1  UNL1        0.0683
     50 H          -1.7609    1.1909    3.5016 H       1  UNL1        0.0748
     51 H          -3.1084   -0.0618    3.9779 H       1  UNL1        0.0748
     52 H          -3.4779    1.8808    0.7719 H       1  UNL1        0.0621
     53 H          -5.0116    3.7117    0.4823 H       1  UNL1        0.0618
     54 H          -6.1004    4.8503    2.3182 H       1  UNL1        0.0618
     55 H          -5.5945    3.9246    4.6689 H       1  UNL1        0.0618
     56 H          -4.1249    2.0854    5.0240 H       1  UNL1        0.0621
     57 H           3.0404   -0.7613   -0.4947 H       1  UNL1        0.0639
@<TRIPOS>BOND
     1     1     2    1
     2     2     3    2
     3     2     4    1
     4     4     5    1
     5     5     6   ar
     6     6     7   ar
     7     7     8   ar
     8     8     9   ar
     9     9    10    1
    10    10    11    1
    11    11    12   ar
    12    12    13   ar
    13    13    14   ar
    14    14    15    1
    15    14    16   ar
    16    16    17    1
    17    17    18   ar
    18    18    19   ar
    19    19    20   ar
    20    20    21    1
    21    20    22   ar
    22    22    23   ar
    23    23    24    1
    24    24    25    1
    25    25    26    1
    26    26    27   ar
    27    27    28   ar
    28    28    29   ar
    29    29    30   ar
    30    30    31   ar
    31    16    32   ar
    32     9    33   ar
    33     2    34    2
    34    34    35    1
    35    35    36    3
    36    33     5   ar
    37    32    11   ar
    38    23    17   ar
    39    31    26   ar
    40     1    37    1
    41     1    38    1
    42     1    39    1
    43     4    40    1
    44     4    41    1
    45     6    42    1
    46     7    43    1
    47     8    44    1
    48    10    45    1
    49    13    46    1
    50    18    47    1
    51    19    48    1
    52    22    49    1
    53    25    50    1
    54    25    51    1
    55    27    52    1
    56    28    53    1
    57    29    54    1
    58    30    55    1
    59    31    56    1
    60    33    57    1
