
     RDKit          3D

 57 60  0  0  0  0  0  0  0  0999 V2000
    6.2496   -0.6890   -0.2613 C   0  0  0  0  0  0  0  0  0  0  0  0
    6.3656   -2.1139   -1.3931 S   0  0  0  0  0  6  0  0  0  0  0  0
    7.4272   -1.8938   -2.3645 O   0  0  0  0  0  0  0  0  0  0  0  0
    4.7507   -2.3430   -1.9494 C   0  0  0  0  0  0  0  0  0  0  0  0
    4.1217   -1.0284   -2.3191 C   0  0  0  0  0  0  0  0  0  0  0  0
    4.3832   -0.4400   -3.5074 C   0  0  0  0  0  0  0  0  0  0  0  0
    3.8043    0.6715   -3.8075 C   0  0  0  0  0  0  0  0  0  0  0  0
    2.8752    1.3388   -2.9742 C   0  0  0  0  0  0  0  0  0  0  0  0
    2.5868    0.7770   -1.7777 C   0  0  0  0  0  0  0  0  0  0  0  0
    1.4873    1.1138   -0.9080 N   0  0  0  0  0  0  0  0  0  0  0  0
    0.4429    0.1473   -0.8658 C   0  0  0  0  0  0  0  0  0  0  0  0
    0.8792   -1.1834   -1.0346 N   0  0  0  0  0  0  0  0  0  0  0  0
    0.0197   -2.1836   -1.0240 C   0  0  0  0  0  0  0  0  0  0  0  0
   -1.3124   -1.9743   -0.8315 C   0  0  0  0  0  0  0  0  0  0  0  0
   -2.1357   -3.0481   -0.8356 F   0  0  0  0  0  0  0  0  0  0  0  0
   -1.7959   -0.6048   -0.6418 C   0  0  0  0  0  0  0  0  0  0  0  0
   -3.1817   -0.5089   -0.2468 C   0  0  0  0  0  0  0  0  0  0  0  0
   -4.2575   -0.8214   -1.1150 C   0  0  0  0  0  0  0  0  0  0  0  0
   -5.4888   -0.8880   -0.5168 C   0  0  0  0  0  0  0  0  0  0  0  0
   -5.7555   -0.6783    0.8036 C   0  0  0  0  0  0  0  0  0  0  0  0
   -7.0651   -0.8331    1.3433 F   0  0  0  0  0  0  0  0  0  0  0  0
   -4.7458   -0.3594    1.6251 C   0  0  0  0  0  0  0  0  0  0  0  0
   -3.4335   -0.2557    1.1221 C   0  0  0  0  0  0  0  0  0  0  0  0
   -2.2946    0.1124    1.9433 O   0  0  0  0  0  0  0  0  0  0  0  0
   -2.7829    0.5759    3.2380 C   0  0  0  0  0  0  0  0  0  0  0  0
   -3.7283    1.7689    2.9356 C   0  0  0  0  0  0  0  0  0  0  0  0
   -4.0027    2.2728    1.6843 C   0  0  0  0  0  0  0  0  0  0  0  0
   -4.8072    3.3065    1.4747 C   0  0  0  0  0  0  0  0  0  0  0  0
   -5.4580    4.0271    2.5341 C   0  0  0  0  0  0  0  0  0  0  0  0
   -5.1301    3.4586    3.7545 C   0  0  0  0  0  0  0  0  0  0  0  0
   -4.2896    2.3615    4.0297 C   0  0  0  0  0  0  0  0  0  0  0  0
   -0.8673    0.3359   -0.6702 N   0  0  0  0  0  0  0  0  0  0  0  0
    3.2092   -0.4409   -1.4443 C   0  0  0  0  0  0  0  0  0  0  0  0
    6.9250   -3.3316   -0.4290 N   0  0  0  0  0  0  0  0  0  0  0  0
    8.3482   -2.7928   -0.0058 C   0  0  0  0  0  0  0  0  0  0  0  0
    9.1789   -2.4618    0.2378 N   0  0  0  0  0  0  0  0  0  0  0  0
    6.0558   -0.9799    0.7881 H   0  0  0  0  0  0  0  0  0  0  0  0
    7.1759   -0.1546   -0.4458 H   0  0  0  0  0  0  0  0  0  0  0  0
    5.4230   -0.0186   -0.7350 H   0  0  0  0  0  0  0  0  0  0  0  0
    4.7799   -2.9298   -2.9386 H   0  0  0  0  0  0  0  0  0  0  0  0
    4.1449   -2.9155   -1.2174 H   0  0  0  0  0  0  0  0  0  0  0  0
    5.1013   -0.9804   -4.1807 H   0  0  0  0  0  0  0  0  0  0  0  0
    4.0081    1.1788   -4.7645 H   0  0  0  0  0  0  0  0  0  0  0  0
    2.3683    2.2184   -3.2050 H   0  0  0  0  0  0  0  0  0  0  0  0
    1.4670    1.9650   -0.4173 H   0  0  0  0  0  0  0  0  0  0  0  0
    0.4517   -3.2345   -1.1778 H   0  0  0  0  0  0  0  0  0  0  0  0
   -4.1007   -0.9565   -2.1919 H   0  0  0  0  0  0  0  0  0  0  0  0
   -6.3969   -1.1608   -1.2108 H   0  0  0  0  0  0  0  0  0  0  0  0
   -4.8624   -0.2463    2.6913 H   0  0  0  0  0  0  0  0  0  0  0  0
   -1.7609    1.1909    3.5016 H   0  0  0  0  0  0  0  0  0  0  0  0
   -3.1084   -0.0618    3.9779 H   0  0  0  0  0  0  0  0  0  0  0  0
   -3.4779    1.8808    0.7719 H   0  0  0  0  0  0  0  0  0  0  0  0
   -5.0116    3.7117    0.4823 H   0  0  0  0  0  0  0  0  0  0  0  0
   -6.1004    4.8503    2.3182 H   0  0  0  0  0  0  0  0  0  0  0  0
   -5.5945    3.9246    4.6689 H   0  0  0  0  0  0  0  0  0  0  0  0
   -4.1249    2.0854    5.0240 H   0  0  0  0  0  0  0  0  0  0  0  0
    3.0404   -0.7613   -0.4947 H   0  0  0  0  0  0  0  0  0  0  0  0
  1  2  1  0
  2  3  2  0
  2  4  1  0
  4  5  1  0
  5  6  2  0
  6  7  1  0
  7  8  2  0
  8  9  1  0
  9 10  1  0
 10 11  1  0
 11 12  2  0
 12 13  1  0
 13 14  2  0
 14 15  1  0
 14 16  1  0
 16 17  1  0
 17 18  2  0
 18 19  1  0
 19 20  2  0
 20 21  1  0
 20 22  1  0
 22 23  2  0
 23 24  1  0
 24 25  1  0
 25 26  1  0
 26 27  2  0
 27 28  1  0
 28 29  2  0
 29 30  1  0
 30 31  2  0
 16 32  2  0
  9 33  2  0
  2 34  2  0
 34 35  1  0
 35 36  3  0
 33  5  1  0
 32 11  1  0
 23 17  1  0
 31 26  1  0
  1 37  1  0
  1 38  1  0
  1 39  1  0
  4 40  1  0
  4 41  1  0
  6 42  1  0
  7 43  1  0
  8 44  1  0
 10 45  1  0
 13 46  1  0
 18 47  1  0
 19 48  1  0
 22 49  1  0
 25 50  1  0
 25 51  1  0
 27 52  1  0
 28 53  1  0
 29 54  1  0
 30 55  1  0
 31 56  1  0
 33 57  1  0
M  END
$$$$
