
     RDKit          3D

 65 67  0  0  0  0  0  0  0  0999 V2000
    7.2874   -2.9638    0.2139 C   0  0  0  0  0  0  0  0  0  0  0  0
    6.0579   -2.5250   -0.5564 C   0  0  0  0  0  0  0  0  0  0  0  0
    5.9165   -1.0183   -0.3626 C   0  0  0  0  0  0  0  0  0  0  0  0
    4.5281   -0.3646   -1.2098 S   0  0  0  0  0  6  0  0  0  0  0  0
    4.7387   -0.6712   -2.6888 O   0  0  0  0  0  0  0  0  0  0  0  0
    4.5359    1.1245   -1.0983 O   0  0  0  0  0  0  0  0  0  0  0  0
    3.0334   -0.9943   -0.7521 N   0  0  0  0  0  0  0  0  0  0  0  0
    2.6514   -0.7821    0.6292 C   0  0  0  0  0  0  0  0  0  0  0  0
    1.6811    0.3297    0.7992 C   0  0  0  0  0  0  0  0  0  0  0  0
    0.3108    0.0732    0.1235 C   0  0  0  0  0  0  0  0  0  0  0  0
   -0.6125   -0.5389    1.0996 C   0  0  0  0  0  0  0  0  0  0  0  0
   -1.9516   -0.7801    0.6859 N   0  0  0  0  0  0  0  0  0  0  0  0
   -2.5150   -1.6349   -0.2467 C   0  0  0  0  0  0  0  0  0  0  0  0
   -1.6920   -2.3900   -0.8857 O   0  0  0  0  0  0  0  0  0  0  0  0
   -3.9149   -1.8023   -0.5986 C   0  0  0  0  0  0  0  0  0  0  0  0
   -4.1872   -2.6603   -1.6805 C   0  0  0  0  0  0  0  0  0  0  0  0
   -5.4473   -2.8916   -2.1762 C   0  0  0  0  0  0  0  0  0  0  0  0
   -6.5151   -2.2596   -1.5974 C   0  0  0  0  0  0  0  0  0  0  0  0
   -6.2815   -1.4314   -0.5566 C   0  0  0  0  0  0  0  0  0  0  0  0
   -4.9771   -1.1693   -0.0143 C   0  0  0  0  0  0  0  0  0  0  0  0
   -4.9873   -0.3288    1.0118 O   0  0  0  0  0  0  0  0  0  0  0  0
   -4.9969    0.4727    1.9904 C   0  0  0  0  0  0  0  0  0  0  0  0
   -4.4477   -0.1239    3.1633 F   0  0  0  0  0  0  0  0  0  0  0  0
   -4.3662    1.7213    1.8988 F   0  0  0  0  0  0  0  0  0  0  0  0
   -6.3303    0.8210    2.3952 F   0  0  0  0  0  0  0  0  0  0  0  0
   -0.2531    1.3143   -0.4445 C   0  0  0  0  0  0  0  0  0  0  0  0
   -0.5747    1.2974   -1.7042 O   0  0  0  0  0  0  0  0  0  0  0  0
   -0.4939    2.5370    0.1917 N   0  0  0  0  0  0  0  0  0  0  0  0
   -0.2650    2.8892    1.5641 C   0  0  0  0  0  0  0  0  0  0  0  0
   -0.4482    4.3770    1.8051 C   0  0  0  0  0  0  0  0  0  0  0  0
   -1.5769    4.9194    1.2685 O   0  0  0  0  0  0  0  0  0  0  0  0
   -2.1510    4.2560    0.2183 C   0  0  0  0  0  0  0  0  0  0  0  0
   -1.0446    3.6537   -0.6182 C   0  0  0  0  0  0  0  0  0  0  0  0
    0.6268   -0.8626   -1.0286 C   0  0  0  0  0  0  0  0  0  0  0  0
    2.0001   -0.4854   -1.6398 C   0  0  0  0  0  0  0  0  0  0  0  0
    7.9540   -2.0773    0.3955 H   0  0  0  0  0  0  0  0  0  0  0  0
    7.9335   -3.6569   -0.3936 H   0  0  0  0  0  0  0  0  0  0  0  0
    7.0213   -3.4097    1.1785 H   0  0  0  0  0  0  0  0  0  0  0  0
    6.0736   -2.7985   -1.6093 H   0  0  0  0  0  0  0  0  0  0  0  0
    5.1705   -3.0389   -0.0954 H   0  0  0  0  0  0  0  0  0  0  0  0
    6.8294   -0.5805   -0.8575 H   0  0  0  0  0  0  0  0  0  0  0  0
    5.9850   -0.7457    0.6913 H   0  0  0  0  0  0  0  0  0  0  0  0
    3.5333   -0.5657    1.2316 H   0  0  0  0  0  0  0  0  0  0  0  0
    2.1955   -1.7217    1.0357 H   0  0  0  0  0  0  0  0  0  0  0  0
    2.0870    1.2499    0.3570 H   0  0  0  0  0  0  0  0  0  0  0  0
    1.5462    0.4786    1.8942 H   0  0  0  0  0  0  0  0  0  0  0  0
   -0.1784   -1.5621    1.4296 H   0  0  0  0  0  0  0  0  0  0  0  0
   -0.6225    0.0450    2.0848 H   0  0  0  0  0  0  0  0  0  0  0  0
   -2.6601   -0.1403    1.2113 H   0  0  0  0  0  0  0  0  0  0  0  0
   -3.3659   -3.1869   -2.1726 H   0  0  0  0  0  0  0  0  0  0  0  0
   -5.6440   -3.5461   -2.9993 H   0  0  0  0  0  0  0  0  0  0  0  0
   -7.5193   -2.4505   -2.0019 H   0  0  0  0  0  0  0  0  0  0  0  0
   -7.1327   -0.9286   -0.0982 H   0  0  0  0  0  0  0  0  0  0  0  0
   -0.8875    2.3569    2.2832 H   0  0  0  0  0  0  0  0  0  0  0  0
    0.8082    2.7033    1.8305 H   0  0  0  0  0  0  0  0  0  0  0  0
    0.4642    4.9607    1.5685 H   0  0  0  0  0  0  0  0  0  0  0  0
   -0.5547    4.4773    2.9267 H   0  0  0  0  0  0  0  0  0  0  0  0
   -2.8524    3.4678    0.5736 H   0  0  0  0  0  0  0  0  0  0  0  0
   -2.7083    4.9992   -0.4034 H   0  0  0  0  0  0  0  0  0  0  0  0
   -1.3920    3.2825   -1.6033 H   0  0  0  0  0  0  0  0  0  0  0  0
   -0.2164    4.3932   -0.6919 H   0  0  0  0  0  0  0  0  0  0  0  0
   -0.0803   -0.7419   -1.8285 H   0  0  0  0  0  0  0  0  0  0  0  0
    0.7656   -1.8976   -0.7096 H   0  0  0  0  0  0  0  0  0  0  0  0
    2.0658   -1.0495   -2.5823 H   0  0  0  0  0  0  0  0  0  0  0  0
    2.0433    0.5763   -1.8449 H   0  0  0  0  0  0  0  0  0  0  0  0
  1  2  1  0
  2  3  1  0
  3  4  1  0
  4  5  2  0
  4  6  2  0
  4  7  1  0
  7  8  1  0
  8  9  1  0
  9 10  1  0
 10 11  1  0
 11 12  1  0
 12 13  1  0
 13 14  2  0
 13 15  1  0
 15 16  2  0
 16 17  1  0
 17 18  2  0
 18 19  1  0
 19 20  2  0
 20 21  1  0
 21 22  1  0
 22 23  1  0
 22 24  1  0
 22 25  1  0
 10 26  1  0
 26 27  2  0
 26 28  1  0
 28 29  1  0
 29 30  1  0
 30 31  1  0
 31 32  1  0
 32 33  1  0
 10 34  1  0
 34 35  1  0
 35  7  1  0
 20 15  1  0
 33 28  1  0
  1 36  1  0
  1 37  1  0
  1 38  1  0
  2 39  1  0
  2 40  1  0
  3 41  1  0
  3 42  1  0
  8 43  1  0
  8 44  1  0
  9 45  1  0
  9 46  1  0
 11 47  1  0
 11 48  1  0
 12 49  1  0
 16 50  1  0
 17 51  1  0
 18 52  1  0
 19 53  1  0
 29 54  1  0
 29 55  1  0
 30 56  1  0
 30 57  1  0
 32 58  1  0
 32 59  1  0
 33 60  1  0
 33 61  1  0
 34 62  1  0
 34 63  1  0
 35 64  1  0
 35 65  1  0
M  END
$$$$
