@<TRIPOS>MOLECULE
*****
 65 67 0 0 0
SMALL
GASTEIGER

@<TRIPOS>ATOM
      1 C           7.2874   -2.9638    0.2139 C.3     1  UNL1       -0.0638
      2 C           6.0579   -2.5250   -0.5564 C.3     1  UNL1       -0.0350
      3 C           5.9165   -1.0183   -0.3626 C.3     1  UNL1        0.0817
      4 S           4.5281   -0.3646   -1.2098 S.O2    1  UNL1        0.0318
      5 O           4.7387   -0.6712   -2.6888 O.2     1  UNL1       -0.1580
      6 O           4.5359    1.1245   -1.0983 O.2     1  UNL1       -0.1580
      7 N           3.0334   -0.9943   -0.7521 N.3     1  UNL1       -0.1811
      8 C           2.6514   -0.7821    0.6292 C.3     1  UNL1        0.0211
      9 C           1.6811    0.3297    0.7992 C.3     1  UNL1       -0.0231
     10 C           0.3108    0.0732    0.1235 C.3     1  UNL1        0.0650
     11 C          -0.6125   -0.5389    1.0996 C.3     1  UNL1        0.0259
     12 N          -1.9516   -0.7801    0.6859 N.am    1  UNL1       -0.3102
     13 C          -2.5150   -1.6349   -0.2467 C.2     1  UNL1        0.2476
     14 O          -1.6920   -2.3900   -0.8857 O.2     1  UNL1       -0.2701
     15 C          -3.9149   -1.8023   -0.5986 C.ar    1  UNL1        0.0786
     16 C          -4.1872   -2.6603   -1.6805 C.ar    1  UNL1       -0.0461
     17 C          -5.4473   -2.8916   -2.1762 C.ar    1  UNL1       -0.0608
     18 C          -6.5151   -2.2596   -1.5974 C.ar    1  UNL1       -0.0583
     19 C          -6.2815   -1.4314   -0.5566 C.ar    1  UNL1       -0.0189
     20 C          -4.9771   -1.1693   -0.0143 C.ar    1  UNL1        0.1421
     21 O          -4.9873   -0.3288    1.0118 O.3     1  UNL1       -0.4050
     22 C          -4.9969    0.4727    1.9904 C.3     1  UNL1        0.5753
     23 F          -4.4477   -0.1239    3.1633 F       1  UNL1       -0.1328
     24 F          -4.3662    1.7213    1.8988 F       1  UNL1       -0.1328
     25 F          -6.3303    0.8210    2.3952 F       1  UNL1       -0.1328
     26 C          -0.2531    1.3143   -0.4445 C.2     1  UNL1        0.2235
     27 O          -0.5747    1.2974   -1.7042 O.2     1  UNL1       -0.2749
     28 N          -0.4939    2.5370    0.1917 N.am    1  UNL1       -0.2966
     29 C          -0.2650    2.8892    1.5641 C.3     1  UNL1        0.0382
     30 C          -0.4482    4.3770    1.8051 C.3     1  UNL1        0.0635
     31 O          -1.5769    4.9194    1.2685 O.3     1  UNL1       -0.3767
     32 C          -2.1510    4.2560    0.2183 C.3     1  UNL1        0.0635
     33 C          -1.0446    3.6537   -0.6182 C.3     1  UNL1        0.0382
     34 C           0.6268   -0.8626   -1.0286 C.3     1  UNL1       -0.0231
     35 C           2.0001   -0.4854   -1.6398 C.3     1  UNL1        0.0211
     36 H           7.9540   -2.0773    0.3955 H       1  UNL1        0.0230
     37 H           7.9335   -3.6569   -0.3936 H       1  UNL1        0.0230
     38 H           7.0213   -3.4097    1.1785 H       1  UNL1        0.0230
     39 H           6.0736   -2.7985   -1.6093 H       1  UNL1        0.0279
     40 H           5.1705   -3.0389   -0.0954 H       1  UNL1        0.0279
     41 H           6.8294   -0.5805   -0.8575 H       1  UNL1        0.0515
     42 H           5.9850   -0.7457    0.6913 H       1  UNL1        0.0515
     43 H           3.5333   -0.5657    1.2316 H       1  UNL1        0.0444
     44 H           2.1955   -1.7217    1.0357 H       1  UNL1        0.0444
     45 H           2.0870    1.2499    0.3570 H       1  UNL1        0.0289
     46 H           1.5462    0.4786    1.8942 H       1  UNL1        0.0289
     47 H          -0.1784   -1.5621    1.4296 H       1  UNL1        0.0472
     48 H          -0.6225    0.0450    2.0848 H       1  UNL1        0.0472
     49 H          -2.6601   -0.1403    1.2113 H       1  UNL1        0.1490
     50 H          -3.3659   -3.1869   -2.1726 H       1  UNL1        0.0626
     51 H          -5.6440   -3.5461   -2.9993 H       1  UNL1        0.0618
     52 H          -7.5193   -2.4505   -2.0019 H       1  UNL1        0.0619
     53 H          -7.1327   -0.9286   -0.0982 H       1  UNL1        0.0654
     54 H          -0.8875    2.3569    2.2832 H       1  UNL1        0.0487
     55 H           0.8082    2.7033    1.8305 H       1  UNL1        0.0487
     56 H           0.4642    4.9607    1.5685 H       1  UNL1        0.0575
     57 H          -0.5547    4.4773    2.9267 H       1  UNL1        0.0575
     58 H          -2.8524    3.4678    0.5736 H       1  UNL1        0.0575
     59 H          -2.7083    4.9992   -0.4034 H       1  UNL1        0.0575
     60 H          -1.3920    3.2825   -1.6033 H       1  UNL1        0.0487
     61 H          -0.2164    4.3932   -0.6919 H       1  UNL1        0.0487
     62 H          -0.0803   -0.7419   -1.8285 H       1  UNL1        0.0289
     63 H           0.7656   -1.8976   -0.7096 H       1  UNL1        0.0289
     64 H           2.0658   -1.0495   -2.5823 H       1  UNL1        0.0444
     65 H           2.0433    0.5763   -1.8449 H       1  UNL1        0.0444
@<TRIPOS>BOND
     1     1     2    1
     2     2     3    1
     3     3     4    1
     4     4     5    2
     5     4     6    2
     6     4     7    1
     7     7     8    1
     8     8     9    1
     9     9    10    1
    10    10    11    1
    11    11    12    1
    12    12    13   am
    13    13    14    2
    14    13    15    1
    15    15    16   ar
    16    16    17   ar
    17    17    18   ar
    18    18    19   ar
    19    19    20   ar
    20    20    21    1
    21    21    22    1
    22    22    23    1
    23    22    24    1
    24    22    25    1
    25    10    26    1
    26    26    27    2
    27    26    28   am
    28    28    29    1
    29    29    30    1
    30    30    31    1
    31    31    32    1
    32    32    33    1
    33    10    34    1
    34    34    35    1
    35    35     7    1
    36    20    15   ar
    37    33    28    1
    38     1    36    1
    39     1    37    1
    40     1    38    1
    41     2    39    1
    42     2    40    1
    43     3    41    1
    44     3    42    1
    45     8    43    1
    46     8    44    1
    47     9    45    1
    48     9    46    1
    49    11    47    1
    50    11    48    1
    51    12    49    1
    52    16    50    1
    53    17    51    1
    54    18    52    1
    55    19    53    1
    56    29    54    1
    57    29    55    1
    58    30    56    1
    59    30    57    1
    60    32    58    1
    61    32    59    1
    62    33    60    1
    63    33    61    1
    64    34    62    1
    65    34    63    1
    66    35    64    1
    67    35    65    1
