@<TRIPOS>MOLECULE
*****
 69 73 0 0 0
SMALL
GASTEIGER

@<TRIPOS>ATOM
      1 O          -1.2546   -3.4085    2.3261 O.2     1  UNL1       -0.2817
      2 C          -1.4071   -2.9930    1.1646 C.2     1  UNL1        0.2496
      3 C          -2.4848   -3.2383    0.2201 C.2     1  UNL1        0.2915
      4 O          -3.4786   -3.9431    0.4416 O.2     1  UNL1       -0.2661
      5 N          -2.1809   -2.5337   -0.9637 N.am    1  UNL1       -0.2598
      6 C          -2.9588   -2.4714   -2.2048 C.3     1  UNL1        0.0452
      7 C          -3.9648   -1.3777   -2.1552 C.ar    1  UNL1       -0.0295
      8 C          -5.2253   -1.6182   -1.6516 C.ar    1  UNL1       -0.0536
      9 C          -6.1749   -0.6028   -1.6027 C.ar    1  UNL1       -0.0196
     10 C          -5.9337    0.6745   -2.0384 C.ar    1  UNL1        0.1206
     11 O          -6.8293    1.6894   -2.0044 O.3     1  UNL1       -0.4897
     12 C          -8.1032    1.8735   -1.5891 C.3     1  UNL1        0.1128
     13 C          -8.2736    1.6824   -0.1055 C.3     1  UNL1        0.0818
     14 O          -7.4472    2.6171    0.5231 O.3     1  UNL1       -0.3739
     15 C          -7.5046    2.5544    1.8966 C.3     1  UNL1        0.0760
     16 C          -7.0974    1.2351    2.4742 C.3     1  UNL1        0.1134
     17 F          -5.7740    0.9989    2.0814 F       1  UNL1       -0.2467
     18 C          -4.6401    0.9041   -2.5510 C.ar    1  UNL1       -0.0196
     19 C          -3.7055   -0.1003   -2.5981 C.ar    1  UNL1       -0.0536
     20 C          -0.9462   -1.8663   -0.7648 C.ar    1  UNL1        0.0481
     21 C          -0.1608   -1.0361   -1.5725 C.ar    1  UNL1       -0.0377
     22 C           1.0298   -0.4939   -1.1545 C.ar    1  UNL1       -0.0335
     23 C           1.4951   -0.7596    0.1035 C.ar    1  UNL1        0.1063
     24 S           3.0228   -0.0547    0.6201 S.O2    1  UNL1        0.0612
     25 O           2.9497    0.1256    2.1103 O.2     1  UNL1       -0.1528
     26 O           3.1338    1.2740   -0.0858 O.2     1  UNL1       -0.1528
     27 N           4.2584   -1.1502    0.2143 N.3     1  UNL1       -0.1702
     28 C           4.3415   -1.3829   -1.2042 C.3     1  UNL1        0.0225
     29 C           5.8301   -1.4509   -1.1049 C.3     1  UNL1       -0.0180
     30 C           5.6135   -0.6726    0.2122 C.3     1  UNL1        0.0671
     31 C           5.8044    0.7944    0.0137 C.3     1  UNL1        0.1067
     32 O           7.1439    1.1373    0.0481 O.3     1  UNL1       -0.4904
     33 C           8.0696    1.0746    1.0501 C.ar    1  UNL1        0.1206
     34 C           9.3970    1.4636    0.7946 C.ar    1  UNL1       -0.0199
     35 C          10.3253    1.4115    1.7732 C.ar    1  UNL1       -0.0583
     36 C          10.0413    0.9866    3.0478 C.ar    1  UNL1       -0.0615
     37 C           8.7539    0.5960    3.3449 C.ar    1  UNL1       -0.0583
     38 C           7.7978    0.6545    2.3216 C.ar    1  UNL1       -0.0199
     39 C           0.7666   -1.5646    0.9318 C.ar    1  UNL1       -0.0226
     40 C          -0.4289   -2.1010    0.4934 C.ar    1  UNL1        0.0502
     41 H          -2.2944   -2.2503   -3.0758 H       1  UNL1        0.0518
     42 H          -3.3995   -3.4601   -2.3662 H       1  UNL1        0.0518
     43 H          -5.4271   -2.6231   -1.3040 H       1  UNL1        0.0622
     44 H          -7.1394   -0.8702   -1.2120 H       1  UNL1        0.0654
     45 H          -8.3611    2.9693   -1.7640 H       1  UNL1        0.0720
     46 H          -8.8817    1.3056   -2.1643 H       1  UNL1        0.0720
     47 H          -8.0987    0.6574    0.1708 H       1  UNL1        0.0594
     48 H          -9.3500    1.9103    0.1120 H       1  UNL1        0.0594
     49 H          -8.5197    2.8541    2.2670 H       1  UNL1        0.0585
     50 H          -6.8065    3.3217    2.2900 H       1  UNL1        0.0585
     51 H          -7.0518    1.3530    3.5775 H       1  UNL1        0.0638
     52 H          -7.6900    0.3811    2.1494 H       1  UNL1        0.0638
     53 H          -4.4331    1.9004   -2.8980 H       1  UNL1        0.0654
     54 H          -2.7018    0.0938   -3.0022 H       1  UNL1        0.0622
     55 H          -0.5628   -0.8476   -2.5763 H       1  UNL1        0.0637
     56 H           1.5765    0.1379   -1.8398 H       1  UNL1        0.0638
     57 H           3.8484   -2.3292   -1.5602 H       1  UNL1        0.0444
     58 H           3.9886   -0.5565   -1.8531 H       1  UNL1        0.0444
     59 H           6.3342   -0.8209   -1.8536 H       1  UNL1        0.0295
     60 H           6.2501   -2.4623   -0.9477 H       1  UNL1        0.0295
     61 H           6.1788   -1.1255    1.0390 H       1  UNL1        0.0514
     62 H           5.2605    1.3176    0.8584 H       1  UNL1        0.0713
     63 H           5.3133    1.1704   -0.9120 H       1  UNL1        0.0713
     64 H           9.6025    1.7987   -0.2258 H       1  UNL1        0.0654
     65 H          11.3437    1.7208    1.5388 H       1  UNL1        0.0619
     66 H          10.8157    0.9610    3.7991 H       1  UNL1        0.0618
     67 H           8.4946    0.2549    4.3411 H       1  UNL1        0.0619
     68 H           6.7944    0.3589    2.6149 H       1  UNL1        0.0654
     69 H           1.1161   -1.7923    1.9412 H       1  UNL1        0.0645
@<TRIPOS>BOND
     1     1     2    2
     2     2     3    1
     3     3     4    2
     4     3     5   am
     5     5     6    1
     6     6     7    1
     7     7     8   ar
     8     8     9   ar
     9     9    10   ar
    10    10    11    1
    11    11    12    1
    12    12    13    1
    13    13    14    1
    14    14    15    1
    15    15    16    1
    16    16    17    1
    17    10    18   ar
    18    18    19   ar
    19     5    20    1
    20    20    21   ar
    21    21    22   ar
    22    22    23   ar
    23    23    24    1
    24    24    25    2
    25    24    26    2
    26    24    27    1
    27    27    28    1
    28    28    29    1
    29    29    30    1
    30    30    31    1
    31    31    32    1
    32    32    33    1
    33    33    34   ar
    34    34    35   ar
    35    35    36   ar
    36    36    37   ar
    37    37    38   ar
    38    23    39   ar
    39    39    40   ar
    40    40     2    1
    41    19     7   ar
    42    40    20   ar
    43    30    27    1
    44    38    33   ar
    45     6    41    1
    46     6    42    1
    47     8    43    1
    48     9    44    1
    49    12    45    1
    50    12    46    1
    51    13    47    1
    52    13    48    1
    53    15    49    1
    54    15    50    1
    55    16    51    1
    56    16    52    1
    57    18    53    1
    58    19    54    1
    59    21    55    1
    60    22    56    1
    61    28    57    1
    62    28    58    1
    63    29    59    1
    64    29    60    1
    65    30    61    1
    66    31    62    1
    67    31    63    1
    68    34    64    1
    69    35    65    1
    70    36    66    1
    71    37    67    1
    72    38    68    1
    73    39    69    1
