
     RDKit          3D

 48 50  0  0  0  0  0  0  0  0999 V2000
   -4.8764    2.1289    1.3928 C   0  0  0  0  0  0  0  0  0  0  0  0
   -4.1132    2.1148    0.3080 O   0  0  0  0  0  0  0  0  0  0  0  0
   -3.2289    1.1935    0.0105 C   0  0  0  0  0  0  0  0  0  0  0  0
   -3.7735   -0.2158   -0.1817 C   0  0  2  0  0  0  0  0  0  0  0  0
   -4.3951   -0.8031    1.0426 C   0  0  0  0  0  0  0  0  0  0  0  0
   -3.7873   -2.2033    1.1639 C   0  0  0  0  0  0  0  0  0  0  0  0
   -2.4648   -2.0245    0.3918 C   0  0  0  0  0  0  0  0  0  0  0  0
   -2.7539   -1.0974   -0.5883 N   0  0  0  0  0  0  0  0  0  0  0  0
   -1.9327   -0.9315   -1.9997 S   0  0  0  0  0  6  0  0  0  0  0  0
   -2.4916    0.1490   -2.9226 O   0  0  0  0  0  0  0  0  0  0  0  0
   -1.8677   -2.1700   -2.8616 O   0  0  0  0  0  0  0  0  0  0  0  0
   -0.2456   -0.5104   -1.6640 C   0  0  0  0  0  0  0  0  0  0  0  0
    0.6894   -1.5063   -1.4769 C   0  0  0  0  0  0  0  0  0  0  0  0
    2.0068   -1.2149   -1.2168 C   0  0  0  0  0  0  0  0  0  0  0  0
    2.4528    0.1028   -1.1314 C   0  0  0  0  0  0  0  0  0  0  0  0
    1.5238    1.1047   -1.3173 C   0  0  0  0  0  0  0  0  0  0  0  0
    0.1867    0.7917   -1.5812 C   0  0  0  0  0  0  0  0  0  0  0  0
    2.2411    2.3669   -1.1781 C   0  0  0  0  0  0  0  0  0  0  0  0
    1.7392    3.5158   -1.2798 O   0  0  0  0  0  0  0  0  0  0  0  0
    3.6407    2.0755   -0.9005 C   0  0  0  0  0  0  0  0  0  0  0  0
    4.5779    2.9272   -0.7169 O   0  0  0  0  0  0  0  0  0  0  0  0
    3.7453    0.6618   -0.8768 N   0  0  0  0  0  0  0  0  0  0  0  0
    4.9405   -0.0875   -0.6387 C   0  0  0  0  0  0  0  0  0  0  0  0
    5.1762   -0.4013    0.8217 C   0  0  2  0  0  0  0  0  0  0  0  0
    4.1398   -1.1494    1.3650 O   0  0  0  0  0  0  0  0  0  0  0  0
    5.3819    0.8237    1.6582 C   0  0  0  0  0  0  0  0  0  0  0  0
    6.4685    1.5677    1.2518 F   0  0  0  0  0  0  0  0  0  0  0  0
   -5.5196    3.0762    1.4483 H   0  0  0  0  0  0  0  0  0  0  0  0
   -4.3335    2.0463    2.3449 H   0  0  0  0  0  0  0  0  0  0  0  0
   -5.6551    1.3078    1.3557 H   0  0  0  0  0  0  0  0  0  0  0  0
   -2.3217    1.1528    0.6821 H   0  0  0  0  0  0  0  0  0  0  0  0
   -2.7660    1.4494   -1.0062 H   0  0  0  0  0  0  0  0  0  0  0  0
   -4.6044   -0.1544   -0.9481 H   0  0  0  0  0  0  0  0  0  0  0  0
   -4.0602   -0.2636    1.9550 H   0  0  0  0  0  0  0  0  0  0  0  0
   -5.5076   -0.9042    0.9687 H   0  0  0  0  0  0  0  0  0  0  0  0
   -4.4604   -2.8774    0.5958 H   0  0  0  0  0  0  0  0  0  0  0  0
   -3.6173   -2.4944    2.1999 H   0  0  0  0  0  0  0  0  0  0  0  0
   -1.6902   -1.7067    1.1278 H   0  0  0  0  0  0  0  0  0  0  0  0
   -2.1781   -3.0419    0.0218 H   0  0  0  0  0  0  0  0  0  0  0  0
    0.3202   -2.5388   -1.5478 H   0  0  0  0  0  0  0  0  0  0  0  0
    2.7065   -2.0162   -1.0767 H   0  0  0  0  0  0  0  0  0  0  0  0
   -0.4940    1.5986   -1.7190 H   0  0  0  0  0  0  0  0  0  0  0  0
    4.9194   -1.0822   -1.1647 H   0  0  0  0  0  0  0  0  0  0  0  0
    5.8114    0.4488   -1.0579 H   0  0  0  0  0  0  0  0  0  0  0  0
    6.0922   -1.0211    0.8812 H   0  0  0  0  0  0  0  0  0  0  0  0
    4.3197   -2.1102    1.1759 H   0  0  0  0  0  0  0  0  0  0  0  0
    5.6010    0.4845    2.6914 H   0  0  0  0  0  0  0  0  0  0  0  0
    4.4582    1.4385    1.7306 H   0  0  0  0  0  0  0  0  0  0  0  0
  1  2  1  0
  2  3  1  0
  3  4  1  0
  4  5  1  0
  5  6  1  0
  6  7  1  0
  7  8  1  0
  8  9  1  0
  9 10  2  0
  9 11  2  0
  9 12  1  0
 12 13  2  0
 13 14  1  0
 14 15  2  0
 15 16  1  0
 16 17  2  0
 16 18  1  0
 18 19  2  0
 18 20  1  0
 20 21  2  0
 20 22  1  0
 22 23  1  0
 23 24  1  0
 24 25  1  0
 24 26  1  0
 26 27  1  0
  8  4  1  0
 17 12  1  0
 22 15  1  0
  1 28  1  0
  1 29  1  0
  1 30  1  0
  3 31  1  0
  3 32  1  0
  4 33  1  6
  5 34  1  0
  5 35  1  0
  6 36  1  0
  6 37  1  0
  7 38  1  0
  7 39  1  0
 13 40  1  0
 14 41  1  0
 17 42  1  0
 23 43  1  0
 23 44  1  0
 24 45  1  6
 25 46  1  0
 26 47  1  0
 26 48  1  0
M  END
$$$$
