@<TRIPOS>MOLECULE
*****
 48 50 0 0 0
SMALL
GASTEIGER

@<TRIPOS>ATOM
      1 C          -4.8764    2.1289    1.3928 C.3     1  UNL1        0.0365
      2 O          -4.1132    2.1148    0.3080 O.3     1  UNL1       -0.3814
      3 C          -3.2289    1.1935    0.0105 C.3     1  UNL1        0.0645
      4 C          -3.7735   -0.2158   -0.1817 C.3     1  UNL1        0.0552
      5 C          -4.3951   -0.8031    1.0426 C.3     1  UNL1       -0.0323
      6 C          -3.7873   -2.2033    1.1639 C.3     1  UNL1       -0.0370
      7 C          -2.4648   -2.0245    0.3918 C.3     1  UNL1        0.0209
      8 N          -2.7539   -1.0974   -0.5883 N.3     1  UNL1       -0.1713
      9 S          -1.9327   -0.9315   -1.9997 S.O2    1  UNL1        0.0612
     10 O          -2.4916    0.1490   -2.9226 O.2     1  UNL1       -0.1528
     11 O          -1.8677   -2.1700   -2.8616 O.2     1  UNL1       -0.1528
     12 C          -0.2456   -0.5104   -1.6640 C.ar    1  UNL1        0.1063
     13 C           0.6894   -1.5063   -1.4769 C.ar    1  UNL1       -0.0335
     14 C           2.0068   -1.2149   -1.2168 C.ar    1  UNL1       -0.0377
     15 C           2.4528    0.1028   -1.1314 C.ar    1  UNL1        0.0478
     16 C           1.5238    1.1047   -1.3173 C.ar    1  UNL1        0.0502
     17 C           0.1867    0.7917   -1.5812 C.ar    1  UNL1       -0.0226
     18 C           2.2411    2.3669   -1.1781 C.2     1  UNL1        0.2496
     19 O           1.7392    3.5158   -1.2798 O.2     1  UNL1       -0.2817
     20 C           3.6407    2.0755   -0.9005 C.2     1  UNL1        0.2913
     21 O           4.5779    2.9272   -0.7169 O.2     1  UNL1       -0.2661
     22 N           3.7453    0.6618   -0.8768 N.am    1  UNL1       -0.2616
     23 C           4.9405   -0.0875   -0.6387 C.3     1  UNL1        0.0487
     24 C           5.1762   -0.4013    0.8217 C.3     1  UNL1        0.0993
     25 O           4.1398   -1.1494    1.3650 O.3     1  UNL1       -0.3877
     26 C           5.3819    0.8237    1.6582 C.3     1  UNL1        0.1175
     27 F           6.4685    1.5677    1.2518 F       1  UNL1       -0.2463
     28 H          -5.5196    3.0762    1.4483 H       1  UNL1        0.0523
     29 H          -4.3335    2.0463    2.3449 H       1  UNL1        0.0523
     30 H          -5.6551    1.3078    1.3557 H       1  UNL1        0.0523
     31 H          -2.3217    1.1528    0.6821 H       1  UNL1        0.0576
     32 H          -2.7660    1.4494   -1.0062 H       1  UNL1        0.0576
     33 H          -4.6044   -0.1544   -0.9481 H       1  UNL1        0.0502
     34 H          -4.0602   -0.2636    1.9550 H       1  UNL1        0.0282
     35 H          -5.5076   -0.9042    0.9687 H       1  UNL1        0.0282
     36 H          -4.4604   -2.8774    0.5958 H       1  UNL1        0.0279
     37 H          -3.6173   -2.4944    2.1999 H       1  UNL1        0.0279
     38 H          -1.6902   -1.7067    1.1278 H       1  UNL1        0.0444
     39 H          -2.1781   -3.0419    0.0218 H       1  UNL1        0.0444
     40 H           0.3202   -2.5388   -1.5478 H       1  UNL1        0.0638
     41 H           2.7065   -2.0162   -1.0767 H       1  UNL1        0.0637
     42 H          -0.4940    1.5986   -1.7190 H       1  UNL1        0.0645
     43 H           4.9194   -1.0822   -1.1647 H       1  UNL1        0.0495
     44 H           5.8114    0.4488   -1.0579 H       1  UNL1        0.0495
     45 H           6.0922   -1.0211    0.8812 H       1  UNL1        0.0635
     46 H           4.3197   -2.1102    1.1759 H       1  UNL1        0.2100
     47 H           5.6010    0.4845    2.6914 H       1  UNL1        0.0641
     48 H           4.4582    1.4385    1.7306 H       1  UNL1        0.0641
@<TRIPOS>BOND
     1     1     2    1
     2     2     3    1
     3     3     4    1
     4     4     5    1
     5     5     6    1
     6     6     7    1
     7     7     8    1
     8     8     9    1
     9     9    10    2
    10     9    11    2
    11     9    12    1
    12    12    13   ar
    13    13    14   ar
    14    14    15   ar
    15    15    16   ar
    16    16    17   ar
    17    16    18    1
    18    18    19    2
    19    18    20    1
    20    20    21    2
    21    20    22   am
    22    22    23    1
    23    23    24    1
    24    24    25    1
    25    24    26    1
    26    26    27    1
    27     8     4    1
    28    17    12   ar
    29    22    15    1
    30     1    28    1
    31     1    29    1
    32     1    30    1
    33     3    31    1
    34     3    32    1
    35     4    33    1
    36     5    34    1
    37     5    35    1
    38     6    36    1
    39     6    37    1
    40     7    38    1
    41     7    39    1
    42    13    40    1
    43    14    41    1
    44    17    42    1
    45    23    43    1
    46    23    44    1
    47    24    45    1
    48    25    46    1
    49    26    47    1
    50    26    48    1
