@<TRIPOS>MOLECULE
*****
 55 59 0 0 0
SMALL
GASTEIGER

@<TRIPOS>ATOM
      1 N          -3.7335    0.4860   -3.4489 N.pl3   1  UNL1       -0.3565
      2 C          -4.6519    0.3325   -2.3833 C.ar    1  UNL1        0.0461
      3 C          -5.9885    0.0997   -2.6618 C.ar    1  UNL1       -0.0386
      4 C          -6.8616   -0.0459   -1.5775 C.ar    1  UNL1       -0.0517
      5 C          -6.4018    0.0403   -0.2849 C.ar    1  UNL1       -0.0094
      6 C          -7.3337   -0.1154    0.8234 C.ar    1  UNL1        0.0194
      7 C          -8.6791   -0.3483    0.8010 C.ar    1  UNL1       -0.0469
      8 C          -9.3334   -0.4556    1.9569 C.ar    1  UNL1       -0.0541
      9 C          -8.6355   -0.3288    3.1368 C.ar    1  UNL1       -0.0237
     10 S          -6.9602   -0.0420    2.5347 S.2     1  UNL1       -0.0967
     11 C          -5.0652    0.2730   -0.0218 C.ar    1  UNL1       -0.0305
     12 C          -4.1977    0.4177   -1.0849 C.ar    1  UNL1        0.0551
     13 N          -2.8088    0.6592   -0.8765 N.am    1  UNL1       -0.2799
     14 C          -1.8875   -0.4186   -0.7634 C.2     1  UNL1        0.2498
     15 O          -2.4106   -1.5848   -0.8637 O.2     1  UNL1       -0.2698
     16 C          -0.4590   -0.2661   -0.5511 C.ar    1  UNL1        0.0552
     17 C           0.3289   -1.3797   -0.4583 C.ar    1  UNL1       -0.0449
     18 C           1.6922   -1.2474   -0.2559 C.ar    1  UNL1       -0.0210
     19 C           2.2728    0.0204   -0.1450 C.ar    1  UNL1        0.1212
     20 N           3.6739    0.1578    0.0630 N.pl3   1  UNL1       -0.3149
     21 C           4.5704   -0.9706    0.1687 C.3     1  UNL1        0.0172
     22 C           5.9790   -0.5291   -0.1402 C.3     1  UNL1        0.0046
     23 C           6.4431    0.5764    0.7531 C.3     1  UNL1        0.1334
     24 C           5.3671    1.5162    1.1830 C.3     1  UNL1        0.0046
     25 C           4.2350    1.4832    0.1751 C.3     1  UNL1        0.0172
     26 C           7.1150   -0.0732    1.9619 C.3     1  UNL1        0.0548
     27 N           8.3626   -0.5248    1.3774 N.am    1  UNL1       -0.2773
     28 C           8.6270    0.3680    0.3026 C.2     1  UNL1        0.4010
     29 O           9.6595    0.3644   -0.4261 O.2     1  UNL1       -0.2265
     30 O           7.5481    1.2639    0.1773 O.3     1  UNL1       -0.4421
     31 N           1.4483    1.0699   -0.2444 N.ar    1  UNL1       -0.2396
     32 C           0.1143    0.9647   -0.4420 C.ar    1  UNL1        0.0418
     33 H          -3.6507    1.4153   -3.9004 H       1  UNL1        0.1424
     34 H          -3.1656   -0.3172   -3.7590 H       1  UNL1        0.1424
     35 H          -6.3473    0.0324   -3.6787 H       1  UNL1        0.0637
     36 H          -7.9214   -0.2303   -1.7636 H       1  UNL1        0.0624
     37 H          -9.1880   -0.4414   -0.1901 H       1  UNL1        0.0629
     38 H         -10.4420   -0.6471    2.0464 H       1  UNL1        0.0623
     39 H          -8.9458   -0.3773    4.1607 H       1  UNL1        0.0693
     40 H          -4.6952    0.3422    0.9961 H       1  UNL1        0.0643
     41 H          -2.4614    1.6353   -0.8058 H       1  UNL1        0.1552
     42 H          -0.1273   -2.3656   -0.5452 H       1  UNL1        0.0627
     43 H           2.3087   -2.1241   -0.1833 H       1  UNL1        0.0652
     44 H           4.3002   -1.8123   -0.4891 H       1  UNL1        0.0465
     45 H           4.5022   -1.3138    1.2415 H       1  UNL1        0.0465
     46 H           6.6312   -1.4286   -0.0744 H       1  UNL1        0.0319
     47 H           5.9854   -0.2203   -1.2190 H       1  UNL1        0.0319
     48 H           5.7775    2.5464    1.1718 H       1  UNL1        0.0319
     49 H           5.0110    1.2986    2.1898 H       1  UNL1        0.0319
     50 H           3.4396    2.1590    0.5845 H       1  UNL1        0.0465
     51 H           4.5824    1.8897   -0.7899 H       1  UNL1        0.0465
     52 H           6.5135   -0.8775    2.3916 H       1  UNL1        0.0502
     53 H           7.3806    0.7239    2.6928 H       1  UNL1        0.0502
     54 H           8.9713   -1.3252    1.6504 H       1  UNL1        0.1521
     55 H          -0.4880    1.8530   -0.5122 H       1  UNL1        0.0838
@<TRIPOS>BOND
     1     1     2    1
     2     2     3   ar
     3     3     4   ar
     4     4     5   ar
     5     5     6    1
     6     6     7   ar
     7     7     8   ar
     8     8     9   ar
     9     9    10   ar
    10     5    11   ar
    11    11    12   ar
    12    12    13    1
    13    13    14   am
    14    14    15    2
    15    14    16    1
    16    16    17   ar
    17    17    18   ar
    18    18    19   ar
    19    19    20    1
    20    20    21    1
    21    21    22    1
    22    22    23    1
    23    23    24    1
    24    24    25    1
    25    23    26    1
    26    26    27    1
    27    27    28   am
    28    28    29    2
    29    28    30    1
    30    19    31   ar
    31    31    32   ar
    32    12     2   ar
    33    32    16   ar
    34    10     6   ar
    35    25    20    1
    36    30    23    1
    37     1    33    1
    38     1    34    1
    39     3    35    1
    40     4    36    1
    41     7    37    1
    42     8    38    1
    43     9    39    1
    44    11    40    1
    45    13    41    1
    46    17    42    1
    47    18    43    1
    48    21    44    1
    49    21    45    1
    50    22    46    1
    51    22    47    1
    52    24    48    1
    53    24    49    1
    54    25    50    1
    55    25    51    1
    56    26    52    1
    57    26    53    1
    58    27    54    1
    59    32    55    1
