
     RDKit          3D

 56 59  0  0  0  0  0  0  0  0999 V2000
    7.2595    0.1346   -0.2161 O   0  0  0  0  0  0  0  0  0  0  0  0
    6.1261    0.9508   -0.2559 C   0  0  0  0  0  0  0  0  0  0  0  0
    5.0362    0.2488    0.4803 C   0  0  0  0  0  0  0  0  0  0  0  0
    4.7239   -1.0222   -0.0980 N   0  0  0  0  0  0  0  0  0  0  0  0
    3.6642   -1.7112    0.6291 C   0  0  0  0  0  0  0  0  0  0  0  0
    2.3501   -1.5197   -0.1108 C   0  0  0  0  0  0  0  0  0  0  0  0
    2.2290   -0.1383   -0.5076 N   0  0  0  0  0  0  0  0  0  0  0  0
    0.9392    0.2277   -0.9985 C   0  0  0  0  0  0  0  0  0  0  0  0
   -0.1511    0.2170    0.0373 C   0  0  0  0  0  0  0  0  0  0  0  0
   -1.4207    0.6351   -0.6992 C   0  0  0  0  0  0  0  0  0  0  0  0
   -2.5775    0.7035    0.1342 N   0  0  0  0  0  0  0  0  0  0  0  0
   -2.6449    1.7855    1.0413 C   0  0  0  0  0  0  0  0  0  0  0  0
   -1.6728    2.7605    1.0811 C   0  0  0  0  0  0  0  0  0  0  0  0
   -1.6629    3.8559    1.9188 C   0  0  0  0  0  0  0  0  0  0  0  0
   -2.6973    4.0293    2.8095 C   0  0  0  0  0  0  0  0  0  0  0  0
   -3.7142    3.0784    2.8197 C   0  0  0  0  0  0  0  0  0  0  0  0
   -3.6400    2.0256    1.9538 C   0  0  0  0  0  0  0  0  0  0  0  0
   -5.0195    0.9086    2.0864 S   0  0  0  0  0  0  0  0  0  0  0  0
   -4.7304   -0.3481    0.8558 C   0  0  0  0  0  0  0  0  0  0  0  0
   -3.5951   -0.2813    0.0876 C   0  0  0  0  0  0  0  0  0  0  0  0
   -3.5232   -1.3310   -0.8022 C   0  0  0  0  0  0  0  0  0  0  0  0
   -4.4518   -2.3384   -0.9348 C   0  0  0  0  0  0  0  0  0  0  0  0
   -5.5629   -2.3248   -0.1202 C   0  0  0  0  0  0  0  0  0  0  0  0
   -5.6921   -1.2892    0.8002 C   0  0  0  0  0  0  0  0  0  0  0  0
   -4.3563   -3.4617   -1.9001 C   0  0  0  0  0  0  0  0  0  0  0  0
   -3.0269   -3.5976   -2.2364 F   0  0  0  0  0  0  0  0  0  0  0  0
   -5.0297   -3.0738   -3.0421 F   0  0  0  0  0  0  0  0  0  0  0  0
   -4.8672   -4.6432   -1.3741 F   0  0  0  0  0  0  0  0  0  0  0  0
    3.1534    0.0355   -1.6435 C   0  0  0  0  0  0  0  0  0  0  0  0
    4.3626   -0.8475   -1.4884 C   0  0  0  0  0  0  0  0  0  0  0  0
    7.5843    0.0360    0.6976 H   0  0  0  0  0  0  0  0  0  0  0  0
    6.3743    1.8743    0.3281 H   0  0  0  0  0  0  0  0  0  0  0  0
    5.8519    1.3012   -1.2497 H   0  0  0  0  0  0  0  0  0  0  0  0
    4.1355    0.9017    0.4648 H   0  0  0  0  0  0  0  0  0  0  0  0
    5.3861    0.0577    1.5223 H   0  0  0  0  0  0  0  0  0  0  0  0
    3.8386   -2.7945    0.7408 H   0  0  0  0  0  0  0  0  0  0  0  0
    3.6059   -1.2417    1.6205 H   0  0  0  0  0  0  0  0  0  0  0  0
    1.5146   -1.8810    0.5198 H   0  0  0  0  0  0  0  0  0  0  0  0
    2.3449   -2.1263   -1.0372 H   0  0  0  0  0  0  0  0  0  0  0  0
    0.6287   -0.4839   -1.7888 H   0  0  0  0  0  0  0  0  0  0  0  0
    1.0112    1.2272   -1.4439 H   0  0  0  0  0  0  0  0  0  0  0  0
   -0.3489   -0.8881    0.2483 H   0  0  0  0  0  0  0  0  0  0  0  0
    0.0485    0.7055    0.9689 H   0  0  0  0  0  0  0  0  0  0  0  0
   -1.1658    1.6368   -1.1455 H   0  0  0  0  0  0  0  0  0  0  0  0
   -1.4362   -0.0558   -1.5340 H   0  0  0  0  0  0  0  0  0  0  0  0
   -0.8102    2.7705    0.4372 H   0  0  0  0  0  0  0  0  0  0  0  0
   -0.8990    4.6160    1.9459 H   0  0  0  0  0  0  0  0  0  0  0  0
   -2.7258    4.8698    3.4789 H   0  0  0  0  0  0  0  0  0  0  0  0
   -4.5068    3.2492    3.5308 H   0  0  0  0  0  0  0  0  0  0  0  0
   -2.7089   -1.4686   -1.4970 H   0  0  0  0  0  0  0  0  0  0  0  0
   -6.3148   -3.0943   -0.1914 H   0  0  0  0  0  0  0  0  0  0  0  0
   -6.5750   -1.3207    1.4147 H   0  0  0  0  0  0  0  0  0  0  0  0
    2.6007   -0.3434   -2.5351 H   0  0  0  0  0  0  0  0  0  0  0  0
    3.3780    1.0879   -1.8433 H   0  0  0  0  0  0  0  0  0  0  0  0
    4.1561   -1.8639   -1.9294 H   0  0  0  0  0  0  0  0  0  0  0  0
    5.2245   -0.4404   -2.0301 H   0  0  0  0  0  0  0  0  0  0  0  0
  1  2  1  0
  2  3  1  0
  3  4  1  0
  4  5  1  0
  5  6  1  0
  6  7  1  0
  7  8  1  0
  8  9  1  0
  9 10  1  0
 10 11  1  0
 11 12  1  0
 12 13  2  0
 13 14  1  0
 14 15  2  0
 15 16  1  0
 16 17  2  0
 17 18  1  0
 18 19  1  0
 19 20  2  0
 20 21  1  0
 21 22  2  0
 22 23  1  0
 23 24  2  0
 22 25  1  0
 25 26  1  0
 25 27  1  0
 25 28  1  0
  7 29  1  0
 29 30  1  0
 30  4  1  0
 20 11  1  0
 17 12  1  0
 24 19  1  0
  1 31  1  0
  2 32  1  0
  2 33  1  0
  3 34  1  0
  3 35  1  0
  5 36  1  0
  5 37  1  0
  6 38  1  0
  6 39  1  0
  8 40  1  0
  8 41  1  0
  9 42  1  0
  9 43  1  0
 10 44  1  0
 10 45  1  0
 13 46  1  0
 14 47  1  0
 15 48  1  0
 16 49  1  0
 21 50  1  0
 23 51  1  0
 24 52  1  0
 29 53  1  0
 29 54  1  0
 30 55  1  0
 30 56  1  0
M  END
$$$$
