
     RDKit          3D

 54 57  0  0  0  0  0  0  0  0999 V2000
   -8.0804   -0.9621   -0.9027 C   0  0  0  0  0  0  0  0  0  0  0  0
   -7.1569    0.0270   -0.5652 O   0  0  0  0  0  0  0  0  0  0  0  0
   -5.8111   -0.2419   -0.2982 C   0  0  0  0  0  0  0  0  0  0  0  0
   -5.2944   -1.5262   -0.3510 C   0  0  0  0  0  0  0  0  0  0  0  0
   -3.9746   -1.8161   -0.0927 C   0  0  0  0  0  0  0  0  0  0  0  0
   -3.4823   -3.0695   -0.1431 N   0  0  0  0  0  0  0  0  0  0  0  0
   -2.1776   -3.3332    0.1189 C   0  0  0  0  0  0  0  0  0  0  0  0
   -1.3644   -2.3215    0.4340 N   0  0  0  0  0  0  0  0  0  0  0  0
   -1.7695   -1.0342    0.5083 C   0  0  0  0  0  0  0  0  0  0  0  0
   -0.9027    0.0292    0.8289 N   0  0  0  0  0  0  0  0  0  0  0  0
   -0.5557    1.1099   -0.0821 C   0  0  0  0  0  0  0  0  0  0  0  0
    0.9310    0.9182   -0.4162 C   0  0  0  0  0  0  0  0  0  0  0  0
    1.6390    0.7019    0.8267 N   0  0  0  0  0  0  0  0  0  0  0  0
    3.0246    0.3539    0.7840 C   0  0  0  0  0  0  0  0  0  0  0  0
    3.5823    0.1796    1.8871 O   0  0  0  0  0  0  0  0  0  0  0  0
    3.6843    0.2252   -0.4508 N   0  0  0  0  0  0  0  0  0  0  0  0
    5.0380   -0.1129   -0.5678 C   0  0  0  0  0  0  0  0  0  0  0  0
    5.5505   -0.2014   -1.8655 C   0  0  0  0  0  0  0  0  0  0  0  0
    6.8532   -0.5217   -2.1513 C   0  0  0  0  0  0  0  0  0  0  0  0
    7.7058   -0.7710   -1.0897 C   0  0  0  0  0  0  0  0  0  0  0  0
    9.0474   -1.1025   -1.3364 N   0  0  0  0  0  4  0  0  0  0  0  0
    9.8444   -1.3340   -0.3973 O   0  0  0  0  0  0  0  0  0  0  0  0
    9.5226   -1.1820   -2.6222 O   0  0  0  0  0  1  0  0  0  0  0  0
    7.2596   -0.6994    0.2121 C   0  0  0  0  0  0  0  0  0  0  0  0
    5.9273   -0.3695    0.4356 C   0  0  0  0  0  0  0  0  0  0  0  0
    0.9879    0.8274    2.1047 C   0  0  0  0  0  0  0  0  0  0  0  0
   -0.3099    0.0689    2.1537 C   0  0  0  0  0  0  0  0  0  0  0  0
   -3.0937   -0.7833    0.2408 C   0  0  0  0  0  0  0  0  0  0  0  0
   -3.5980    0.4990    0.2965 C   0  0  0  0  0  0  0  0  0  0  0  0
   -4.9251    0.7521    0.0317 C   0  0  0  0  0  0  0  0  0  0  0  0
   -5.3710    2.0553    0.1030 O   0  0  0  0  0  0  0  0  0  0  0  0
   -4.5493    3.1494    0.4315 C   0  0  0  0  0  0  0  0  0  0  0  0
   -9.0822   -0.4977   -0.9623 H   0  0  0  0  0  0  0  0  0  0  0  0
   -7.8917   -1.4079   -1.9102 H   0  0  0  0  0  0  0  0  0  0  0  0
   -8.1049   -1.7657   -0.1247 H   0  0  0  0  0  0  0  0  0  0  0  0
   -5.9759   -2.3272   -0.6094 H   0  0  0  0  0  0  0  0  0  0  0  0
   -1.7812   -4.3474    0.0779 H   0  0  0  0  0  0  0  0  0  0  0  0
   -0.6470    2.0855    0.4378 H   0  0  0  0  0  0  0  0  0  0  0  0
   -1.1542    1.0829   -1.0173 H   0  0  0  0  0  0  0  0  0  0  0  0
    1.0682    0.0380   -1.0475 H   0  0  0  0  0  0  0  0  0  0  0  0
    1.3420    1.8261   -0.8738 H   0  0  0  0  0  0  0  0  0  0  0  0
    3.0739    0.4052   -1.3020 H   0  0  0  0  0  0  0  0  0  0  0  0
    4.8741   -0.0041   -2.6920 H   0  0  0  0  0  0  0  0  0  0  0  0
    7.2418   -0.5883   -3.1527 H   0  0  0  0  0  0  0  0  0  0  0  0
    7.9631   -0.9022    1.0000 H   0  0  0  0  0  0  0  0  0  0  0  0
    5.6132   -0.3227    1.4628 H   0  0  0  0  0  0  0  0  0  0  0  0
    1.6508    0.4257    2.8808 H   0  0  0  0  0  0  0  0  0  0  0  0
    0.7366    1.9023    2.2896 H   0  0  0  0  0  0  0  0  0  0  0  0
   -1.0469    0.5917    2.8272 H   0  0  0  0  0  0  0  0  0  0  0  0
   -0.1379   -0.9209    2.5792 H   0  0  0  0  0  0  0  0  0  0  0  0
   -2.9157    1.3143    0.5620 H   0  0  0  0  0  0  0  0  0  0  0  0
   -3.8559    3.3417   -0.4188 H   0  0  0  0  0  0  0  0  0  0  0  0
   -3.9908    2.9970    1.3756 H   0  0  0  0  0  0  0  0  0  0  0  0
   -5.1604    4.0503    0.5524 H   0  0  0  0  0  0  0  0  0  0  0  0
  1  2  1  0
  2  3  1  0
  3  4  2  0
  4  5  1  0
  5  6  2  0
  6  7  1  0
  7  8  2  0
  8  9  1  0
  9 10  1  0
 10 11  1  0
 11 12  1  0
 12 13  1  0
 13 14  1  0
 14 15  2  0
 14 16  1  0
 16 17  1  0
 17 18  2  0
 18 19  1  0
 19 20  2  0
 20 21  1  0
 21 22  2  0
 21 23  1  0
 20 24  1  0
 24 25  2  0
 13 26  1  0
 26 27  1  0
  9 28  2  0
 28 29  1  0
 29 30  2  0
 30 31  1  0
 31 32  1  0
 30  3  1  0
 28  5  1  0
 27 10  1  0
 25 17  1  0
  1 33  1  0
  1 34  1  0
  1 35  1  0
  4 36  1  0
  7 37  1  0
 11 38  1  0
 11 39  1  0
 12 40  1  0
 12 41  1  0
 16 42  1  0
 18 43  1  0
 19 44  1  0
 24 45  1  0
 25 46  1  0
 26 47  1  0
 26 48  1  0
 27 49  1  0
 27 50  1  0
 29 51  1  0
 32 52  1  0
 32 53  1  0
 32 54  1  0
M  CHG  2  21   1  23  -1
M  END
$$$$
