@<TRIPOS>MOLECULE
*****
 54 57 0 0 0
SMALL
GASTEIGER

@<TRIPOS>ATOM
      1 C          -8.0804   -0.9621   -0.9027 C.3     1  UNL1        0.0790
      2 O          -7.1569    0.0270   -0.5652 O.3     1  UNL1       -0.4914
      3 C          -5.8111   -0.2419   -0.2982 C.ar    1  UNL1        0.1635
      4 C          -5.2944   -1.5262   -0.3510 C.ar    1  UNL1        0.0098
      5 C          -3.9746   -1.8161   -0.0927 C.ar    1  UNL1        0.0797
      6 N          -3.4823   -3.0695   -0.1431 N.ar    1  UNL1       -0.2352
      7 C          -2.1776   -3.3332    0.1189 C.ar    1  UNL1        0.1187
      8 N          -1.3644   -2.3215    0.4340 N.ar    1  UNL1       -0.2201
      9 C          -1.7695   -1.0342    0.5083 C.ar    1  UNL1        0.1324
     10 N          -0.9027    0.0292    0.8289 N.pl3   1  UNL1       -0.3116
     11 C          -0.5557    1.1099   -0.0821 C.3     1  UNL1        0.0294
     12 C           0.9310    0.9182   -0.4162 C.3     1  UNL1        0.0319
     13 N           1.6390    0.7019    0.8267 N.am    1  UNL1       -0.2824
     14 C           3.0246    0.3539    0.7840 C.2     1  UNL1        0.3065
     15 O           3.5823    0.1796    1.8871 O.2     1  UNL1       -0.2523
     16 N           3.6843    0.2252   -0.4508 N.am    1  UNL1       -0.2693
     17 C           5.0380   -0.1129   -0.5678 C.ar    1  UNL1        0.0352
     18 C           5.5505   -0.2014   -1.8655 C.ar    1  UNL1       -0.0340
     19 C           6.8532   -0.5217   -2.1513 C.ar    1  UNL1        0.0173
     20 C           7.7058   -0.7710   -1.0897 C.ar    1  UNL1        0.2733
     21 N           9.0474   -1.1025   -1.3364 N.pl3   1  UNL1        0.0796
     22 O           9.8444   -1.3340   -0.3973 O.2     1  UNL1        0.0414
     23 O           9.5226   -1.1820   -2.6222 O.co2   1  UNL1       -0.5760
     24 C           7.2596   -0.6994    0.2121 C.ar    1  UNL1        0.0173
     25 C           5.9273   -0.3695    0.4356 C.ar    1  UNL1       -0.0340
     26 C           0.9879    0.8274    2.1047 C.3     1  UNL1        0.0319
     27 C          -0.3099    0.0689    2.1537 C.3     1  UNL1        0.0294
     28 C          -3.0937   -0.7833    0.2408 C.ar    1  UNL1        0.0440
     29 C          -3.5980    0.4990    0.2965 C.ar    1  UNL1       -0.0038
     30 C          -4.9251    0.7521    0.0317 C.ar    1  UNL1        0.1623
     31 O          -5.3710    2.0553    0.1030 O.3     1  UNL1       -0.4914
     32 C          -4.5493    3.1494    0.4315 C.3     1  UNL1        0.0790
     33 H          -9.0822   -0.4977   -0.9623 H       1  UNL1        0.0660
     34 H          -7.8917   -1.4079   -1.9102 H       1  UNL1        0.0660
     35 H          -8.1049   -1.7657   -0.1247 H       1  UNL1        0.0660
     36 H          -5.9759   -2.3272   -0.6094 H       1  UNL1        0.0677
     37 H          -1.7812   -4.3474    0.0779 H       1  UNL1        0.1048
     38 H          -0.6470    2.0855    0.4378 H       1  UNL1        0.0480
     39 H          -1.1542    1.0829   -1.0173 H       1  UNL1        0.0480
     40 H           1.0682    0.0380   -1.0475 H       1  UNL1        0.0480
     41 H           1.3420    1.8261   -0.8738 H       1  UNL1        0.0480
     42 H           3.0739    0.4052   -1.3020 H       1  UNL1        0.1564
     43 H           4.8741   -0.0041   -2.6920 H       1  UNL1        0.0638
     44 H           7.2418   -0.5883   -3.1527 H       1  UNL1        0.0686
     45 H           7.9631   -0.9022    1.0000 H       1  UNL1        0.0686
     46 H           5.6132   -0.3227    1.4628 H       1  UNL1        0.0638
     47 H           1.6508    0.4257    2.8808 H       1  UNL1        0.0480
     48 H           0.7366    1.9023    2.2896 H       1  UNL1        0.0480
     49 H          -1.0469    0.5917    2.8272 H       1  UNL1        0.0480
     50 H          -0.1379   -0.9209    2.5792 H       1  UNL1        0.0480
     51 H          -2.9157    1.3143    0.5620 H       1  UNL1        0.0663
     52 H          -3.8559    3.3417   -0.4188 H       1  UNL1        0.0660
     53 H          -3.9908    2.9970    1.3756 H       1  UNL1        0.0660
     54 H          -5.1604    4.0503    0.5524 H       1  UNL1        0.0660
@<TRIPOS>UNITY_ATOM_ATTR
21 1
charge 1
23 1
charge -1
@<TRIPOS>BOND
     1     1     2    1
     2     2     3    1
     3     3     4   ar
     4     4     5   ar
     5     5     6   ar
     6     6     7   ar
     7     7     8   ar
     8     8     9   ar
     9     9    10    1
    10    10    11    1
    11    11    12    1
    12    12    13    1
    13    13    14   am
    14    14    15    2
    15    14    16   am
    16    16    17    1
    17    17    18   ar
    18    18    19   ar
    19    19    20   ar
    20    20    21    1
    21    21    22    2
    22    21    23    1
    23    20    24   ar
    24    24    25   ar
    25    13    26    1
    26    26    27    1
    27     9    28   ar
    28    28    29   ar
    29    29    30   ar
    30    30    31    1
    31    31    32    1
    32    30     3   ar
    33    28     5   ar
    34    27    10    1
    35    25    17   ar
    36     1    33    1
    37     1    34    1
    38     1    35    1
    39     4    36    1
    40     7    37    1
    41    11    38    1
    42    11    39    1
    43    12    40    1
    44    12    41    1
    45    16    42    1
    46    18    43    1
    47    19    44    1
    48    24    45    1
    49    25    46    1
    50    26    47    1
    51    26    48    1
    52    27    49    1
    53    27    50    1
    54    29    51    1
    55    32    52    1
    56    32    53    1
    57    32    54    1
