@<TRIPOS>MOLECULE
*****
 62 67 0 0 0
SMALL
GASTEIGER

@<TRIPOS>ATOM
      1 C          10.2401   -1.7463   -0.2028 C.3     1  UNL1        0.0789
      2 O           9.6480   -0.9122    0.7468 O.3     1  UNL1       -0.4936
      3 C           8.3561   -0.3988    0.6120 C.ar    1  UNL1        0.1381
      4 C           7.8201    0.4216    1.5819 C.ar    1  UNL1       -0.0163
      5 C           6.5377    0.9142    1.4192 C.ar    1  UNL1       -0.0277
      6 C           5.7670    0.6149    0.3160 C.ar    1  UNL1        0.1259
      7 C           4.4159    1.1347    0.1460 C.2     1  UNL1        0.2666
      8 O           3.8809    1.8807    0.9911 O.2     1  UNL1       -0.2682
      9 N           3.6715    0.7898   -1.0141 N.am    1  UNL1       -0.2802
     10 C           2.3305    1.3028   -1.1876 C.ar    1  UNL1        0.0343
     11 C           2.1339    2.5005   -1.8350 C.ar    1  UNL1       -0.0370
     12 C           0.8609    2.9746   -1.9927 C.ar    1  UNL1       -0.0172
     13 C          -0.2542    2.2557   -1.5025 C.ar    1  UNL1        0.1346
     14 C          -0.0205    1.0761   -0.8679 C.ar    1  UNL1        0.0287
     15 C           1.2831    0.5771   -0.6991 C.ar    1  UNL1       -0.0312
     16 C          -1.1343    0.2491   -0.3137 C.3     1  UNL1        0.1265
     17 C          -0.9060    0.0007    1.1601 C.3     1  UNL1        0.0155
     18 C          -1.2651   -1.3404    1.6709 C.3     1  UNL1        0.0953
     19 O          -1.3606   -2.3306    0.6878 O.2     1  UNL1       -0.4658
     20 C          -1.2254   -2.1073   -0.6603 C.2     1  UNL1        0.2763
     21 N          -1.2119   -3.2907   -1.4806 N.pl3   1  UNL1       -0.3134
     22 N          -1.1232   -0.9511   -1.1174 N.2     1  UNL1       -0.2205
     23 C          -2.4386    0.8933   -0.5690 C.ar    1  UNL1        0.0334
     24 C          -3.6182    0.2688   -0.1276 C.ar    1  UNL1       -0.0264
     25 C          -4.8731    0.7550   -0.2954 C.ar    1  UNL1        0.0726
     26 C          -6.0898    0.1015    0.1651 C.2     1  UNL1       -0.0003
     27 C          -6.0837   -1.0494    0.8022 C.2     1  UNL1       -0.0745
     28 C          -7.3937   -1.6362    1.2333 C.3     1  UNL1       -0.0105
     29 C          -8.5227   -1.2630    0.3340 C.3     1  UNL1        0.0515
     30 O          -8.2507   -0.2658   -0.5662 O.3     1  UNL1       -0.3748
     31 C          -7.4147    0.7306   -0.0763 C.3     1  UNL1        0.0744
     32 N          -4.9624    1.9476   -0.9488 N.ar    1  UNL1       -0.2163
     33 C          -3.8868    2.5937   -1.3939 C.ar    1  UNL1        0.2566
     34 F          -3.9727    3.7924   -2.0509 F       1  UNL1       -0.1799
     35 C          -2.5959    2.0819   -1.2149 C.ar    1  UNL1        0.1883
     36 O          -1.5085    2.8114   -1.7078 O.3     1  UNL1       -0.4508
     37 N           6.3089   -0.1866   -0.6176 N.ar    1  UNL1       -0.2467
     38 C           7.5679   -0.6851   -0.4829 C.ar    1  UNL1        0.0700
     39 H          11.3174   -1.8345    0.0451 H       1  UNL1        0.0660
     40 H          10.0741   -1.4248   -1.2481 H       1  UNL1        0.0660
     41 H           9.8111   -2.7681   -0.0588 H       1  UNL1        0.0660
     42 H           8.4179    0.6713    2.4673 H       1  UNL1        0.0655
     43 H           6.0967    1.5580    2.1646 H       1  UNL1        0.0641
     44 H           4.1165    0.1725   -1.7116 H       1  UNL1        0.1552
     45 H           2.9635    3.0803   -2.2247 H       1  UNL1        0.0637
     46 H           0.6428    3.9231   -2.5003 H       1  UNL1        0.0655
     47 H           1.3802   -0.3664   -0.1858 H       1  UNL1        0.0641
     48 H          -1.4569    0.7994    1.7240 H       1  UNL1        0.0328
     49 H           0.1715    0.1718    1.3554 H       1  UNL1        0.0328
     50 H          -0.5068   -1.7322    2.4173 H       1  UNL1        0.0698
     51 H          -2.2028   -1.2689    2.2994 H       1  UNL1        0.0698
     52 H          -1.8616   -3.3263   -2.2752 H       1  UNL1        0.1466
     53 H          -0.5784   -4.0479   -1.2653 H       1  UNL1        0.1466
     54 H          -3.5008   -0.6665    0.3807 H       1  UNL1        0.0644
     55 H          -5.1773   -1.5606    1.0120 H       1  UNL1        0.0577
     56 H          -7.2654   -2.7445    1.1781 H       1  UNL1        0.0330
     57 H          -7.5935   -1.3862    2.3074 H       1  UNL1        0.0330
     58 H          -9.3879   -0.9099    0.9650 H       1  UNL1        0.0563
     59 H          -8.9274   -2.1373   -0.2373 H       1  UNL1        0.0563
     60 H          -7.8801    1.1076    0.8595 H       1  UNL1        0.0610
     61 H          -7.3613    1.5188   -0.8618 H       1  UNL1        0.0610
     62 H           7.9990   -1.3336   -1.2439 H       1  UNL1        0.0867
@<TRIPOS>BOND
     1     1     2    1
     2     2     3    1
     3     3     4   ar
     4     4     5   ar
     5     5     6   ar
     6     6     7    1
     7     7     8    2
     8     7     9   am
     9     9    10    1
    10    10    11   ar
    11    11    12   ar
    12    12    13   ar
    13    13    14   ar
    14    14    15   ar
    15    14    16    1
    16    16    17    1
    17    17    18    1
    18    18    19    1
    19    19    20    1
    20    20    21    1
    21    20    22    2
    22    16    23    1
    23    23    24   ar
    24    24    25   ar
    25    25    26    1
    26    26    27    2
    27    27    28    1
    28    28    29    1
    29    29    30    1
    30    30    31    1
    31    25    32   ar
    32    32    33   ar
    33    33    34    1
    34    33    35   ar
    35    35    36    1
    36     6    37   ar
    37    37    38   ar
    38    38     3   ar
    39    15    10   ar
    40    22    16    1
    41    35    23   ar
    42    36    13    1
    43    31    26    1
    44     1    39    1
    45     1    40    1
    46     1    41    1
    47     4    42    1
    48     5    43    1
    49     9    44    1
    50    11    45    1
    51    12    46    1
    52    15    47    1
    53    17    48    1
    54    17    49    1
    55    18    50    1
    56    18    51    1
    57    21    52    1
    58    21    53    1
    59    24    54    1
    60    27    55    1
    61    28    56    1
    62    28    57    1
    63    29    58    1
    64    29    59    1
    65    31    60    1
    66    31    61    1
    67    38    62    1
