
     RDKit          3D

 62 67  0  0  0  0  0  0  0  0999 V2000
   10.2401   -1.7463   -0.2028 C   0  0  0  0  0  0  0  0  0  0  0  0
    9.6480   -0.9122    0.7468 O   0  0  0  0  0  0  0  0  0  0  0  0
    8.3561   -0.3988    0.6120 C   0  0  0  0  0  0  0  0  0  0  0  0
    7.8201    0.4216    1.5819 C   0  0  0  0  0  0  0  0  0  0  0  0
    6.5377    0.9142    1.4192 C   0  0  0  0  0  0  0  0  0  0  0  0
    5.7670    0.6149    0.3160 C   0  0  0  0  0  0  0  0  0  0  0  0
    4.4159    1.1347    0.1460 C   0  0  0  0  0  0  0  0  0  0  0  0
    3.8809    1.8807    0.9911 O   0  0  0  0  0  0  0  0  0  0  0  0
    3.6715    0.7898   -1.0141 N   0  0  0  0  0  0  0  0  0  0  0  0
    2.3305    1.3028   -1.1876 C   0  0  0  0  0  0  0  0  0  0  0  0
    2.1339    2.5005   -1.8350 C   0  0  0  0  0  0  0  0  0  0  0  0
    0.8609    2.9746   -1.9927 C   0  0  0  0  0  0  0  0  0  0  0  0
   -0.2542    2.2557   -1.5025 C   0  0  0  0  0  0  0  0  0  0  0  0
   -0.0205    1.0761   -0.8679 C   0  0  0  0  0  0  0  0  0  0  0  0
    1.2831    0.5771   -0.6991 C   0  0  0  0  0  0  0  0  0  0  0  0
   -1.1343    0.2491   -0.3137 C   0  0  0  0  0  0  0  0  0  0  0  0
   -0.9060    0.0007    1.1601 C   0  0  0  0  0  0  0  0  0  0  0  0
   -1.2651   -1.3404    1.6709 C   0  0  0  0  0  0  0  0  0  0  0  0
   -1.3606   -2.3306    0.6878 O   0  0  0  0  0  0  0  0  0  0  0  0
   -1.2254   -2.1073   -0.6603 C   0  0  0  0  0  0  0  0  0  0  0  0
   -1.2119   -3.2907   -1.4806 N   0  0  0  0  0  0  0  0  0  0  0  0
   -1.1232   -0.9511   -1.1174 N   0  0  0  0  0  0  0  0  0  0  0  0
   -2.4386    0.8933   -0.5690 C   0  0  0  0  0  0  0  0  0  0  0  0
   -3.6182    0.2688   -0.1276 C   0  0  0  0  0  0  0  0  0  0  0  0
   -4.8731    0.7550   -0.2954 C   0  0  0  0  0  0  0  0  0  0  0  0
   -6.0898    0.1015    0.1651 C   0  0  0  0  0  0  0  0  0  0  0  0
   -6.0837   -1.0494    0.8022 C   0  0  0  0  0  0  0  0  0  0  0  0
   -7.3937   -1.6362    1.2333 C   0  0  0  0  0  0  0  0  0  0  0  0
   -8.5227   -1.2630    0.3340 C   0  0  0  0  0  0  0  0  0  0  0  0
   -8.2507   -0.2658   -0.5662 O   0  0  0  0  0  0  0  0  0  0  0  0
   -7.4147    0.7306   -0.0763 C   0  0  0  0  0  0  0  0  0  0  0  0
   -4.9624    1.9476   -0.9488 N   0  0  0  0  0  0  0  0  0  0  0  0
   -3.8868    2.5937   -1.3939 C   0  0  0  0  0  0  0  0  0  0  0  0
   -3.9727    3.7924   -2.0509 F   0  0  0  0  0  0  0  0  0  0  0  0
   -2.5959    2.0819   -1.2149 C   0  0  0  0  0  0  0  0  0  0  0  0
   -1.5085    2.8114   -1.7078 O   0  0  0  0  0  0  0  0  0  0  0  0
    6.3089   -0.1866   -0.6176 N   0  0  0  0  0  0  0  0  0  0  0  0
    7.5679   -0.6851   -0.4829 C   0  0  0  0  0  0  0  0  0  0  0  0
   11.3174   -1.8345    0.0451 H   0  0  0  0  0  0  0  0  0  0  0  0
   10.0741   -1.4248   -1.2481 H   0  0  0  0  0  0  0  0  0  0  0  0
    9.8111   -2.7681   -0.0588 H   0  0  0  0  0  0  0  0  0  0  0  0
    8.4179    0.6713    2.4673 H   0  0  0  0  0  0  0  0  0  0  0  0
    6.0967    1.5580    2.1646 H   0  0  0  0  0  0  0  0  0  0  0  0
    4.1165    0.1725   -1.7116 H   0  0  0  0  0  0  0  0  0  0  0  0
    2.9635    3.0803   -2.2247 H   0  0  0  0  0  0  0  0  0  0  0  0
    0.6428    3.9231   -2.5003 H   0  0  0  0  0  0  0  0  0  0  0  0
    1.3802   -0.3664   -0.1858 H   0  0  0  0  0  0  0  0  0  0  0  0
   -1.4569    0.7994    1.7240 H   0  0  0  0  0  0  0  0  0  0  0  0
    0.1715    0.1718    1.3554 H   0  0  0  0  0  0  0  0  0  0  0  0
   -0.5068   -1.7322    2.4173 H   0  0  0  0  0  0  0  0  0  0  0  0
   -2.2028   -1.2689    2.2994 H   0  0  0  0  0  0  0  0  0  0  0  0
   -1.8616   -3.3263   -2.2752 H   0  0  0  0  0  0  0  0  0  0  0  0
   -0.5784   -4.0479   -1.2653 H   0  0  0  0  0  0  0  0  0  0  0  0
   -3.5008   -0.6665    0.3807 H   0  0  0  0  0  0  0  0  0  0  0  0
   -5.1773   -1.5606    1.0120 H   0  0  0  0  0  0  0  0  0  0  0  0
   -7.2654   -2.7445    1.1781 H   0  0  0  0  0  0  0  0  0  0  0  0
   -7.5935   -1.3862    2.3074 H   0  0  0  0  0  0  0  0  0  0  0  0
   -9.3879   -0.9099    0.9650 H   0  0  0  0  0  0  0  0  0  0  0  0
   -8.9274   -2.1373   -0.2373 H   0  0  0  0  0  0  0  0  0  0  0  0
   -7.8801    1.1076    0.8595 H   0  0  0  0  0  0  0  0  0  0  0  0
   -7.3613    1.5188   -0.8618 H   0  0  0  0  0  0  0  0  0  0  0  0
    7.9990   -1.3336   -1.2439 H   0  0  0  0  0  0  0  0  0  0  0  0
  1  2  1  0
  2  3  1  0
  3  4  2  0
  4  5  1  0
  5  6  2  0
  6  7  1  0
  7  8  2  0
  7  9  1  0
  9 10  1  0
 10 11  2  0
 11 12  1  0
 12 13  2  0
 13 14  1  0
 14 15  2  0
 14 16  1  0
 16 17  1  0
 17 18  1  0
 18 19  1  0
 19 20  1  0
 20 21  1  0
 20 22  2  0
 16 23  1  0
 23 24  2  0
 24 25  1  0
 25 26  1  0
 26 27  2  0
 27 28  1  0
 28 29  1  0
 29 30  1  0
 30 31  1  0
 25 32  2  0
 32 33  1  0
 33 34  1  0
 33 35  2  0
 35 36  1  0
  6 37  1  0
 37 38  2  0
 38  3  1  0
 15 10  1  0
 22 16  1  0
 35 23  1  0
 36 13  1  0
 31 26  1  0
  1 39  1  0
  1 40  1  0
  1 41  1  0
  4 42  1  0
  5 43  1  0
  9 44  1  0
 11 45  1  0
 12 46  1  0
 15 47  1  0
 17 48  1  0
 17 49  1  0
 18 50  1  0
 18 51  1  0
 21 52  1  0
 21 53  1  0
 24 54  1  0
 27 55  1  0
 28 56  1  0
 28 57  1  0
 29 58  1  0
 29 59  1  0
 31 60  1  0
 31 61  1  0
 38 62  1  0
M  END
$$$$
