
     RDKit          3D

 38 41  0  0  0  0  0  0  0  0999 V2000
    5.8779    0.4830   -0.2465 C   0  0  0  0  0  0  0  0  0  0  0  0
    4.3857    0.5742   -0.2548 C   0  0  0  0  0  0  0  0  0  0  0  0
    3.8088    1.8330   -0.1087 C   0  0  0  0  0  0  0  0  0  0  0  0
    2.4163    1.9684   -0.1095 C   0  0  0  0  0  0  0  0  0  0  0  0
    1.6561    0.8340   -0.2569 C   0  0  0  0  0  0  0  0  0  0  0  0
    0.2300    0.8951   -0.2228 N   0  0  0  0  0  0  0  0  0  0  0  0
   -0.4985   -0.1644   -0.3149 C   0  0  0  0  0  0  0  0  0  0  0  0
   -1.9274   -0.3855   -0.3173 N   0  0  0  0  0  0  0  0  0  0  0  0
   -2.2217   -1.5192   -1.2189 C   0  0  0  0  0  0  0  0  0  0  0  0
   -0.8575   -2.1717   -1.4396 C   0  0  0  0  0  0  0  0  0  0  0  0
    0.0204   -1.5760   -0.3801 C   0  0  2  0  0  0  0  0  0  0  0  0
   -0.2059   -2.2088    0.8694 O   0  0  0  0  0  0  0  0  0  0  0  0
    1.4609   -1.6635   -0.6127 C   0  0  0  0  0  0  0  0  0  0  0  0
    1.9449   -2.7438   -0.9641 O   0  0  0  0  0  0  0  0  0  0  0  0
    2.2361   -0.4308   -0.4052 C   0  0  0  0  0  0  0  0  0  0  0  0
    3.6280   -0.5730   -0.4045 C   0  0  0  0  0  0  0  0  0  0  0  0
   -2.8990    0.3630    0.4120 C   0  0  0  0  0  0  0  0  0  0  0  0
   -2.5842    1.4324    1.2183 C   0  0  0  0  0  0  0  0  0  0  0  0
   -3.5227    2.1598    1.9263 C   0  0  0  0  0  0  0  0  0  0  0  0
   -4.8426    1.7898    1.8150 C   0  0  0  0  0  0  0  0  0  0  0  0
   -5.2037    0.7218    1.0162 C   0  0  0  0  0  0  0  0  0  0  0  0
   -4.2157    0.0275    0.3277 C   0  0  0  0  0  0  0  0  0  0  0  0
    6.2534    0.3525    0.7973 H   0  0  0  0  0  0  0  0  0  0  0  0
    6.3590    1.4002   -0.6401 H   0  0  0  0  0  0  0  0  0  0  0  0
    6.1629   -0.4428   -0.7868 H   0  0  0  0  0  0  0  0  0  0  0  0
    4.4523    2.6963    0.0043 H   0  0  0  0  0  0  0  0  0  0  0  0
    1.9549    2.9346    0.0024 H   0  0  0  0  0  0  0  0  0  0  0  0
   -2.9654   -2.2010   -0.7971 H   0  0  0  0  0  0  0  0  0  0  0  0
   -2.5089   -1.0553   -2.1834 H   0  0  0  0  0  0  0  0  0  0  0  0
   -0.4641   -1.9874   -2.4517 H   0  0  0  0  0  0  0  0  0  0  0  0
   -0.9687   -3.2686   -1.3213 H   0  0  0  0  0  0  0  0  0  0  0  0
    0.1028   -3.1328    0.7814 H   0  0  0  0  0  0  0  0  0  0  0  0
    4.1004   -1.5372   -0.5159 H   0  0  0  0  0  0  0  0  0  0  0  0
   -1.5305    1.7134    1.2957 H   0  0  0  0  0  0  0  0  0  0  0  0
   -3.2210    2.9968    2.5497 H   0  0  0  0  0  0  0  0  0  0  0  0
   -5.6345    2.3046    2.3337 H   0  0  0  0  0  0  0  0  0  0  0  0
   -6.2404    0.3920    0.8977 H   0  0  0  0  0  0  0  0  0  0  0  0
   -4.5382   -0.8110   -0.2941 H   0  0  0  0  0  0  0  0  0  0  0  0
  1  2  1  0
  2  3  2  0
  3  4  1  0
  4  5  2  0
  5  6  1  0
  6  7  2  0
  7  8  1  0
  8  9  1  0
  9 10  1  0
 10 11  1  0
 11 12  1  1
 11 13  1  0
 13 14  2  0
 13 15  1  0
 15 16  2  0
  8 17  1  0
 17 18  2  0
 18 19  1  0
 19 20  2  0
 20 21  1  0
 21 22  2  0
 16  2  1  0
 22 17  1  0
 15  5  1  0
 11  7  1  0
  1 23  1  0
  1 24  1  0
  1 25  1  0
  3 26  1  0
  4 27  1  0
  9 28  1  0
  9 29  1  0
 10 30  1  0
 10 31  1  0
 12 32  1  0
 16 33  1  0
 18 34  1  0
 19 35  1  0
 20 36  1  0
 21 37  1  0
 22 38  1  0
M  END
$$$$
