@<TRIPOS>MOLECULE
*****
 32 34 0 0 0
SMALL
GASTEIGER

@<TRIPOS>ATOM
      1 O           1.9066    3.0154   -0.8316 O.2     1  UNL1       -0.2830
      2 C           1.4765    1.8633   -0.5815 C.ar    1  UNL1        0.2379
      3 C           0.0997    1.6393   -0.5238 C.ar    1  UNL1        0.2082
      4 O          -0.7072    2.7427   -0.7549 O.3     1  UNL1       -0.5007
      5 C          -0.3728    0.4086   -0.2565 C.ar    1  UNL1        0.1807
      6 C          -1.8077    0.0919   -0.1786 C.ar    1  UNL1        0.0247
      7 C          -2.8213    0.9524   -0.3562 C.ar    1  UNL1       -0.0473
      8 C          -4.1622    0.5554   -0.2617 C.ar    1  UNL1       -0.0159
      9 C          -4.4710   -0.7457    0.0196 C.ar    1  UNL1        0.1583
     10 O          -5.8233   -1.1454    0.1148 O.3     1  UNL1       -0.5033
     11 C          -3.4544   -1.6424    0.2050 C.ar    1  UNL1        0.1589
     12 O          -3.7598   -2.9570    0.4892 O.3     1  UNL1       -0.5033
     13 C          -2.1591   -1.2374    0.1091 C.ar    1  UNL1       -0.0057
     14 O           0.4967   -0.5643   -0.0539 O.2     1  UNL1       -0.4507
     15 C           1.7872   -0.4135   -0.0952 C.ar    1  UNL1        0.1465
     16 C           2.6572   -1.4851    0.1286 C.ar    1  UNL1        0.0231
     17 C           4.0225   -1.2963    0.0786 C.ar    1  UNL1        0.1239
     18 O           4.8974   -2.3555    0.2997 O.3     1  UNL1       -0.5065
     19 C           4.5734   -0.0510   -0.1924 C.ar    1  UNL1        0.0223
     20 C           3.7118    1.0039   -0.4127 C.ar    1  UNL1        0.1348
     21 O           4.1832    2.2764   -0.6889 O.3     1  UNL1       -0.5058
     22 C           2.3390    0.8193   -0.3635 C.ar    1  UNL1        0.1092
     23 H          -0.6675    3.4813   -0.0447 H       1  UNL1        0.2924
     24 H          -2.6245    1.9934   -0.5810 H       1  UNL1        0.0626
     25 H          -4.9391    1.3121   -0.4187 H       1  UNL1        0.0655
     26 H          -6.3950   -0.5671    0.7048 H       1  UNL1        0.2923
     27 H          -4.0701   -3.5974   -0.2253 H       1  UNL1        0.2923
     28 H          -1.3448   -1.9681    0.2602 H       1  UNL1        0.0662
     29 H           2.2423   -2.4746    0.3437 H       1  UNL1        0.0691
     30 H           5.4517   -2.6982   -0.4969 H       1  UNL1        0.2921
     31 H           5.6491    0.0717   -0.2263 H       1  UNL1        0.0691
     32 H           4.0853    2.9717    0.0646 H       1  UNL1        0.2922
@<TRIPOS>BOND
     1     1     2    2
     2     2     3   ar
     3     3     4    1
     4     3     5   ar
     5     5     6    1
     6     6     7   ar
     7     7     8   ar
     8     8     9   ar
     9     9    10    1
    10     9    11   ar
    11    11    12    1
    12    11    13   ar
    13     5    14   ar
    14    14    15   ar
    15    15    16   ar
    16    16    17   ar
    17    17    18    1
    18    17    19   ar
    19    19    20   ar
    20    20    21    1
    21    20    22   ar
    22    22     2   ar
    23    13     6   ar
    24    22    15   ar
    25     4    23    1
    26     7    24    1
    27     8    25    1
    28    10    26    1
    29    12    27    1
    30    13    28    1
    31    16    29    1
    32    18    30    1
    33    19    31    1
    34    21    32    1
