@<TRIPOS>MOLECULE
*****
 60 64 0 0 0
SMALL
GASTEIGER

@<TRIPOS>ATOM
      1 C          -6.4388    4.6435    0.6217 C.3     1  UNL1        0.0302
      2 N          -5.7412    3.3845    0.5165 N.ar    1  UNL1       -0.2738
      3 C          -4.4189    3.2181    0.4241 C.ar    1  UNL1        0.0343
      4 C          -4.1047    1.8512    0.3381 C.ar    1  UNL1        0.0364
      5 C          -2.7514    1.3582    0.2290 C.ar    1  UNL1        0.0637
      6 C          -1.6408    2.2347    0.2026 C.ar    1  UNL1       -0.0264
      7 C          -0.4893    1.5149    0.0951 C.ar    1  UNL1        0.0192
      8 C           0.8464    1.9090    0.0309 C.ar    1  UNL1        0.0389
      9 N           1.7990    1.0046   -0.0731 N.ar    1  UNL1       -0.2395
     10 C           1.4793   -0.2940   -0.1170 C.ar    1  UNL1        0.1249
     11 N           2.5231   -1.2871   -0.2308 N.pl3   1  UNL1       -0.2982
     12 C           3.8874   -0.8654   -0.2921 C.ar    1  UNL1        0.0510
     13 C           4.6839   -1.1617   -1.3792 C.ar    1  UNL1       -0.0385
     14 C           6.0173   -0.7447   -1.4290 C.ar    1  UNL1       -0.0521
     15 C           6.5748   -0.0259   -0.3943 C.ar    1  UNL1       -0.0135
     16 C           7.9631    0.4175   -0.4286 C.ar    1  UNL1        0.0184
     17 C           8.7372    0.5577    0.7124 C.ar    1  UNL1        0.0385
     18 N          10.0069    0.9662    0.6504 N.ar    1  UNL1       -0.2431
     19 C          10.5668    1.2529   -0.5325 C.ar    1  UNL1        0.1159
     20 N           9.8312    1.1224   -1.6464 N.ar    1  UNL1       -0.2431
     21 C           8.5502    0.7154   -1.6394 C.ar    1  UNL1        0.0385
     22 C           5.7890    0.2767    0.6982 C.ar    1  UNL1       -0.0338
     23 C           4.4710   -0.1420    0.7347 C.ar    1  UNL1        0.0627
     24 CL          3.5075    0.2585    2.1331 Cl      1  UNL1       -0.0816
     25 C           0.1611   -0.7168   -0.0553 C.ar    1  UNL1        0.0031
     26 C          -0.8669    0.2010    0.0541 C.ar    1  UNL1        0.0649
     27 N          -2.2420    0.1226    0.1362 N.ar    1  UNL1       -0.2454
     28 C          -2.8844   -1.1254    0.1146 C.2     1  UNL1        0.4209
     29 O          -2.1445   -2.1805    0.0178 O.2     1  UNL1       -0.2227
     30 O          -4.1946   -1.4588    0.1783 O.3     1  UNL1       -0.4424
     31 C          -4.7427   -2.7372    0.1493 C.3     1  UNL1        0.1070
     32 C          -4.4071   -3.4944   -1.1232 C.3     1  UNL1       -0.0253
     33 C          -4.3383   -3.6019    1.3096 C.3     1  UNL1       -0.0253
     34 C          -6.2597   -2.5948    0.1707 C.3     1  UNL1       -0.0253
     35 C          -5.3084    1.2456    0.3856 C.ar    1  UNL1        0.0585
     36 N          -6.2999    2.2024    0.4950 N.ar    1  UNL1       -0.1792
     37 H          -7.1592    4.6592    1.4876 H       1  UNL1        0.0473
     38 H          -7.0400    4.8771   -0.2785 H       1  UNL1        0.0473
     39 H          -5.7292    5.4798    0.8070 H       1  UNL1        0.0473
     40 H          -3.7272    4.0214    0.4187 H       1  UNL1        0.0833
     41 H          -1.6654    3.3113    0.2570 H       1  UNL1        0.0645
     42 H           1.0729    2.9571    0.0683 H       1  UNL1        0.0837
     43 H           2.2447   -2.2731   -0.2642 H       1  UNL1        0.1536
     44 H           4.2890   -1.7262   -2.2194 H       1  UNL1        0.0637
     45 H           6.6524   -0.9689   -2.2724 H       1  UNL1        0.0624
     46 H           8.2898    0.3280    1.6644 H       1  UNL1        0.0837
     47 H          11.5948    1.5788   -0.5299 H       1  UNL1        0.1047
     48 H           7.9615    0.6116   -2.5385 H       1  UNL1        0.0837
     49 H           6.2421    0.8412    1.5009 H       1  UNL1        0.0639
     50 H          -0.0553   -1.7776   -0.0940 H       1  UNL1        0.0673
     51 H          -5.0194   -4.4288   -1.1053 H       1  UNL1        0.0268
     52 H          -3.3495   -3.8268   -1.1491 H       1  UNL1        0.0268
     53 H          -4.7099   -2.9345   -2.0266 H       1  UNL1        0.0268
     54 H          -3.9485   -2.9236    2.1139 H       1  UNL1        0.0268
     55 H          -5.1869   -4.2096    1.6219 H       1  UNL1        0.0268
     56 H          -3.5265   -4.2947    0.9862 H       1  UNL1        0.0268
     57 H          -6.5134   -2.1968    1.1839 H       1  UNL1        0.0268
     58 H          -6.5000   -1.8015   -0.5675 H       1  UNL1        0.0268
     59 H          -6.7509   -3.5463   -0.0547 H       1  UNL1        0.0268
     60 H          -5.5873    0.2160    0.3542 H       1  UNL1        0.0854
@<TRIPOS>BOND
     1     1     2    1
     2     2     3   ar
     3     3     4   ar
     4     4     5    1
     5     5     6   ar
     6     6     7   ar
     7     7     8   ar
     8     8     9   ar
     9     9    10   ar
    10    10    11    1
    11    11    12    1
    12    12    13   ar
    13    13    14   ar
    14    14    15   ar
    15    15    16    1
    16    16    17   ar
    17    17    18   ar
    18    18    19   ar
    19    19    20   ar
    20    20    21   ar
    21    15    22   ar
    22    22    23   ar
    23    23    24    1
    24    10    25   ar
    25    25    26   ar
    26    26    27   ar
    27    27    28   am
    28    28    29    2
    29    28    30    1
    30    30    31    1
    31    31    32    1
    32    31    33    1
    33    31    34    1
    34     4    35   ar
    35    35    36   ar
    36    36     2   ar
    37    27     5   ar
    38    26     7   ar
    39    23    12   ar
    40    21    16   ar
    41     1    37    1
    42     1    38    1
    43     1    39    1
    44     3    40    1
    45     6    41    1
    46     8    42    1
    47    11    43    1
    48    13    44    1
    49    14    45    1
    50    17    46    1
    51    19    47    1
    52    21    48    1
    53    22    49    1
    54    25    50    1
    55    32    51    1
    56    32    52    1
    57    32    53    1
    58    33    54    1
    59    33    55    1
    60    33    56    1
    61    34    57    1
    62    34    58    1
    63    34    59    1
    64    35    60    1
