@<TRIPOS>MOLECULE
*****
 30 32 0 0 0
SMALL
GASTEIGER

@<TRIPOS>ATOM
      1 O           0.0828    0.6217   -1.7416 O.2     1  UNL1       -0.2863
      2 C           0.4493    0.1560   -0.6263 C.ar    1  UNL1        0.2037
      3 C          -0.4620   -0.2992    0.3214 C.ar    1  UNL1        0.0644
      4 C          -1.8799   -0.2422    0.0305 C.ar    1  UNL1       -0.0110
      5 C          -2.7308    0.2251    0.9992 C.ar    1  UNL1       -0.0504
      6 C          -4.0942    0.3028    0.7798 C.ar    1  UNL1       -0.0196
      7 C          -4.6063   -0.0994   -0.4410 C.ar    1  UNL1        0.1169
      8 O          -5.9827   -0.0242   -0.6710 O.3     1  UNL1       -0.5068
      9 C          -3.7735   -0.5735   -1.4331 C.ar    1  UNL1       -0.0196
     10 C          -2.4174   -0.6333   -1.1691 C.ar    1  UNL1       -0.0504
     11 C           0.0136   -0.8000    1.5298 C.ar    1  UNL1        0.1038
     12 O           1.3035   -0.8266    1.7362 O.2     1  UNL1       -0.4618
     13 C           2.1924   -0.4051    0.8639 C.ar    1  UNL1        0.1454
     14 C           3.5420   -0.4596    1.1414 C.ar    1  UNL1        0.0231
     15 C           4.4921   -0.0235    0.2422 C.ar    1  UNL1        0.1239
     16 O           5.8497   -0.0807    0.5269 O.3     1  UNL1       -0.5065
     17 C           4.1088    0.4962   -0.9996 C.ar    1  UNL1        0.0223
     18 C           2.7531    0.5453   -1.2653 C.ar    1  UNL1        0.1347
     19 O           2.3645    1.0581   -2.4916 O.3     1  UNL1       -0.5058
     20 C           1.8029    0.1078   -0.3629 C.ar    1  UNL1        0.1060
     21 H          -2.3670    0.5543    1.9813 H       1  UNL1        0.0625
     22 H          -4.7534    0.6763    1.5607 H       1  UNL1        0.0654
     23 H          -6.3223    0.0873   -1.6174 H       1  UNL1        0.2921
     24 H          -4.1629   -0.8899   -2.3895 H       1  UNL1        0.0654
     25 H          -1.7194   -1.0048   -1.9322 H       1  UNL1        0.0625
     26 H          -0.7249   -1.1442    2.2407 H       1  UNL1        0.1037
     27 H           3.8772   -0.8548    2.0905 H       1  UNL1        0.0691
     28 H           6.4022    0.7420    0.7254 H       1  UNL1        0.2921
     29 H           4.8664    0.8344   -1.6945 H       1  UNL1        0.0691
     30 H           1.8966    1.9535   -2.6031 H       1  UNL1        0.2922
@<TRIPOS>BOND
     1     1     2    2
     2     2     3   ar
     3     3     4    1
     4     4     5   ar
     5     5     6   ar
     6     6     7   ar
     7     7     8    1
     8     7     9   ar
     9     9    10   ar
    10     3    11   ar
    11    11    12   ar
    12    12    13   ar
    13    13    14   ar
    14    14    15   ar
    15    15    16    1
    16    15    17   ar
    17    17    18   ar
    18    18    19    1
    19    18    20   ar
    20    20     2   ar
    21    10     4   ar
    22    20    13   ar
    23     5    21    1
    24     6    22    1
    25     8    23    1
    26     9    24    1
    27    10    25    1
    28    11    26    1
    29    14    27    1
    30    16    28    1
    31    17    29    1
    32    19    30    1
