@<TRIPOS>MOLECULE
*****
 57 61 0 0 0
SMALL
GASTEIGER

@<TRIPOS>ATOM
      1 C          -3.5102   -6.1649   -0.2136 C.3     1  UNL1       -0.0206
      2 C          -3.1473   -4.7191   -0.0832 C.ar    1  UNL1        0.0611
      3 C          -1.8633   -4.2299   -0.0572 C.ar    1  UNL1       -0.0084
      4 C          -1.9065   -2.8364    0.0746 C.ar    1  UNL1        0.1295
      5 C          -0.7240   -2.0328    0.1318 C.2     1  UNL1        0.2667
      6 O           0.4305   -2.5997    0.0604 O.2     1  UNL1       -0.2682
      7 N          -0.6596   -0.6188    0.2638 N.am    1  UNL1       -0.2802
      8 C           0.6236    0.0337    0.3052 C.ar    1  UNL1        0.0338
      9 C           1.2482    0.4705   -0.8432 C.ar    1  UNL1       -0.0399
     10 C           2.4983    1.1052   -0.7936 C.ar    1  UNL1       -0.0522
     11 C           3.1194    1.2988    0.4134 C.ar    1  UNL1       -0.0159
     12 C           4.4437    1.9367    0.4646 C.ar    1  UNL1        0.0084
     13 C           4.4794    3.2301    1.0074 C.ar    1  UNL1       -0.0522
     14 C           5.6705    3.8924    1.0550 C.ar    1  UNL1       -0.0611
     15 C           6.8418    3.3378    0.5892 C.ar    1  UNL1       -0.0599
     16 C           6.7751    2.0784    0.0677 C.ar    1  UNL1       -0.0348
     17 C           5.5875    1.3563   -0.0054 C.ar    1  UNL1        0.1127
     18 S           5.5826   -0.2570   -0.6445 S.O2    1  UNL1        0.0565
     19 N           7.2252   -0.6889   -1.0833 N.3     1  UNL1       -0.2035
     20 O           5.1663   -1.2620    0.4028 O.2     1  UNL1       -0.1532
     21 O           4.7980   -0.3995   -1.8994 O.2     1  UNL1       -0.1532
     22 C           2.5000    0.8632    1.5822 C.ar    1  UNL1       -0.0522
     23 C           1.2792    0.2472    1.5015 C.ar    1  UNL1       -0.0399
     24 N          -3.1910   -2.5383    0.1227 N.ar    1  UNL1       -0.2274
     25 C          -3.7755   -1.2541    0.2527 C.ar    1  UNL1        0.0668
     26 C          -4.0808   -0.6721    1.4610 C.ar    1  UNL1       -0.0357
     27 C          -4.6673    0.5792    1.5583 C.ar    1  UNL1       -0.0520
     28 C          -4.9603    1.2762    0.4077 C.ar    1  UNL1       -0.0164
     29 C          -5.5523    2.5381    0.5240 C.ar    1  UNL1       -0.0357
     30 C          -5.8285    3.2004   -0.6445 C.ar    1  UNL1        0.0416
     31 CL         -6.5723    4.7871   -0.5177 Cl      1  UNL1       -0.0835
     32 C          -5.5435    2.6638   -1.8826 C.ar    1  UNL1       -0.0428
     33 C          -4.9610    1.4205   -1.9713 C.ar    1  UNL1       -0.0526
     34 C          -4.6666    0.7199   -0.8134 C.ar    1  UNL1       -0.0158
     35 C          -4.0745   -0.5450   -0.8842 C.ar    1  UNL1       -0.0285
     36 N          -3.9453   -3.6587    0.0291 N.ar    1  UNL1       -0.1710
     37 H          -4.4768   -6.2773   -0.7339 H       1  UNL1        0.0293
     38 H          -3.6601   -6.6263    0.8029 H       1  UNL1        0.0293
     39 H          -2.6795   -6.7022   -0.6822 H       1  UNL1        0.0293
     40 H          -0.9693   -4.8657   -0.1310 H       1  UNL1        0.0659
     41 H          -1.5397   -0.1023    0.3261 H       1  UNL1        0.1552
     42 H           0.7976    0.3385   -1.8099 H       1  UNL1        0.0636
     43 H           2.9309    1.4482   -1.7329 H       1  UNL1        0.0624
     44 H           3.5483    3.6795    1.3814 H       1  UNL1        0.0624
     45 H           5.6795    4.8952    1.4795 H       1  UNL1        0.0618
     46 H           7.7798    3.8789    0.6345 H       1  UNL1        0.0618
     47 H           7.6724    1.6187   -0.3039 H       1  UNL1        0.0637
     48 H           7.4795   -0.3057   -2.0076 H       1  UNL1        0.1442
     49 H           7.8848   -0.4787   -0.3194 H       1  UNL1        0.1442
     50 H           3.0044    1.0234    2.5416 H       1  UNL1        0.0624
     51 H           0.7995   -0.0907    2.4116 H       1  UNL1        0.0636
     52 H          -3.8627   -1.1945    2.3785 H       1  UNL1        0.0639
     53 H          -4.9091    1.0407    2.5052 H       1  UNL1        0.0624
     54 H          -5.7675    2.9402    1.5119 H       1  UNL1        0.0638
     55 H          -5.7716    3.2082   -2.8090 H       1  UNL1        0.0632
     56 H          -4.7125    0.9450   -2.9238 H       1  UNL1        0.0624
     57 H          -3.8671   -0.9313   -1.8546 H       1  UNL1        0.0645
@<TRIPOS>BOND
     1     1     2    1
     2     2     3   ar
     3     3     4   ar
     4     4     5    1
     5     5     6    2
     6     5     7   am
     7     7     8    1
     8     8     9   ar
     9     9    10   ar
    10    10    11   ar
    11    11    12    1
    12    12    13   ar
    13    13    14   ar
    14    14    15   ar
    15    15    16   ar
    16    16    17   ar
    17    17    18    1
    18    18    19    1
    19    18    20    2
    20    18    21    2
    21    11    22   ar
    22    22    23   ar
    23     4    24   ar
    24    24    25    1
    25    25    26   ar
    26    26    27   ar
    27    27    28   ar
    28    28    29   ar
    29    29    30   ar
    30    30    31    1
    31    30    32   ar
    32    32    33   ar
    33    33    34   ar
    34    34    35   ar
    35    24    36   ar
    36    36     2   ar
    37    23     8   ar
    38    35    25   ar
    39    17    12   ar
    40    34    28   ar
    41     1    37    1
    42     1    38    1
    43     1    39    1
    44     3    40    1
    45     7    41    1
    46     9    42    1
    47    10    43    1
    48    13    44    1
    49    14    45    1
    50    15    46    1
    51    16    47    1
    52    19    48    1
    53    19    49    1
    54    22    50    1
    55    23    51    1
    56    26    52    1
    57    27    53    1
    58    29    54    1
    59    32    55    1
    60    33    56    1
    61    35    57    1
