
     RDKit          3D

 57 61  0  0  0  0  0  0  0  0999 V2000
   -3.5102   -6.1649   -0.2136 C   0  0  0  0  0  0  0  0  0  0  0  0
   -3.1473   -4.7191   -0.0832 C   0  0  0  0  0  0  0  0  0  0  0  0
   -1.8633   -4.2299   -0.0572 C   0  0  0  0  0  0  0  0  0  0  0  0
   -1.9065   -2.8364    0.0746 C   0  0  0  0  0  0  0  0  0  0  0  0
   -0.7240   -2.0328    0.1318 C   0  0  0  0  0  0  0  0  0  0  0  0
    0.4305   -2.5997    0.0604 O   0  0  0  0  0  0  0  0  0  0  0  0
   -0.6596   -0.6188    0.2638 N   0  0  0  0  0  0  0  0  0  0  0  0
    0.6236    0.0337    0.3052 C   0  0  0  0  0  0  0  0  0  0  0  0
    1.2482    0.4705   -0.8432 C   0  0  0  0  0  0  0  0  0  0  0  0
    2.4983    1.1052   -0.7936 C   0  0  0  0  0  0  0  0  0  0  0  0
    3.1194    1.2988    0.4134 C   0  0  0  0  0  0  0  0  0  0  0  0
    4.4437    1.9367    0.4646 C   0  0  0  0  0  0  0  0  0  0  0  0
    4.4794    3.2301    1.0074 C   0  0  0  0  0  0  0  0  0  0  0  0
    5.6705    3.8924    1.0550 C   0  0  0  0  0  0  0  0  0  0  0  0
    6.8418    3.3378    0.5892 C   0  0  0  0  0  0  0  0  0  0  0  0
    6.7751    2.0784    0.0677 C   0  0  0  0  0  0  0  0  0  0  0  0
    5.5875    1.3563   -0.0054 C   0  0  0  0  0  0  0  0  0  0  0  0
    5.5826   -0.2570   -0.6445 S   0  0  0  0  0  6  0  0  0  0  0  0
    7.2252   -0.6889   -1.0833 N   0  0  0  0  0  0  0  0  0  0  0  0
    5.1663   -1.2620    0.4028 O   0  0  0  0  0  0  0  0  0  0  0  0
    4.7980   -0.3995   -1.8994 O   0  0  0  0  0  0  0  0  0  0  0  0
    2.5000    0.8632    1.5822 C   0  0  0  0  0  0  0  0  0  0  0  0
    1.2792    0.2472    1.5015 C   0  0  0  0  0  0  0  0  0  0  0  0
   -3.1910   -2.5383    0.1227 N   0  0  0  0  0  0  0  0  0  0  0  0
   -3.7755   -1.2541    0.2527 C   0  0  0  0  0  0  0  0  0  0  0  0
   -4.0808   -0.6721    1.4610 C   0  0  0  0  0  0  0  0  0  0  0  0
   -4.6673    0.5792    1.5583 C   0  0  0  0  0  0  0  0  0  0  0  0
   -4.9603    1.2762    0.4077 C   0  0  0  0  0  0  0  0  0  0  0  0
   -5.5523    2.5381    0.5240 C   0  0  0  0  0  0  0  0  0  0  0  0
   -5.8285    3.2004   -0.6445 C   0  0  0  0  0  0  0  0  0  0  0  0
   -6.5723    4.7871   -0.5177 Cl  0  0  0  0  0  0  0  0  0  0  0  0
   -5.5435    2.6638   -1.8826 C   0  0  0  0  0  0  0  0  0  0  0  0
   -4.9610    1.4205   -1.9713 C   0  0  0  0  0  0  0  0  0  0  0  0
   -4.6666    0.7199   -0.8134 C   0  0  0  0  0  0  0  0  0  0  0  0
   -4.0745   -0.5450   -0.8842 C   0  0  0  0  0  0  0  0  0  0  0  0
   -3.9453   -3.6587    0.0291 N   0  0  0  0  0  0  0  0  0  0  0  0
   -4.4768   -6.2773   -0.7339 H   0  0  0  0  0  0  0  0  0  0  0  0
   -3.6601   -6.6263    0.8029 H   0  0  0  0  0  0  0  0  0  0  0  0
   -2.6795   -6.7022   -0.6822 H   0  0  0  0  0  0  0  0  0  0  0  0
   -0.9693   -4.8657   -0.1310 H   0  0  0  0  0  0  0  0  0  0  0  0
   -1.5397   -0.1023    0.3261 H   0  0  0  0  0  0  0  0  0  0  0  0
    0.7976    0.3385   -1.8099 H   0  0  0  0  0  0  0  0  0  0  0  0
    2.9309    1.4482   -1.7329 H   0  0  0  0  0  0  0  0  0  0  0  0
    3.5483    3.6795    1.3814 H   0  0  0  0  0  0  0  0  0  0  0  0
    5.6795    4.8952    1.4795 H   0  0  0  0  0  0  0  0  0  0  0  0
    7.7798    3.8789    0.6345 H   0  0  0  0  0  0  0  0  0  0  0  0
    7.6724    1.6187   -0.3039 H   0  0  0  0  0  0  0  0  0  0  0  0
    7.4795   -0.3057   -2.0076 H   0  0  0  0  0  0  0  0  0  0  0  0
    7.8848   -0.4787   -0.3194 H   0  0  0  0  0  0  0  0  0  0  0  0
    3.0044    1.0234    2.5416 H   0  0  0  0  0  0  0  0  0  0  0  0
    0.7995   -0.0907    2.4116 H   0  0  0  0  0  0  0  0  0  0  0  0
   -3.8627   -1.1945    2.3785 H   0  0  0  0  0  0  0  0  0  0  0  0
   -4.9091    1.0407    2.5052 H   0  0  0  0  0  0  0  0  0  0  0  0
   -5.7675    2.9402    1.5119 H   0  0  0  0  0  0  0  0  0  0  0  0
   -5.7716    3.2082   -2.8090 H   0  0  0  0  0  0  0  0  0  0  0  0
   -4.7125    0.9450   -2.9238 H   0  0  0  0  0  0  0  0  0  0  0  0
   -3.8671   -0.9313   -1.8546 H   0  0  0  0  0  0  0  0  0  0  0  0
  1  2  1  0
  2  3  1  0
  3  4  2  0
  4  5  1  0
  5  6  2  0
  5  7  1  0
  7  8  1  0
  8  9  2  0
  9 10  1  0
 10 11  2  0
 11 12  1  0
 12 13  2  0
 13 14  1  0
 14 15  2  0
 15 16  1  0
 16 17  2  0
 17 18  1  0
 18 19  1  0
 18 20  2  0
 18 21  2  0
 11 22  1  0
 22 23  2  0
  4 24  1  0
 24 25  1  0
 25 26  2  0
 26 27  1  0
 27 28  2  0
 28 29  1  0
 29 30  2  0
 30 31  1  0
 30 32  1  0
 32 33  2  0
 33 34  1  0
 34 35  2  0
 24 36  1  0
 36  2  2  0
 23  8  1  0
 35 25  1  0
 17 12  1  0
 34 28  1  0
  1 37  1  0
  1 38  1  0
  1 39  1  0
  3 40  1  0
  7 41  1  0
  9 42  1  0
 10 43  1  0
 13 44  1  0
 14 45  1  0
 15 46  1  0
 16 47  1  0
 19 48  1  0
 19 49  1  0
 22 50  1  0
 23 51  1  0
 26 52  1  0
 27 53  1  0
 29 54  1  0
 32 55  1  0
 33 56  1  0
 35 57  1  0
M  END
$$$$
