
     RDKit          3D

 67 71  0  0  0  0  0  0  0  0999 V2000
   -1.8842   -1.5162   -0.9855 C   0  0  2  0  0  0  0  0  0  0  0  0
   -0.4347   -1.8777   -1.3268 C   0  0  0  0  0  0  0  0  0  0  0  0
    0.3004   -1.0906   -0.2848 C   0  0  1  0  0  0  0  0  0  0  0  0
    1.7320   -0.8357   -0.5224 C   0  0  2  0  0  0  0  0  0  0  0  0
    2.6330   -2.0312   -0.5283 C   0  0  0  0  0  0  0  0  0  0  0  0
    4.0419   -1.6005   -0.7740 C   0  0  2  0  0  0  0  0  0  0  0  0
    4.8666   -2.6276   -0.3583 F   0  0  0  0  0  0  0  0  0  0  0  0
    4.4605   -0.3820   -0.0388 C   0  0  0  0  0  0  0  0  0  0  0  0
    5.6806   -0.2957    0.4740 C   0  0  0  0  0  0  0  0  0  0  0  0
    6.0985    0.8879    1.1930 C   0  0  0  0  0  0  0  0  0  0  0  0
    7.2612    0.8609    1.6300 O   0  0  0  0  0  0  0  0  0  0  0  0
    5.1611    1.9941    1.3514 C   0  0  0  0  0  0  0  0  0  0  0  0
    3.9499    1.8709    0.8254 C   0  0  0  0  0  0  0  0  0  0  0  0
    3.4271    0.7167    0.0809 C   0  0  1  0  0  0  0  0  0  0  0  0
    3.2464    1.2243   -1.3563 C   0  0  0  0  0  0  0  0  0  0  0  0
    2.2433    0.0311    0.6387 C   0  0  2  0  0  0  0  0  0  0  0  0
    2.7568   -0.8208    1.6424 F   0  0  0  0  0  0  0  0  0  0  0  0
    1.1713    0.7777    1.3090 C   0  0  1  0  0  0  0  0  0  0  0  0
    1.6089    1.7503    2.1546 O   0  0  0  0  0  0  0  0  0  0  0  0
    0.0418    1.2926    0.4509 C   0  0  0  0  0  0  0  0  0  0  0  0
   -0.4740    0.2129   -0.4137 C   0  0  1  0  0  0  0  0  0  0  0  0
   -0.5540    0.7217   -1.8185 C   0  0  0  0  0  0  0  0  0  0  0  0
   -1.8023   -0.3978    0.0247 C   0  0  2  0  0  0  0  0  0  0  0  0
   -1.6528   -1.1423    1.1943 O   0  0  0  0  0  0  0  0  0  0  0  0
   -2.3693   -2.3053    1.0375 C   0  0  0  0  0  0  0  0  0  0  0  0
   -1.6640   -3.5205    1.6551 C   0  0  0  0  0  0  0  0  0  0  0  0
   -3.7627   -2.2846    1.5745 C   0  0  0  0  0  0  0  0  0  0  0  0
   -2.4539   -2.5757   -0.3156 O   0  0  0  0  0  0  0  0  0  0  0  0
   -2.9115    0.4946    0.1040 C   0  0  0  0  0  0  0  0  0  0  0  0
   -3.6442    0.5970    1.0864 O   0  0  0  0  0  0  0  0  0  0  0  0
   -3.6042    1.5126   -0.7261 C   0  0  0  0  0  0  0  0  0  0  0  0
   -4.7155    2.0547    0.0073 O   0  0  0  0  0  0  0  0  0  0  0  0
   -5.5506    3.0104   -0.4931 C   0  0  0  0  0  0  0  0  0  0  0  0
   -6.6681    3.5077    0.3370 C   0  0  0  0  0  0  0  0  0  0  0  0
   -5.2270    3.3490   -1.6602 O   0  0  0  0  0  0  0  0  0  0  0  0
   -2.4981   -1.3096   -1.8651 H   0  0  0  0  0  0  0  0  0  0  0  0
   -0.2615   -2.9649   -1.2670 H   0  0  0  0  0  0  0  0  0  0  0  0
   -0.1365   -1.4950   -2.3215 H   0  0  0  0  0  0  0  0  0  0  0  0
    0.1773   -1.4754    0.7328 H   0  0  0  0  0  0  0  0  0  0  0  0
    1.8864   -0.3881   -1.5042 H   0  0  0  0  0  0  0  0  0  0  0  0
    2.5206   -2.6033    0.4154 H   0  0  0  0  0  0  0  0  0  0  0  0
    2.3113   -2.6961   -1.3517 H   0  0  0  0  0  0  0  0  0  0  0  0
    4.2421   -1.4402   -1.8524 H   0  0  0  0  0  0  0  0  0  0  0  0
    6.3463   -1.1592    0.3250 H   0  0  0  0  0  0  0  0  0  0  0  0
    5.4956    2.8685    1.8920 H   0  0  0  0  0  0  0  0  0  0  0  0
    3.3358    2.7452    0.9924 H   0  0  0  0  0  0  0  0  0  0  0  0
    3.9083    2.1226   -1.5499 H   0  0  0  0  0  0  0  0  0  0  0  0
    3.6061    0.4916   -2.1090 H   0  0  0  0  0  0  0  0  0  0  0  0
    2.2343    1.6080   -1.5486 H   0  0  0  0  0  0  0  0  0  0  0  0
    0.6267    0.0475    1.9883 H   0  0  0  0  0  0  0  0  0  0  0  0
    1.9742    1.4648    3.0172 H   0  0  0  0  0  0  0  0  0  0  0  0
    0.3266    2.2307   -0.0921 H   0  0  0  0  0  0  0  0  0  0  0  0
   -0.7649    1.6071    1.1510 H   0  0  0  0  0  0  0  0  0  0  0  0
    0.3187    0.4875   -2.4614 H   0  0  0  0  0  0  0  0  0  0  0  0
   -0.5871    1.8339   -1.8190 H   0  0  0  0  0  0  0  0  0  0  0  0
   -1.4186    0.3398   -2.3851 H   0  0  0  0  0  0  0  0  0  0  0  0
   -1.5114   -3.2929    2.7260 H   0  0  0  0  0  0  0  0  0  0  0  0
   -0.7263   -3.7653    1.1392 H   0  0  0  0  0  0  0  0  0  0  0  0
   -2.3769   -4.3685    1.4859 H   0  0  0  0  0  0  0  0  0  0  0  0
   -4.5128   -1.9952    0.7816 H   0  0  0  0  0  0  0  0  0  0  0  0
   -4.0710   -3.3380    1.8182 H   0  0  0  0  0  0  0  0  0  0  0  0
   -3.8958   -1.7351    2.5184 H   0  0  0  0  0  0  0  0  0  0  0  0
   -4.0513    1.1230   -1.6391 H   0  0  0  0  0  0  0  0  0  0  0  0
   -2.9468    2.4097   -0.8724 H   0  0  0  0  0  0  0  0  0  0  0  0
   -6.9113    4.5373   -0.0229 H   0  0  0  0  0  0  0  0  0  0  0  0
   -7.5836    2.9020    0.2591 H   0  0  0  0  0  0  0  0  0  0  0  0
   -6.3651    3.6449    1.4002 H   0  0  0  0  0  0  0  0  0  0  0  0
  1  2  1  0
  2  3  1  0
  3  4  1  0
  4  5  1  0
  5  6  1  0
  6  7  1  0
  6  8  1  0
  8  9  2  0
  9 10  1  0
 10 11  2  0
 10 12  1  0
 12 13  2  0
 13 14  1  0
 14 15  1  6
 14 16  1  0
 16 17  1  1
 16 18  1  0
 18 19  1  0
 18 20  1  0
 20 21  1  0
 21 22  1  6
 21 23  1  0
 23 24  1  0
 24 25  1  0
 25 26  1  0
 25 27  1  0
 25 28  1  0
 23 29  1  1
 29 30  2  0
 29 31  1  0
 31 32  1  0
 32 33  1  0
 33 34  1  0
 33 35  2  0
 23  1  1  0
 28  1  1  0
 21  3  1  0
 16  4  1  0
 14  8  1  0
  1 36  1  6
  2 37  1  0
  2 38  1  0
  3 39  1  1
  4 40  1  6
  5 41  1  0
  5 42  1  0
  6 43  1  6
  9 44  1  0
 12 45  1  0
 13 46  1  0
 15 47  1  0
 15 48  1  0
 15 49  1  0
 18 50  1  1
 19 51  1  0
 20 52  1  0
 20 53  1  0
 22 54  1  0
 22 55  1  0
 22 56  1  0
 26 57  1  0
 26 58  1  0
 26 59  1  0
 27 60  1  0
 27 61  1  0
 27 62  1  0
 31 63  1  0
 31 64  1  0
 34 65  1  0
 34 66  1  0
 34 67  1  0
M  END
$$$$
