@<TRIPOS>MOLECULE
*****
 67 71 0 0 0
SMALL
GASTEIGER

@<TRIPOS>ATOM
      1 C          -1.8842   -1.5162   -0.9855 C.3     1  UNL1        0.0987
      2 C          -0.4347   -1.8777   -1.3268 C.3     1  UNL1       -0.0195
      3 C           0.3004   -1.0906   -0.2848 C.3     1  UNL1       -0.0240
      4 C           1.7320   -0.8357   -0.5224 C.3     1  UNL1        0.0030
      5 C           2.6330   -2.0312   -0.5283 C.3     1  UNL1       -0.0117
      6 C           4.0419   -1.6005   -0.7740 C.3     1  UNL1        0.1237
      7 F           4.8666   -2.6276   -0.3583 F       1  UNL1       -0.2407
      8 C           4.4605   -0.3820   -0.0388 C.2     1  UNL1       -0.0198
      9 C           5.6806   -0.2957    0.4740 C.2     1  UNL1       -0.0121
     10 C           6.0985    0.8879    1.1930 C.2     1  UNL1        0.1788
     11 O           7.2612    0.8609    1.6300 O.2     1  UNL1       -0.2879
     12 C           5.1611    1.9941    1.3514 C.2     1  UNL1       -0.0179
     13 C           3.9499    1.8709    0.8254 C.2     1  UNL1       -0.0674
     14 C           3.4271    0.7167    0.0809 C.3     1  UNL1        0.0469
     15 C           3.2464    1.2243   -1.3563 C.3     1  UNL1       -0.0492
     16 C           2.2433    0.0311    0.6387 C.3     1  UNL1        0.1528
     17 F           2.7568   -0.8208    1.6424 F       1  UNL1       -0.2377
     18 C           1.1713    0.7777    1.3090 C.3     1  UNL1        0.0910
     19 O           1.6089    1.7503    2.1546 O.3     1  UNL1       -0.3886
     20 C           0.0418    1.2926    0.4509 C.3     1  UNL1       -0.0150
     21 C          -0.4740    0.2129   -0.4137 C.3     1  UNL1        0.0123
     22 C          -0.5540    0.7217   -1.8185 C.3     1  UNL1       -0.0561
     23 C          -1.8023   -0.3978    0.0247 C.3     1  UNL1        0.1651
     24 O          -1.6528   -1.1423    1.1943 O.3     1  UNL1       -0.3320
     25 C          -2.3693   -2.3053    1.0375 C.3     1  UNL1        0.1663
     26 C          -1.6640   -3.5205    1.6551 C.3     1  UNL1       -0.0108
     27 C          -3.7627   -2.2846    1.5745 C.3     1  UNL1       -0.0108
     28 O          -2.4539   -2.5757   -0.3156 O.3     1  UNL1       -0.3426
     29 C          -2.9115    0.4946    0.1040 C.2     1  UNL1        0.2051
     30 O          -3.6442    0.5970    1.0864 O.2     1  UNL1       -0.2906
     31 C          -3.6042    1.5126   -0.7261 C.3     1  UNL1        0.1531
     32 O          -4.7155    2.0547    0.0073 O.3     1  UNL1       -0.4570
     33 C          -5.5506    3.0104   -0.4931 C.2     1  UNL1        0.3043
     34 C          -6.6681    3.5077    0.3370 C.3     1  UNL1        0.0332
     35 O          -5.2270    3.3490   -1.6602 O.2     1  UNL1       -0.2512
     36 H          -2.4981   -1.3096   -1.8651 H       1  UNL1        0.0631
     37 H          -0.2615   -2.9649   -1.2670 H       1  UNL1        0.0294
     38 H          -0.1365   -1.4950   -2.3215 H       1  UNL1        0.0294
     39 H           0.1773   -1.4754    0.7328 H       1  UNL1        0.0312
     40 H           1.8864   -0.3881   -1.5042 H       1  UNL1        0.0336
     41 H           2.5206   -2.6033    0.4154 H       1  UNL1        0.0300
     42 H           2.3113   -2.6961   -1.3517 H       1  UNL1        0.0300
     43 H           4.2421   -1.4402   -1.8524 H       1  UNL1        0.0699
     44 H           6.3463   -1.1592    0.3250 H       1  UNL1        0.0656
     45 H           5.4956    2.8685    1.8920 H       1  UNL1        0.0653
     46 H           3.3358    2.7452    0.9924 H       1  UNL1        0.0583
     47 H           3.9083    2.1226   -1.5499 H       1  UNL1        0.0242
     48 H           3.6061    0.4916   -2.1090 H       1  UNL1        0.0242
     49 H           2.2343    1.6080   -1.5486 H       1  UNL1        0.0242
     50 H           0.6267    0.0475    1.9883 H       1  UNL1        0.0626
     51 H           1.9742    1.4648    3.0172 H       1  UNL1        0.2099
     52 H           0.3266    2.2307   -0.0921 H       1  UNL1        0.0297
     53 H          -0.7649    1.6071    1.1510 H       1  UNL1        0.0297
     54 H           0.3187    0.4875   -2.4614 H       1  UNL1        0.0236
     55 H          -0.5871    1.8339   -1.8190 H       1  UNL1        0.0236
     56 H          -1.4186    0.3398   -2.3851 H       1  UNL1        0.0236
     57 H          -1.5114   -3.2929    2.7260 H       1  UNL1        0.0281
     58 H          -0.7263   -3.7653    1.1392 H       1  UNL1        0.0281
     59 H          -2.3769   -4.3685    1.4859 H       1  UNL1        0.0281
     60 H          -4.5128   -1.9952    0.7816 H       1  UNL1        0.0281
     61 H          -4.0710   -3.3380    1.8182 H       1  UNL1        0.0281
     62 H          -3.8958   -1.7351    2.5184 H       1  UNL1        0.0281
     63 H          -4.0513    1.1230   -1.6391 H       1  UNL1        0.0779
     64 H          -2.9468    2.4097   -0.8724 H       1  UNL1        0.0779
     65 H          -6.9113    4.5373   -0.0229 H       1  UNL1        0.0342
     66 H          -7.5836    2.9020    0.2591 H       1  UNL1        0.0342
     67 H          -6.3651    3.6449    1.4002 H       1  UNL1        0.0342
@<TRIPOS>BOND
     1     1     2    1
     2     2     3    1
     3     3     4    1
     4     4     5    1
     5     5     6    1
     6     6     7    1
     7     6     8    1
     8     8     9    2
     9     9    10    1
    10    10    11    2
    11    10    12    1
    12    12    13    2
    13    13    14    1
    14    14    15    1
    15    14    16    1
    16    16    17    1
    17    16    18    1
    18    18    19    1
    19    18    20    1
    20    20    21    1
    21    21    22    1
    22    21    23    1
    23    23    24    1
    24    24    25    1
    25    25    26    1
    26    25    27    1
    27    25    28    1
    28    23    29    1
    29    29    30    2
    30    29    31    1
    31    31    32    1
    32    32    33    1
    33    33    34    1
    34    33    35    2
    35    23     1    1
    36    28     1    1
    37    21     3    1
    38    16     4    1
    39    14     8    1
    40     1    36    1
    41     2    37    1
    42     2    38    1
    43     3    39    1
    44     4    40    1
    45     5    41    1
    46     5    42    1
    47     6    43    1
    48     9    44    1
    49    12    45    1
    50    13    46    1
    51    15    47    1
    52    15    48    1
    53    15    49    1
    54    18    50    1
    55    19    51    1
    56    20    52    1
    57    20    53    1
    58    22    54    1
    59    22    55    1
    60    22    56    1
    61    26    57    1
    62    26    58    1
    63    26    59    1
    64    27    60    1
    65    27    61    1
    66    27    62    1
    67    31    63    1
    68    31    64    1
    69    34    65    1
    70    34    66    1
    71    34    67    1
