@<TRIPOS>MOLECULE
*****
 50 52 0 0 0
SMALL
GASTEIGER

@<TRIPOS>ATOM
      1 CL          9.3765   -0.8769   -0.2119 Cl      1  UNL1       -0.0835
      2 C           7.7954   -0.1328   -0.2958 C.ar    1  UNL1        0.0410
      3 C           6.9625   -0.1326    0.8013 C.ar    1  UNL1       -0.0431
      4 C           5.7277    0.4590    0.7010 C.ar    1  UNL1       -0.0550
      5 C           5.2534    1.0726   -0.4667 C.ar    1  UNL1       -0.0218
      6 C           3.8824    1.6090   -0.2804 C.3     1  UNL1        0.0727
      7 O           2.9624    0.6318   -0.6754 O.3     1  UNL1       -0.3739
      8 C           3.0896   -0.5673   -0.0336 C.3     1  UNL1        0.0606
      9 C           2.0390   -1.5292   -0.5101 C.3     1  UNL1        0.0194
     10 N           0.7366   -1.0076   -0.2174 N.3     1  UNL1       -0.3125
     11 C           0.4798   -0.9877    1.2166 C.3     1  UNL1        0.0102
     12 C          -1.0124   -0.6227    1.3783 C.3     1  UNL1        0.0300
     13 N          -1.7129   -1.6451    0.6739 N.3     1  UNL1       -0.1887
     14 S          -3.4023   -1.5013    0.7083 S.O2    1  UNL1        0.0590
     15 O          -3.8071   -1.6069    2.1678 O.2     1  UNL1       -0.1530
     16 O          -3.9572   -2.6930   -0.0582 O.2     1  UNL1       -0.1530
     17 C          -3.9932   -0.0657   -0.0291 C.ar    1  UNL1        0.1130
     18 C          -3.4117    0.9877   -0.6921 C.ar    1  UNL1       -0.0347
     19 C          -4.0770    2.0587   -1.2156 C.ar    1  UNL1       -0.0593
     20 C          -5.4281    2.1405   -1.1010 C.ar    1  UNL1       -0.0525
     21 C          -6.0880    1.1325   -0.4563 C.ar    1  UNL1        0.0021
     22 C          -7.4616    1.2666   -0.3785 C.ar    1  UNL1        0.0353
     23 N          -8.1745    0.3106    0.2320 N.ar    1  UNL1       -0.2626
     24 C          -7.5846   -0.7646    0.7639 C.ar    1  UNL1        0.0282
     25 C          -6.2170   -0.8648    0.6694 C.ar    1  UNL1       -0.0340
     26 C          -5.3889    0.0607    0.0638 C.ar    1  UNL1        0.0113
     27 C           6.0956    1.0605   -1.5409 C.ar    1  UNL1       -0.0550
     28 C           7.3397    0.4750   -1.4720 C.ar    1  UNL1       -0.0431
     29 H           7.3385   -0.6067    1.6825 H       1  UNL1        0.0632
     30 H           5.1714    0.3916    1.6372 H       1  UNL1        0.0621
     31 H           3.7553    2.4338   -1.0412 H       1  UNL1        0.0610
     32 H           3.6956    1.9544    0.7343 H       1  UNL1        0.0610
     33 H           3.0336   -0.4544    1.0681 H       1  UNL1        0.0572
     34 H           4.0821   -1.0321   -0.2345 H       1  UNL1        0.0572
     35 H           2.1592   -1.6159   -1.6306 H       1  UNL1        0.0446
     36 H           2.1560   -2.5417   -0.0441 H       1  UNL1        0.0446
     37 H           0.6067   -0.0395   -0.5659 H       1  UNL1        0.1221
     38 H           1.1097   -0.2363    1.7227 H       1  UNL1        0.0437
     39 H           0.6646   -1.9635    1.6873 H       1  UNL1        0.0437
     40 H          -1.2398   -0.6924    2.4899 H       1  UNL1        0.0454
     41 H          -1.1558    0.4086    1.0619 H       1  UNL1        0.0454
     42 H          -1.2905   -1.8890   -0.2462 H       1  UNL1        0.1480
     43 H          -2.3626    0.9035   -0.7908 H       1  UNL1        0.0637
     44 H          -3.4879    2.8086   -1.7037 H       1  UNL1        0.0618
     45 H          -5.9247    2.9978   -1.5188 H       1  UNL1        0.0624
     46 H          -7.9746    2.1207   -0.7933 H       1  UNL1        0.0836
     47 H          -8.1866   -1.5002    1.2369 H       1  UNL1        0.0830
     48 H          -5.8114   -1.7629    1.1094 H       1  UNL1        0.0639
     49 H           5.6706    1.5507   -2.3982 H       1  UNL1        0.0621
     50 H           7.9662    0.4979   -2.3454 H       1  UNL1        0.0632
@<TRIPOS>BOND
     1     1     2    1
     2     2     3   ar
     3     3     4   ar
     4     4     5   ar
     5     5     6    1
     6     6     7    1
     7     7     8    1
     8     8     9    1
     9     9    10    1
    10    10    11    1
    11    11    12    1
    12    12    13    1
    13    13    14    1
    14    14    15    2
    15    14    16    2
    16    14    17    1
    17    17    18   ar
    18    18    19   ar
    19    19    20   ar
    20    20    21   ar
    21    21    22   ar
    22    22    23   ar
    23    23    24   ar
    24    24    25   ar
    25    25    26   ar
    26     5    27   ar
    27    27    28   ar
    28    28     2   ar
    29    26    17   ar
    30    26    21   ar
    31     3    29    1
    32     4    30    1
    33     6    31    1
    34     6    32    1
    35     8    33    1
    36     8    34    1
    37     9    35    1
    38     9    36    1
    39    10    37    1
    40    11    38    1
    41    11    39    1
    42    12    40    1
    43    12    41    1
    44    13    42    1
    45    18    43    1
    46    19    44    1
    47    20    45    1
    48    22    46    1
    49    24    47    1
    50    25    48    1
    51    27    49    1
    52    28    50    1
