@<TRIPOS>MOLECULE
*****
 56 58 0 0 0
SMALL
GASTEIGER

@<TRIPOS>ATOM
      1 C           0.0976    3.0763    0.8924 C.2     1  UNL1       -0.0951
      2 C           1.3562    2.9970    0.6173 C.2     1  UNL1       -0.0472
      3 C           1.9983    4.3352    0.2855 C.3     1  UNL1       -0.0396
      4 C           2.1973    1.8263    0.5216 C.ar    1  UNL1        0.0166
      5 C           3.5998    1.9886    0.5415 C.ar    1  UNL1        0.0374
      6 N           4.4367    0.9645    0.4793 N.ar    1  UNL1       -0.2542
      7 C           3.9870   -0.3297    0.3911 C.ar    1  UNL1        0.0755
      8 C           4.9506   -1.3955    0.3301 C.ar    1  UNL1        0.0369
      9 C           6.3060   -1.0527    0.3654 C.ar    1  UNL1       -0.0314
     10 C           7.3279   -1.9685    0.3147 C.ar    1  UNL1        0.0418
     11 CL          8.9997   -1.4703    0.3632 Cl      1  UNL1       -0.0835
     12 C           6.9801   -3.2914    0.2242 C.ar    1  UNL1       -0.0406
     13 C           5.6689   -3.6839    0.1860 C.ar    1  UNL1       -0.0244
     14 C           4.6609   -2.7208    0.2400 C.ar    1  UNL1        0.1326
     15 F           3.4067   -3.1777    0.1980 F       1  UNL1       -0.2048
     16 C           2.6449   -0.5329    0.3660 C.ar    1  UNL1       -0.0138
     17 C           1.7352    0.5479    0.4284 C.ar    1  UNL1        0.0423
     18 N           0.3387    0.2015    0.3420 N.pl3   1  UNL1       -0.3133
     19 C          -0.3762    0.5627   -0.8328 C.ar    1  UNL1        0.0465
     20 C           0.3318    1.1936   -1.8783 C.ar    1  UNL1       -0.0217
     21 C          -0.3549    1.5481   -3.0092 C.ar    1  UNL1        0.0293
     22 N          -1.6569    1.3250   -3.1670 N.ar    1  UNL1       -0.2624
     23 C          -2.3725    0.7349   -2.2163 C.ar    1  UNL1        0.0415
     24 C          -1.7186    0.3488   -1.0310 C.ar    1  UNL1        0.0758
     25 C          -2.4985   -0.2969    0.0282 C.2     1  UNL1        0.2476
     26 O          -2.0393   -0.6690    1.1331 O.2     1  UNL1       -0.2701
     27 N          -3.9024   -0.5651   -0.1196 N.am    1  UNL1       -0.3062
     28 CA         -4.6696   -1.2058    0.9360 C.3     1  UNL1        0.0462
     29 C          -5.7975   -0.3089    1.3274 C.3     1  UNL1       -0.0352
     30 C          -6.7548    0.0024    0.2179 C.3     1  UNL1       -0.0635
     31 C          -5.1995   -2.5087    0.3816 C.3     1  UNL1        0.0626
     32 O          -6.0150   -2.3569   -0.7171 O.3     1  UNL1       -0.3932
     33 H          -0.4696    4.0200    0.8851 H       1  UNL1        0.0538
     34 H          -0.4789    2.2330    1.1960 H       1  UNL1        0.0538
     35 H           2.4543    4.7691    1.1720 H       1  UNL1        0.0278
     36 H           1.2489    5.0295   -0.1386 H       1  UNL1        0.0278
     37 H           2.7228    4.1402   -0.5503 H       1  UNL1        0.0278
     38 H           3.9496    3.0007    0.6118 H       1  UNL1        0.0836
     39 H           6.5903    0.0091    0.4381 H       1  UNL1        0.0639
     40 H           7.7991   -4.0207    0.1838 H       1  UNL1        0.0633
     41 H           5.4094   -4.7176    0.1155 H       1  UNL1        0.0647
     42 H           2.1949   -1.5039    0.2990 H       1  UNL1        0.0658
     43 H          -0.0281   -0.2888    1.1489 H       1  UNL1        0.1522
     44 H           1.3849    1.3691   -1.7520 H       1  UNL1        0.0651
     45 H           0.1623    2.0385   -3.8381 H       1  UNL1        0.0830
     46 H          -3.4405    0.5463   -2.3321 H       1  UNL1        0.0838
     47 H          -4.3888   -0.3163   -0.9650 H       1  UNL1        0.1494
     48 HA         -4.0278   -1.4628    1.8053 H       1  UNL1        0.0521
     49 H          -5.3565    0.6757    1.6548 H       1  UNL1        0.0281
     50 H          -6.3376   -0.6704    2.2352 H       1  UNL1        0.0281
     51 H          -7.2281    0.9868    0.4499 H       1  UNL1        0.0230
     52 H          -6.3622   -0.0520   -0.7916 H       1  UNL1        0.0230
     53 H          -7.5809   -0.7448    0.2910 H       1  UNL1        0.0230
     54 H1         -5.7689   -3.0832    1.1475 H       1  UNL1        0.0575
     55 H2         -4.3349   -3.1603    0.0777 H       1  UNL1        0.0575
     56 H          -5.7824   -2.9153   -1.4836 H       1  UNL1        0.2095
@<TRIPOS>BOND
     1     1     2    2
     2     2     3    1
     3     2     4    1
     4     4     5   ar
     5     5     6   ar
     6     6     7   ar
     7     7     8    1
     8     8     9   ar
     9     9    10   ar
    10    10    11    1
    11    10    12   ar
    12    12    13   ar
    13    13    14   ar
    14    14    15    1
    15     7    16   ar
    16    16    17   ar
    17    17    18    1
    18    18    19    1
    19    19    20   ar
    20    20    21   ar
    21    21    22   ar
    22    22    23   ar
    23    23    24   ar
    24    24    25    1
    25    25    26    2
    26    25    27   am
    27    27    28    1
    28    28    29    1
    29    29    30    1
    30    28    31    1
    31    31    32    1
    32    17     4   ar
    33    24    19   ar
    34    14     8   ar
    35     1    33    1
    36     1    34    1
    37     3    35    1
    38     3    36    1
    39     3    37    1
    40     5    38    1
    41     9    39    1
    42    12    40    1
    43    13    41    1
    44    16    42    1
    45    18    43    1
    46    20    44    1
    47    21    45    1
    48    23    46    1
    49    27    47    1
    50    28    48    1
    51    29    49    1
    52    29    50    1
    53    30    51    1
    54    30    52    1
    55    30    53    1
    56    31    54    1
    57    31    55    1
    58    32    56    1
