
     RDKit          3D

 40 42  0  0  0  0  0  0  0  0999 V2000
    3.8153    0.8350   -0.8060 C   0  0  0  0  0  0  0  0  0  0  0  0
    2.6246    0.9842    0.0010 N   0  0  0  0  0  0  0  0  0  0  0  0
    3.0294    1.7008    1.2077 C   0  0  0  0  0  0  0  0  0  0  0  0
    2.0766   -0.2787    0.4214 C   0  0  0  0  0  0  0  0  0  0  0  0
    1.5163   -1.0613   -0.7194 C   0  0  0  0  0  0  0  0  0  0  0  0
    0.3685   -0.4896   -1.4635 C   0  0  0  0  0  0  0  0  0  0  0  0
   -0.8381   -0.2705   -0.6997 N   0  0  0  0  0  0  0  0  0  0  0  0
   -1.2374    0.9370   -0.0795 C   0  0  0  0  0  0  0  0  0  0  0  0
   -0.4752    2.0630   -0.2859 C   0  0  0  0  0  0  0  0  0  0  0  0
   -0.7642    3.3052    0.2339 C   0  0  0  0  0  0  0  0  0  0  0  0
   -1.9026    3.4687    1.0298 C   0  0  0  0  0  0  0  0  0  0  0  0
   -2.6787    2.3481    1.2458 C   0  0  0  0  0  0  0  0  0  0  0  0
   -2.3204    1.1608    0.6948 C   0  0  0  0  0  0  0  0  0  0  0  0
   -3.4389   -0.1660    1.0629 S   0  0  0  0  0  0  0  0  0  0  0  0
   -2.7940   -1.5724    0.1815 C   0  0  0  0  0  0  0  0  0  0  0  0
   -3.5508   -2.6728    0.3318 C   0  0  0  0  0  0  0  0  0  0  0  0
   -3.1596   -3.8505   -0.2891 C   0  0  0  0  0  0  0  0  0  0  0  0
   -2.0031   -3.8365   -1.0375 C   0  0  0  0  0  0  0  0  0  0  0  0
   -1.2997   -2.6540   -1.1278 C   0  0  0  0  0  0  0  0  0  0  0  0
   -1.6285   -1.4533   -0.5409 C   0  0  0  0  0  0  0  0  0  0  0  0
    4.3419   -0.0868   -0.4859 H   0  0  0  0  0  0  0  0  0  0  0  0
    3.5363    0.7911   -1.8951 H   0  0  0  0  0  0  0  0  0  0  0  0
    4.4943    1.6877   -0.6016 H   0  0  0  0  0  0  0  0  0  0  0  0
    2.2848    1.6247    2.0040 H   0  0  0  0  0  0  0  0  0  0  0  0
    3.2316    2.7572    0.9053 H   0  0  0  0  0  0  0  0  0  0  0  0
    3.9559    1.1993    1.5772 H   0  0  0  0  0  0  0  0  0  0  0  0
    2.8523   -0.8985    0.9238 H   0  0  0  0  0  0  0  0  0  0  0  0
    1.2458   -0.0450    1.1228 H   0  0  0  0  0  0  0  0  0  0  0  0
    1.3158   -2.0797   -0.3015 H   0  0  0  0  0  0  0  0  0  0  0  0
    2.3798   -1.1341   -1.4592 H   0  0  0  0  0  0  0  0  0  0  0  0
    0.1232   -1.0693   -2.3843 H   0  0  0  0  0  0  0  0  0  0  0  0
    0.7112    0.5346   -1.8103 H   0  0  0  0  0  0  0  0  0  0  0  0
    0.4028    2.1234   -0.8766 H   0  0  0  0  0  0  0  0  0  0  0  0
   -0.1854    4.2196    0.0935 H   0  0  0  0  0  0  0  0  0  0  0  0
   -2.1594    4.4266    1.4515 H   0  0  0  0  0  0  0  0  0  0  0  0
   -3.5512    2.5141    1.8668 H   0  0  0  0  0  0  0  0  0  0  0  0
   -4.4581   -2.7580    0.8970 H   0  0  0  0  0  0  0  0  0  0  0  0
   -3.7284   -4.7621   -0.2033 H   0  0  0  0  0  0  0  0  0  0  0  0
   -1.7130   -4.7629   -1.5135 H   0  0  0  0  0  0  0  0  0  0  0  0
   -0.4198   -2.7790   -1.7353 H   0  0  0  0  0  0  0  0  0  0  0  0
  1  2  1  0
  2  3  1  0
  2  4  1  0
  4  5  1  0
  5  6  1  0
  6  7  1  0
  7  8  1  0
  8  9  2  0
  9 10  1  0
 10 11  2  0
 11 12  1  0
 12 13  2  0
 13 14  1  0
 14 15  1  0
 15 16  2  0
 16 17  1  0
 17 18  2  0
 18 19  1  0
 19 20  2  0
 20  7  1  0
 13  8  1  0
 20 15  1  0
  1 21  1  0
  1 22  1  0
  1 23  1  0
  3 24  1  0
  3 25  1  0
  3 26  1  0
  4 27  1  0
  4 28  1  0
  5 29  1  0
  5 30  1  0
  6 31  1  0
  6 32  1  0
  9 33  1  0
 10 34  1  0
 11 35  1  0
 12 36  1  0
 16 37  1  0
 17 38  1  0
 18 39  1  0
 19 40  1  0
M  END
$$$$
