@<TRIPOS>MOLECULE
*****
 87 89 0 0 0
SMALL
GASTEIGER

@<TRIPOS>ATOM
      1 C           6.9370    0.5806   -0.2900 C.3     1  UNL1        0.1069
      2 O           7.8328    0.9010    0.6962 O.3     1  UNL1       -0.3869
      3 C           7.5225    0.0694   -1.5572 C.3     1  UNL1        0.0727
      4 O           6.4255   -0.1728   -2.4297 O.3     1  UNL1       -0.3924
      5 C           5.7801    1.4675   -0.3249 C.3     1  UNL1        0.1183
      6 O           4.9896    1.2747    0.8461 O.3     1  UNL1       -0.3401
      7 C           3.7592    0.7394    0.5915 C.3     1  UNL1        0.1884
      8 O           3.7189   -0.4979    1.2507 O.3     1  UNL1       -0.3405
      9 C           2.5478   -1.1964    1.0773 C.3     1  UNL1        0.1134
     10 C           2.4174   -1.5781   -0.3835 C.3     1  UNL1        0.0730
     11 O           3.5157   -2.3760   -0.7622 O.3     1  UNL1       -0.3924
     12 C           1.3644   -0.3401    1.4649 C.3     1  UNL1        0.1184
     13 O           0.3699   -1.0499    2.0855 O.3     1  UNL1       -0.3401
     14 C          -0.8426   -1.1105    1.4420 C.3     1  UNL1        0.1882
     15 O          -1.1439   -2.4533    1.2884 O.3     1  UNL1       -0.3441
     16 C          -2.2614   -2.6946    0.5270 C.3     1  UNL1        0.0768
     17 C          -1.8247   -3.0837   -0.8617 C.3     1  UNL1       -0.0370
     18 C          -3.2531   -1.5725    0.5076 C.3     1  UNL1        0.0631
     19 N          -4.5783   -2.0800    0.2965 N.3     1  UNL1       -0.3002
     20 C          -5.6469   -1.1433    0.2837 C.3     1  UNL1        0.0555
     21 C          -5.4155   -0.1285   -0.7738 C.2     1  UNL1       -0.0608
     22 C          -6.3495    0.5049   -1.5009 C.2     1  UNL1       -0.0162
     23 C          -6.1561    1.5380   -2.5804 C.3     1  UNL1        0.0678
     24 O          -6.8086    2.6849   -2.1709 O.3     1  UNL1       -0.3906
     25 C          -7.7489    0.0637   -1.1364 C.3     1  UNL1        0.1067
     26 O          -8.6657    0.4740   -2.0782 O.3     1  UNL1       -0.3848
     27 C          -7.6720   -1.4678   -1.1999 C.3     1  UNL1        0.1124
     28 O          -8.9649   -2.0031   -1.1298 O.3     1  UNL1       -0.3863
     29 C          -6.9264   -1.9195    0.0318 C.3     1  UNL1        0.1026
     30 O          -6.6622   -3.2817   -0.1583 O.3     1  UNL1       -0.3873
     31 C          -3.2303   -0.7259    1.7432 C.3     1  UNL1        0.1035
     32 O          -3.8004    0.5289    1.5338 O.3     1  UNL1       -0.3874
     33 C          -1.8830   -0.5209    2.3586 C.3     1  UNL1        0.1332
     34 O          -1.7411   -1.1293    3.6062 O.3     1  UNL1       -0.3841
     35 C           1.8640    0.8715    2.1981 C.3     1  UNL1        0.1144
     36 O           0.7977    1.6374    2.6071 O.3     1  UNL1       -0.3864
     37 C           2.6803    1.6504    1.1389 C.3     1  UNL1        0.1341
     38 O           3.2990    2.7312    1.7484 O.3     1  UNL1       -0.3841
     39 C           5.9233    2.9120   -0.5981 C.3     1  UNL1        0.1162
     40 O           4.6386    3.4396   -0.9299 O.3     1  UNL1       -0.3861
     41 C           6.8346    3.2570   -1.7146 C.3     1  UNL1        0.1382
     42 O           6.7321    4.6741   -1.9929 O.3     1  UNL1       -0.3819
     43 C           8.2892    3.1639   -1.2757 C.2     1  UNL1        0.1512
     44 O           8.4064    4.3647   -1.4560 O.2     1  UNL1       -0.2982
     45 H           6.4208   -0.4448    0.1117 H       1  UNL1        0.0643
     46 H           8.1523    0.0924    1.1459 H       1  UNL1        0.2100
     47 H           8.2993    0.6312   -2.0498 H       1  UNL1        0.0584
     48 H           7.9361   -0.9824   -1.3517 H       1  UNL1        0.0584
     49 H           6.0470   -1.0511   -2.2571 H       1  UNL1        0.2095
     50 H           5.0772    1.0705   -1.1313 H       1  UNL1        0.0651
     51 H           3.6063    0.6092   -0.4787 H       1  UNL1        0.0938
     52 H           2.5896   -2.1310    1.6860 H       1  UNL1        0.0647
     53 H           1.5351   -2.2712   -0.5337 H       1  UNL1        0.0584
     54 H           2.2269   -0.7421   -1.0581 H       1  UNL1        0.0584
     55 H           4.2120   -2.3076   -0.0481 H       1  UNL1        0.2095
     56 H           0.9169    0.0459    0.5212 H       1  UNL1        0.0651
     57 H          -0.8754   -0.5519    0.4902 H       1  UNL1        0.0937
     58 H          -2.7627   -3.5836    0.9682 H       1  UNL1        0.0611
     59 H          -2.7561   -3.3938   -1.4048 H       1  UNL1        0.0255
     60 H          -1.1648   -3.9594   -0.8531 H       1  UNL1        0.0255
     61 H          -1.3496   -2.2232   -1.3845 H       1  UNL1        0.0255
     62 H          -2.9872   -0.9246   -0.3513 H       1  UNL1        0.0512
     63 H          -4.6587   -2.8898   -0.3257 H       1  UNL1        0.1230
     64 H          -5.7837   -0.6092    1.2493 H       1  UNL1        0.0531
     65 H          -4.4388    0.2521   -1.1154 H       1  UNL1        0.0589
     66 H          -5.0924    1.6605   -2.7933 H       1  UNL1        0.0605
     67 H          -6.6447    1.2069   -3.5382 H       1  UNL1        0.0605
     68 H          -6.5227    2.8902   -1.2501 H       1  UNL1        0.2098
     69 H          -8.0316    0.3981   -0.1338 H       1  UNL1        0.0668
     70 H          -9.2883   -0.2702   -2.2658 H       1  UNL1        0.2103
     71 H          -7.1639   -1.7337   -2.1397 H       1  UNL1        0.0649
     72 H          -8.9634   -2.9586   -0.9234 H       1  UNL1        0.2100
     73 H          -7.6210   -1.7758    0.8880 H       1  UNL1        0.0639
     74 H          -6.5314   -3.7671    0.6695 H       1  UNL1        0.2100
     75 H          -3.8618   -1.2025    2.5564 H       1  UNL1        0.0637
     76 H          -3.8804    1.0319    2.3748 H       1  UNL1        0.2100
     77 H          -1.7223    0.5725    2.5119 H       1  UNL1        0.0671
     78 H          -2.0174   -2.0791    3.5433 H       1  UNL1        0.2101
     79 H           2.5714    0.6799    3.0004 H       1  UNL1        0.0648
     80 H           0.6375    2.3320    1.9401 H       1  UNL1        0.2100
     81 H           1.9696    1.9135    0.3527 H       1  UNL1        0.0671
     82 H           3.5976    2.5300    2.6611 H       1  UNL1        0.2101
     83 H           6.2713    3.5046    0.2969 H       1  UNL1        0.0650
     84 H           4.5478    3.2400   -1.9045 H       1  UNL1        0.2100
     85 H           6.7097    2.7491   -2.6530 H       1  UNL1        0.0697
     86 H           6.5483    4.8077   -2.9421 H       1  UNL1        0.2105
     87 H           9.1752    2.6314   -0.9248 H       1  UNL1        0.1055
@<TRIPOS>BOND
     1     1     2    1
     2     1     3    1
     3     3     4    1
     4     1     5    1
     5     5     6    1
     6     6     7    1
     7     7     8    1
     8     8     9    1
     9     9    10    1
    10    10    11    1
    11     9    12    1
    12    12    13    1
    13    13    14    1
    14    14    15    1
    15    15    16    1
    16    16    17    1
    17    16    18    1
    18    18    19    1
    19    19    20    1
    20    20    21    1
    21    21    22    2
    22    22    23    1
    23    23    24    1
    24    22    25    1
    25    25    26    1
    26    25    27    1
    27    27    28    1
    28    27    29    1
    29    29    30    1
    30    18    31    1
    31    31    32    1
    32    31    33    1
    33    33    34    1
    34    12    35    1
    35    35    36    1
    36    35    37    1
    37    37    38    1
    38     5    39    1
    39    39    40    1
    40    39    41    1
    41    41    42    1
    42    41    43    1
    43    43    44    2
    44    37     7    1
    45    33    14    1
    46    29    20    1
    47     1    45    1
    48     2    46    1
    49     3    47    1
    50     3    48    1
    51     4    49    1
    52     5    50    1
    53     7    51    1
    54     9    52    1
    55    10    53    1
    56    10    54    1
    57    11    55    1
    58    12    56    1
    59    14    57    1
    60    16    58    1
    61    17    59    1
    62    17    60    1
    63    17    61    1
    64    18    62    1
    65    19    63    1
    66    20    64    1
    67    21    65    1
    68    23    66    1
    69    23    67    1
    70    24    68    1
    71    25    69    1
    72    26    70    1
    73    27    71    1
    74    28    72    1
    75    29    73    1
    76    30    74    1
    77    31    75    1
    78    32    76    1
    79    33    77    1
    80    34    78    1
    81    35    79    1
    82    36    80    1
    83    37    81    1
    84    38    82    1
    85    39    83    1
    86    40    84    1
    87    41    85    1
    88    42    86    1
    89    43    87    1
