@<TRIPOS>MOLECULE
*****
 53 55 0 0 0
SMALL
GASTEIGER

@<TRIPOS>ATOM
      1 O           8.4669    1.5896    0.2851 O.2     1  UNL1       -0.2687
      2 C           7.7519    0.6173   -0.1430 C.2     1  UNL1        0.2593
      3 C           6.3265    0.8342   -0.2321 C.2     1  UNL1        0.0027
      4 C           5.4913   -0.0942   -0.6553 C.2     1  UNL1       -0.0496
      5 C           4.0648    0.1207   -0.7464 C.ar    1  UNL1       -0.0249
      6 C           3.3003   -0.9647   -1.1983 C.ar    1  UNL1       -0.0543
      7 C           1.9420   -0.7845   -1.3028 C.ar    1  UNL1       -0.0568
      8 C           1.3266    0.4001   -0.9854 C.ar    1  UNL1       -0.0333
      9 C          -0.1150    0.5415   -1.1236 C.3     1  UNL1        0.0241
     10 N          -0.9175    0.2001   -0.0102 N.3     1  UNL1       -0.2957
     11 C          -0.7079    0.8809    1.1866 C.3     1  UNL1        0.0224
     12 C          -1.1703    2.3311    1.0178 C.3     1  UNL1        0.0569
     13 O          -0.9857    3.0569    2.1815 O.3     1  UNL1       -0.3937
     14 C          -1.5059   -1.0576   -0.0681 C.3     1  UNL1        0.0033
     15 C          -2.4256   -1.5096    0.9921 C.3     1  UNL1       -0.0129
     16 C          -3.6210   -0.6311    1.1172 C.ar    1  UNL1       -0.0212
     17 C          -3.8930    0.2985    2.0899 C.ar    1  UNL1        0.0059
     18 N          -5.0850    0.8301    1.7821 N.ar    1  UNL1       -0.3604
     19 C          -5.5759    0.2822    0.6653 C.ar    1  UNL1        0.0467
     20 C          -6.7475    0.5102   -0.0217 C.ar    1  UNL1       -0.0378
     21 C          -7.0142   -0.2068   -1.1744 C.ar    1  UNL1       -0.0598
     22 C          -6.1087   -1.1439   -1.6281 C.ar    1  UNL1       -0.0611
     23 C          -4.9329   -1.3710   -0.9361 C.ar    1  UNL1       -0.0523
     24 C          -4.6695   -0.6548    0.2117 C.ar    1  UNL1        0.0029
     25 C           2.0987    1.4371   -0.5481 C.ar    1  UNL1       -0.0568
     26 C           3.4713    1.3027   -0.4265 C.ar    1  UNL1       -0.0543
     27 N           8.3938   -0.5819   -0.4936 N.am    1  UNL1       -0.1940
     28 O           9.7524   -0.7397   -0.3905 O.3     1  UNL1       -0.2949
     29 H           5.9113    1.8090    0.0630 H       1  UNL1        0.0670
     30 H           5.9014   -1.0707   -0.9517 H       1  UNL1        0.0625
     31 H           3.7564   -1.9128   -1.4575 H       1  UNL1        0.0624
     32 H           1.3716   -1.6539   -1.6590 H       1  UNL1        0.0621
     33 H          -0.3457    1.6184   -1.3834 H       1  UNL1        0.0476
     34 H          -0.5268   -0.0288   -2.0087 H       1  UNL1        0.0476
     35 H          -1.0305    0.4310    2.1201 H       1  UNL1        0.0449
     36 H           0.4188    0.9849    1.3210 H       1  UNL1        0.0449
     37 H          -2.2524    2.3356    0.7113 H       1  UNL1        0.0570
     38 H          -0.6024    2.8463    0.2207 H       1  UNL1        0.0570
     39 H          -0.6442    2.4375    2.8789 H       1  UNL1        0.2095
     40 H          -2.0869   -1.1169   -1.0419 H       1  UNL1        0.0430
     41 H          -0.6882   -1.8239   -0.2365 H       1  UNL1        0.0430
     42 H          -2.8317   -2.5186    0.6859 H       1  UNL1        0.0326
     43 H          -2.0094   -1.6364    1.9866 H       1  UNL1        0.0326
     44 H          -3.2746    0.5532    2.9351 H       1  UNL1        0.0810
     45 H          -5.5840    1.5702    2.3209 H       1  UNL1        0.1653
     46 H          -7.4744    1.2412    0.3162 H       1  UNL1        0.0638
     47 H          -7.9425   -0.0005   -1.6905 H       1  UNL1        0.0618
     48 H          -6.3600   -1.6721   -2.5225 H       1  UNL1        0.0618
     49 H          -4.2534   -2.1000   -1.3109 H       1  UNL1        0.0624
     50 H           1.6905    2.4085   -0.2754 H       1  UNL1        0.0621
     51 H           4.0531    2.1636   -0.0721 H       1  UNL1        0.0624
     52 H           7.8365   -1.3825   -0.8450 H       1  UNL1        0.1825
     53 H          10.0563   -0.2899    0.4503 H       1  UNL1        0.2414
@<TRIPOS>BOND
     1     1     2    2
     2     2     3    1
     3     3     4    2
     4     4     5    1
     5     5     6   ar
     6     6     7   ar
     7     7     8   ar
     8     8     9    1
     9     9    10    1
    10    10    11    1
    11    11    12    1
    12    12    13    1
    13    10    14    1
    14    14    15    1
    15    15    16    1
    16    16    17   ar
    17    17    18   ar
    18    18    19   ar
    19    19    20   ar
    20    20    21   ar
    21    21    22   ar
    22    22    23   ar
    23    23    24   ar
    24     8    25   ar
    25    25    26   ar
    26     2    27   am
    27    27    28    1
    28    26     5   ar
    29    24    16   ar
    30    24    19   ar
    31     3    29    1
    32     4    30    1
    33     6    31    1
    34     7    32    1
    35     9    33    1
    36     9    34    1
    37    11    35    1
    38    11    36    1
    39    12    37    1
    40    12    38    1
    41    13    39    1
    42    14    40    1
    43    14    41    1
    44    15    42    1
    45    15    43    1
    46    17    44    1
    47    18    45    1
    48    20    46    1
    49    21    47    1
    50    22    48    1
    51    23    49    1
    52    25    50    1
    53    26    51    1
    54    27    52    1
    55    28    53    1
