
     RDKit          3D

 53 55  0  0  0  0  0  0  0  0999 V2000
    8.4669    1.5896    0.2851 O   0  0  0  0  0  0  0  0  0  0  0  0
    7.7519    0.6173   -0.1430 C   0  0  0  0  0  0  0  0  0  0  0  0
    6.3265    0.8342   -0.2321 C   0  0  0  0  0  0  0  0  0  0  0  0
    5.4913   -0.0942   -0.6553 C   0  0  0  0  0  0  0  0  0  0  0  0
    4.0648    0.1207   -0.7464 C   0  0  0  0  0  0  0  0  0  0  0  0
    3.3003   -0.9647   -1.1983 C   0  0  0  0  0  0  0  0  0  0  0  0
    1.9420   -0.7845   -1.3028 C   0  0  0  0  0  0  0  0  0  0  0  0
    1.3266    0.4001   -0.9854 C   0  0  0  0  0  0  0  0  0  0  0  0
   -0.1150    0.5415   -1.1236 C   0  0  0  0  0  0  0  0  0  0  0  0
   -0.9175    0.2001   -0.0102 N   0  0  0  0  0  0  0  0  0  0  0  0
   -0.7079    0.8809    1.1866 C   0  0  0  0  0  0  0  0  0  0  0  0
   -1.1703    2.3311    1.0178 C   0  0  0  0  0  0  0  0  0  0  0  0
   -0.9857    3.0569    2.1815 O   0  0  0  0  0  0  0  0  0  0  0  0
   -1.5059   -1.0576   -0.0681 C   0  0  0  0  0  0  0  0  0  0  0  0
   -2.4256   -1.5096    0.9921 C   0  0  0  0  0  0  0  0  0  0  0  0
   -3.6210   -0.6311    1.1172 C   0  0  0  0  0  0  0  0  0  0  0  0
   -3.8930    0.2985    2.0899 C   0  0  0  0  0  0  0  0  0  0  0  0
   -5.0850    0.8301    1.7821 N   0  0  0  0  0  0  0  0  0  0  0  0
   -5.5759    0.2822    0.6653 C   0  0  0  0  0  0  0  0  0  0  0  0
   -6.7475    0.5102   -0.0217 C   0  0  0  0  0  0  0  0  0  0  0  0
   -7.0142   -0.2068   -1.1744 C   0  0  0  0  0  0  0  0  0  0  0  0
   -6.1087   -1.1439   -1.6281 C   0  0  0  0  0  0  0  0  0  0  0  0
   -4.9329   -1.3710   -0.9361 C   0  0  0  0  0  0  0  0  0  0  0  0
   -4.6695   -0.6548    0.2117 C   0  0  0  0  0  0  0  0  0  0  0  0
    2.0987    1.4371   -0.5481 C   0  0  0  0  0  0  0  0  0  0  0  0
    3.4713    1.3027   -0.4265 C   0  0  0  0  0  0  0  0  0  0  0  0
    8.3938   -0.5819   -0.4936 N   0  0  0  0  0  0  0  0  0  0  0  0
    9.7524   -0.7397   -0.3905 O   0  0  0  0  0  0  0  0  0  0  0  0
    5.9113    1.8090    0.0630 H   0  0  0  0  0  0  0  0  0  0  0  0
    5.9014   -1.0707   -0.9517 H   0  0  0  0  0  0  0  0  0  0  0  0
    3.7564   -1.9128   -1.4575 H   0  0  0  0  0  0  0  0  0  0  0  0
    1.3716   -1.6539   -1.6590 H   0  0  0  0  0  0  0  0  0  0  0  0
   -0.3457    1.6184   -1.3834 H   0  0  0  0  0  0  0  0  0  0  0  0
   -0.5268   -0.0288   -2.0087 H   0  0  0  0  0  0  0  0  0  0  0  0
   -1.0305    0.4310    2.1201 H   0  0  0  0  0  0  0  0  0  0  0  0
    0.4188    0.9849    1.3210 H   0  0  0  0  0  0  0  0  0  0  0  0
   -2.2524    2.3356    0.7113 H   0  0  0  0  0  0  0  0  0  0  0  0
   -0.6024    2.8463    0.2207 H   0  0  0  0  0  0  0  0  0  0  0  0
   -0.6442    2.4375    2.8789 H   0  0  0  0  0  0  0  0  0  0  0  0
   -2.0869   -1.1169   -1.0419 H   0  0  0  0  0  0  0  0  0  0  0  0
   -0.6882   -1.8239   -0.2365 H   0  0  0  0  0  0  0  0  0  0  0  0
   -2.8317   -2.5186    0.6859 H   0  0  0  0  0  0  0  0  0  0  0  0
   -2.0094   -1.6364    1.9866 H   0  0  0  0  0  0  0  0  0  0  0  0
   -3.2746    0.5532    2.9351 H   0  0  0  0  0  0  0  0  0  0  0  0
   -5.5840    1.5702    2.3209 H   0  0  0  0  0  0  0  0  0  0  0  0
   -7.4744    1.2412    0.3162 H   0  0  0  0  0  0  0  0  0  0  0  0
   -7.9425   -0.0005   -1.6905 H   0  0  0  0  0  0  0  0  0  0  0  0
   -6.3600   -1.6721   -2.5225 H   0  0  0  0  0  0  0  0  0  0  0  0
   -4.2534   -2.1000   -1.3109 H   0  0  0  0  0  0  0  0  0  0  0  0
    1.6905    2.4085   -0.2754 H   0  0  0  0  0  0  0  0  0  0  0  0
    4.0531    2.1636   -0.0721 H   0  0  0  0  0  0  0  0  0  0  0  0
    7.8365   -1.3825   -0.8450 H   0  0  0  0  0  0  0  0  0  0  0  0
   10.0563   -0.2899    0.4503 H   0  0  0  0  0  0  0  0  0  0  0  0
  1  2  2  0
  2  3  1  0
  3  4  2  0
  4  5  1  0
  5  6  2  0
  6  7  1  0
  7  8  2  0
  8  9  1  0
  9 10  1  0
 10 11  1  0
 11 12  1  0
 12 13  1  0
 10 14  1  0
 14 15  1  0
 15 16  1  0
 16 17  2  0
 17 18  1  0
 18 19  1  0
 19 20  2  0
 20 21  1  0
 21 22  2  0
 22 23  1  0
 23 24  2  0
  8 25  1  0
 25 26  2  0
  2 27  1  0
 27 28  1  0
 26  5  1  0
 24 16  1  0
 24 19  1  0
  3 29  1  0
  4 30  1  0
  6 31  1  0
  7 32  1  0
  9 33  1  0
  9 34  1  0
 11 35  1  0
 11 36  1  0
 12 37  1  0
 12 38  1  0
 13 39  1  0
 14 40  1  0
 14 41  1  0
 15 42  1  0
 15 43  1  0
 17 44  1  0
 18 45  1  0
 20 46  1  0
 21 47  1  0
 22 48  1  0
 23 49  1  0
 25 50  1  0
 26 51  1  0
 27 52  1  0
 28 53  1  0
M  END
$$$$
