@<TRIPOS>MOLECULE
*****
 50 54 0 0 0
SMALL
GASTEIGER

@<TRIPOS>ATOM
      1 N          -5.8551   -2.8560    1.9982 N.am    1  UNL1       -0.3240
      2 C          -4.6154   -2.4014    2.5081 C.2     1  UNL1        0.2622
      3 O          -4.0471   -2.9092    3.5001 O.2     1  UNL1       -0.2687
      4 C          -3.9603   -1.2776    1.8431 C.ar    1  UNL1        0.1545
      5 N          -2.8047   -0.7274    2.1842 N.ar    1  UNL1       -0.1650
      6 N          -2.4859    0.2863    1.3627 N.ar    1  UNL1       -0.2541
      7 C          -1.2462    1.0202    1.5318 C.3     1  UNL1        0.1185
      8 C          -0.0904    0.3888    0.8633 C.2     1  UNL1        0.2379
      9 O           0.4758   -0.5711    1.5072 O.2     1  UNL1       -0.2735
     10 N           0.4347    0.7463   -0.3993 N.am    1  UNL1       -0.2851
     11 C           1.5416    0.1610   -1.0616 C.3     1  UNL1        0.1032
     12 C           2.7578    0.0551   -0.2068 C.2     1  UNL1        0.2388
     13 O           2.7460    0.5367    0.9345 O.2     1  UNL1       -0.2734
     14 N           3.8893   -0.5992   -0.7417 N.am    1  UNL1       -0.2688
     15 C           5.1076   -0.7429    0.0215 C.ar    1  UNL1        0.1262
     16 C           6.0757    0.2335   -0.0642 C.ar    1  UNL1       -0.0214
     17 C           7.2780    0.1388    0.6561 C.ar    1  UNL1       -0.0560
     18 C           7.4816   -0.9590    1.4622 C.ar    1  UNL1       -0.0291
     19 C           6.4959   -1.9176    1.5272 C.ar    1  UNL1        0.1084
     20 BR          6.7766   -3.4379    2.6419 Br      1  UNL1       -0.0286
     21 N           5.3453   -1.7953    0.8176 N.ar    1  UNL1       -0.2251
     22 C           1.8904    1.0831   -2.1901 C.3     1  UNL1       -0.0212
     23 C           0.6804    1.9083   -2.4475 C.3     1  UNL1       -0.0185
     24 C          -0.6874    1.3383   -2.5440 C.3     1  UNL1       -0.0294
     25 C          -0.1122    1.7923   -1.2273 C.3     1  UNL1        0.0301
     26 C          -3.4692    0.3978    0.4585 C.ar    1  UNL1        0.0702
     27 C          -3.6445    1.2706   -0.5976 C.ar    1  UNL1       -0.0360
     28 C          -4.7861    1.1369   -1.3612 C.ar    1  UNL1       -0.0597
     29 C          -5.7429    0.1849   -1.1179 C.ar    1  UNL1       -0.0610
     30 C          -5.5434   -0.6781   -0.0518 C.ar    1  UNL1       -0.0503
     31 C          -4.4130   -0.5677    0.7277 C.ar    1  UNL1        0.0322
     32 H          -5.8702   -3.5979    1.2587 H       1  UNL1        0.1453
     33 H          -6.7793   -2.4899    2.3206 H       1  UNL1        0.1453
     34 H          -1.4376    2.0551    1.1493 H       1  UNL1        0.0605
     35 H          -1.0673    1.1508    2.6398 H       1  UNL1        0.0605
     36 H           1.3094   -0.8809   -1.4399 H       1  UNL1        0.0597
     37 H           3.8218   -0.9807   -1.7132 H       1  UNL1        0.1563
     38 H           5.9254    1.0849   -0.6841 H       1  UNL1        0.0652
     39 H           8.0441    0.8888    0.6007 H       1  UNL1        0.0619
     40 H           8.4240   -1.0339    2.0262 H       1  UNL1        0.0644
     41 H           2.7296    1.7524   -1.8302 H       1  UNL1        0.0291
     42 H           2.2175    0.5207   -3.0955 H       1  UNL1        0.0291
     43 H           0.8561    2.9271   -2.8990 H       1  UNL1        0.0320
     44 H          -0.8539    0.2486   -2.6630 H       1  UNL1        0.0286
     45 H          -1.4468    1.9814   -3.0264 H       1  UNL1        0.0286
     46 H          -0.5906    2.6700   -0.7461 H       1  UNL1        0.0503
     47 H          -2.9000    2.0219   -0.7827 H       1  UNL1        0.0639
     48 H          -4.9449    1.8063   -2.1918 H       1  UNL1        0.0618
     49 H          -6.6390    0.0725   -1.7093 H       1  UNL1        0.0618
     50 H          -6.2713   -1.4360    0.1681 H       1  UNL1        0.0625
@<TRIPOS>BOND
     1     1     2   am
     2     2     3    2
     3     2     4    1
     4     4     5   ar
     5     5     6   ar
     6     6     7    1
     7     7     8    1
     8     8     9    2
     9     8    10   am
    10    10    11    1
    11    11    12    1
    12    12    13    2
    13    12    14   am
    14    14    15    1
    15    15    16   ar
    16    16    17   ar
    17    17    18   ar
    18    18    19   ar
    19    19    20    1
    20    19    21   ar
    21    11    22    1
    22    22    23    1
    23    23    24    1
    24    24    25    1
    25     6    26   ar
    26    26    27   ar
    27    27    28   ar
    28    28    29   ar
    29    29    30   ar
    30    30    31   ar
    31    31     4   ar
    32    25    10    1
    33    31    26   ar
    34    21    15   ar
    35    25    23    1
    36     1    32    1
    37     1    33    1
    38     7    34    1
    39     7    35    1
    40    11    36    1
    41    14    37    1
    42    16    38    1
    43    17    39    1
    44    18    40    1
    45    22    41    1
    46    22    42    1
    47    23    43    1
    48    24    44    1
    49    24    45    1
    50    25    46    1
    51    27    47    1
    52    28    48    1
    53    29    49    1
    54    30    50    1
