
     RDKit          3D

 50 54  0  0  0  0  0  0  0  0999 V2000
   -5.8551   -2.8560    1.9982 N   0  0  0  0  0  0  0  0  0  0  0  0
   -4.6154   -2.4014    2.5081 C   0  0  0  0  0  0  0  0  0  0  0  0
   -4.0471   -2.9092    3.5001 O   0  0  0  0  0  0  0  0  0  0  0  0
   -3.9603   -1.2776    1.8431 C   0  0  0  0  0  0  0  0  0  0  0  0
   -2.8047   -0.7274    2.1842 N   0  0  0  0  0  0  0  0  0  0  0  0
   -2.4859    0.2863    1.3627 N   0  0  0  0  0  0  0  0  0  0  0  0
   -1.2462    1.0202    1.5318 C   0  0  0  0  0  0  0  0  0  0  0  0
   -0.0904    0.3888    0.8633 C   0  0  0  0  0  0  0  0  0  0  0  0
    0.4758   -0.5711    1.5072 O   0  0  0  0  0  0  0  0  0  0  0  0
    0.4347    0.7463   -0.3993 N   0  0  0  0  0  0  0  0  0  0  0  0
    1.5416    0.1610   -1.0616 C   0  0  2  0  0  0  0  0  0  0  0  0
    2.7578    0.0551   -0.2068 C   0  0  0  0  0  0  0  0  0  0  0  0
    2.7460    0.5367    0.9345 O   0  0  0  0  0  0  0  0  0  0  0  0
    3.8893   -0.5992   -0.7417 N   0  0  0  0  0  0  0  0  0  0  0  0
    5.1076   -0.7429    0.0215 C   0  0  0  0  0  0  0  0  0  0  0  0
    6.0757    0.2335   -0.0642 C   0  0  0  0  0  0  0  0  0  0  0  0
    7.2780    0.1388    0.6561 C   0  0  0  0  0  0  0  0  0  0  0  0
    7.4816   -0.9590    1.4622 C   0  0  0  0  0  0  0  0  0  0  0  0
    6.4959   -1.9176    1.5272 C   0  0  0  0  0  0  0  0  0  0  0  0
    6.7766   -3.4379    2.6419 Br  0  0  0  0  0  0  0  0  0  0  0  0
    5.3453   -1.7953    0.8176 N   0  0  0  0  0  0  0  0  0  0  0  0
    1.8904    1.0831   -2.1901 C   0  0  0  0  0  0  0  0  0  0  0  0
    0.6804    1.9083   -2.4475 C   0  0  1  0  0  0  0  0  0  0  0  0
   -0.6874    1.3383   -2.5440 C   0  0  0  0  0  0  0  0  0  0  0  0
   -0.1122    1.7923   -1.2273 C   0  0  1  0  0  0  0  0  0  0  0  0
   -3.4692    0.3978    0.4585 C   0  0  0  0  0  0  0  0  0  0  0  0
   -3.6445    1.2706   -0.5976 C   0  0  0  0  0  0  0  0  0  0  0  0
   -4.7861    1.1369   -1.3612 C   0  0  0  0  0  0  0  0  0  0  0  0
   -5.7429    0.1849   -1.1179 C   0  0  0  0  0  0  0  0  0  0  0  0
   -5.5434   -0.6781   -0.0518 C   0  0  0  0  0  0  0  0  0  0  0  0
   -4.4130   -0.5677    0.7277 C   0  0  0  0  0  0  0  0  0  0  0  0
   -5.8702   -3.5979    1.2587 H   0  0  0  0  0  0  0  0  0  0  0  0
   -6.7793   -2.4899    2.3206 H   0  0  0  0  0  0  0  0  0  0  0  0
   -1.4376    2.0551    1.1493 H   0  0  0  0  0  0  0  0  0  0  0  0
   -1.0673    1.1508    2.6398 H   0  0  0  0  0  0  0  0  0  0  0  0
    1.3094   -0.8809   -1.4399 H   0  0  0  0  0  0  0  0  0  0  0  0
    3.8218   -0.9807   -1.7132 H   0  0  0  0  0  0  0  0  0  0  0  0
    5.9254    1.0849   -0.6841 H   0  0  0  0  0  0  0  0  0  0  0  0
    8.0441    0.8888    0.6007 H   0  0  0  0  0  0  0  0  0  0  0  0
    8.4240   -1.0339    2.0262 H   0  0  0  0  0  0  0  0  0  0  0  0
    2.7296    1.7524   -1.8302 H   0  0  0  0  0  0  0  0  0  0  0  0
    2.2175    0.5207   -3.0955 H   0  0  0  0  0  0  0  0  0  0  0  0
    0.8561    2.9271   -2.8990 H   0  0  0  0  0  0  0  0  0  0  0  0
   -0.8539    0.2486   -2.6630 H   0  0  0  0  0  0  0  0  0  0  0  0
   -1.4468    1.9814   -3.0264 H   0  0  0  0  0  0  0  0  0  0  0  0
   -0.5906    2.6700   -0.7461 H   0  0  0  0  0  0  0  0  0  0  0  0
   -2.9000    2.0219   -0.7827 H   0  0  0  0  0  0  0  0  0  0  0  0
   -4.9449    1.8063   -2.1918 H   0  0  0  0  0  0  0  0  0  0  0  0
   -6.6390    0.0725   -1.7093 H   0  0  0  0  0  0  0  0  0  0  0  0
   -6.2713   -1.4360    0.1681 H   0  0  0  0  0  0  0  0  0  0  0  0
  1  2  1  0
  2  3  2  0
  2  4  1  0
  4  5  2  0
  5  6  1  0
  6  7  1  0
  7  8  1  0
  8  9  2  0
  8 10  1  0
 10 11  1  0
 11 12  1  0
 12 13  2  0
 12 14  1  0
 14 15  1  0
 15 16  2  0
 16 17  1  0
 17 18  2  0
 18 19  1  0
 19 20  1  0
 19 21  2  0
 11 22  1  0
 22 23  1  0
 23 24  1  0
 24 25  1  0
  6 26  1  0
 26 27  2  0
 27 28  1  0
 28 29  2  0
 29 30  1  0
 30 31  2  0
 31  4  1  0
 25 10  1  0
 31 26  1  0
 21 15  1  0
 25 23  1  0
  1 32  1  0
  1 33  1  0
  7 34  1  0
  7 35  1  0
 11 36  1  6
 14 37  1  0
 16 38  1  0
 17 39  1  0
 18 40  1  0
 22 41  1  0
 22 42  1  0
 23 43  1  6
 24 44  1  0
 24 45  1  0
 25 46  1  1
 27 47  1  0
 28 48  1  0
 29 49  1  0
 30 50  1  0
M  END
$$$$
