@<TRIPOS>MOLECULE
*****
 38 42 0 0 0
SMALL
GASTEIGER

@<TRIPOS>ATOM
      1 CL          6.3956    2.9505    0.3152 Cl      1  UNL1       -0.0835
      2 C           5.0314    1.8380    0.2466 C.ar    1  UNL1        0.0410
      3 C           4.0759    1.8229    1.2548 C.ar    1  UNL1       -0.0431
      4 C           2.9972    0.9328    1.1863 C.ar    1  UNL1       -0.0562
      5 C           2.8812    0.0682    0.1157 C.ar    1  UNL1       -0.0338
      6 C           1.7066   -0.9019    0.0382 C.3     1  UNL1        0.0558
      7 C           0.4416   -0.1887   -0.1285 C.ar    1  UNL1        0.1483
      8 N           0.2700    1.1600   -0.3234 N.ar    1  UNL1       -0.1328
      9 N          -0.9772    1.4557   -0.4357 N.ar    1  UNL1       -0.1291
     10 C          -1.6984    0.3207   -0.3216 C.ar    1  UNL1        0.1646
     11 C          -3.0601    0.0901   -0.3699 C.ar    1  UNL1        0.0003
     12 C          -3.9658    1.2362   -0.5814 C.3     1  UNL1       -0.0123
     13 C          -4.4504    2.0117    0.6399 C.3     1  UNL1       -0.0455
     14 C          -5.4170    1.1415   -0.0865 C.3     1  UNL1       -0.0455
     15 C          -3.5840   -1.1719   -0.2290 C.ar    1  UNL1       -0.0534
     16 C          -2.6794   -2.1925   -0.0373 C.ar    1  UNL1       -0.0447
     17 C          -1.3283   -1.9131    0.0037 C.ar    1  UNL1        0.0129
     18 N          -0.8107   -0.6725   -0.1344 N.ar    1  UNL1       -0.2854
     19 C           1.9300   -2.0663    0.9043 C.3     1  UNL1       -0.0352
     20 C           2.0145   -2.2218   -0.5379 C.3     1  UNL1       -0.0352
     21 C           3.8125    0.0703   -0.8847 C.ar    1  UNL1       -0.0562
     22 C           4.8784    0.9596   -0.8033 C.ar    1  UNL1       -0.0431
     23 H           4.1638    2.4949    2.0893 H       1  UNL1        0.0632
     24 H           2.2673    0.9442    1.9883 H       1  UNL1        0.0621
     25 H          -3.8089    1.8291   -1.5202 H       1  UNL1        0.0350
     26 H          -4.1037    1.6557    1.6220 H       1  UNL1        0.0271
     27 H          -4.5559    3.1171    0.5392 H       1  UNL1        0.0271
     28 H          -5.7144    0.1990    0.4014 H       1  UNL1        0.0271
     29 H          -6.1591    1.6808   -0.7186 H       1  UNL1        0.0271
     30 H          -4.6512   -1.3880   -0.2635 H       1  UNL1        0.0622
     31 H          -3.0031   -3.2333    0.0852 H       1  UNL1        0.0632
     32 H          -0.5969   -2.7090    0.1514 H       1  UNL1        0.0814
     33 H           1.1669   -2.4143    1.5941 H       1  UNL1        0.0278
     34 H           2.9320   -2.1719    1.4427 H       1  UNL1        0.0278
     35 H           3.0422   -2.4118   -0.9914 H       1  UNL1        0.0278
     36 H           1.2772   -2.6386   -1.2249 H       1  UNL1        0.0278
     37 H           3.6873   -0.6145   -1.6975 H       1  UNL1        0.0621
     38 H           5.5930    0.9312   -1.6123 H       1  UNL1        0.0632
@<TRIPOS>BOND
     1     1     2    1
     2     2     3   ar
     3     3     4   ar
     4     4     5   ar
     5     5     6    1
     6     6     7    1
     7     7     8   ar
     8     8     9   ar
     9     9    10   ar
    10    10    11   ar
    11    11    12    1
    12    12    13    1
    13    13    14    1
    14    11    15   ar
    15    15    16   ar
    16    16    17   ar
    17    17    18   ar
    18     6    19    1
    19    19    20    1
    20     5    21   ar
    21    21    22   ar
    22    22     2   ar
    23    20     6    1
    24    18     7   ar
    25    18    10   ar
    26    14    12    1
    27     3    23    1
    28     4    24    1
    29    12    25    1
    30    13    26    1
    31    13    27    1
    32    14    28    1
    33    14    29    1
    34    15    30    1
    35    16    31    1
    36    17    32    1
    37    19    33    1
    38    19    34    1
    39    20    35    1
    40    20    36    1
    41    21    37    1
    42    22    38    1
