
     RDKit          3D

 38 42  0  0  0  0  0  0  0  0999 V2000
    6.3956    2.9505    0.3152 Cl  0  0  0  0  0  0  0  0  0  0  0  0
    5.0314    1.8380    0.2466 C   0  0  0  0  0  0  0  0  0  0  0  0
    4.0759    1.8229    1.2548 C   0  0  0  0  0  0  0  0  0  0  0  0
    2.9972    0.9328    1.1863 C   0  0  0  0  0  0  0  0  0  0  0  0
    2.8812    0.0682    0.1157 C   0  0  0  0  0  0  0  0  0  0  0  0
    1.7066   -0.9019    0.0382 C   0  0  0  0  0  0  0  0  0  0  0  0
    0.4416   -0.1887   -0.1285 C   0  0  0  0  0  0  0  0  0  0  0  0
    0.2700    1.1600   -0.3234 N   0  0  0  0  0  0  0  0  0  0  0  0
   -0.9772    1.4557   -0.4357 N   0  0  0  0  0  0  0  0  0  0  0  0
   -1.6984    0.3207   -0.3216 C   0  0  0  0  0  0  0  0  0  0  0  0
   -3.0601    0.0901   -0.3699 C   0  0  0  0  0  0  0  0  0  0  0  0
   -3.9658    1.2362   -0.5814 C   0  0  0  0  0  0  0  0  0  0  0  0
   -4.4504    2.0117    0.6399 C   0  0  0  0  0  0  0  0  0  0  0  0
   -5.4170    1.1415   -0.0865 C   0  0  0  0  0  0  0  0  0  0  0  0
   -3.5840   -1.1719   -0.2290 C   0  0  0  0  0  0  0  0  0  0  0  0
   -2.6794   -2.1925   -0.0373 C   0  0  0  0  0  0  0  0  0  0  0  0
   -1.3283   -1.9131    0.0037 C   0  0  0  0  0  0  0  0  0  0  0  0
   -0.8107   -0.6725   -0.1344 N   0  0  0  0  0  0  0  0  0  0  0  0
    1.9300   -2.0663    0.9043 C   0  0  0  0  0  0  0  0  0  0  0  0
    2.0145   -2.2218   -0.5379 C   0  0  0  0  0  0  0  0  0  0  0  0
    3.8125    0.0703   -0.8847 C   0  0  0  0  0  0  0  0  0  0  0  0
    4.8784    0.9596   -0.8033 C   0  0  0  0  0  0  0  0  0  0  0  0
    4.1638    2.4949    2.0893 H   0  0  0  0  0  0  0  0  0  0  0  0
    2.2673    0.9442    1.9883 H   0  0  0  0  0  0  0  0  0  0  0  0
   -3.8089    1.8291   -1.5202 H   0  0  0  0  0  0  0  0  0  0  0  0
   -4.1037    1.6557    1.6220 H   0  0  0  0  0  0  0  0  0  0  0  0
   -4.5559    3.1171    0.5392 H   0  0  0  0  0  0  0  0  0  0  0  0
   -5.7144    0.1990    0.4014 H   0  0  0  0  0  0  0  0  0  0  0  0
   -6.1591    1.6808   -0.7186 H   0  0  0  0  0  0  0  0  0  0  0  0
   -4.6512   -1.3880   -0.2635 H   0  0  0  0  0  0  0  0  0  0  0  0
   -3.0031   -3.2333    0.0852 H   0  0  0  0  0  0  0  0  0  0  0  0
   -0.5969   -2.7090    0.1514 H   0  0  0  0  0  0  0  0  0  0  0  0
    1.1669   -2.4143    1.5941 H   0  0  0  0  0  0  0  0  0  0  0  0
    2.9320   -2.1719    1.4427 H   0  0  0  0  0  0  0  0  0  0  0  0
    3.0422   -2.4118   -0.9914 H   0  0  0  0  0  0  0  0  0  0  0  0
    1.2772   -2.6386   -1.2249 H   0  0  0  0  0  0  0  0  0  0  0  0
    3.6873   -0.6145   -1.6975 H   0  0  0  0  0  0  0  0  0  0  0  0
    5.5930    0.9312   -1.6123 H   0  0  0  0  0  0  0  0  0  0  0  0
  1  2  1  0
  2  3  2  0
  3  4  1  0
  4  5  2  0
  5  6  1  0
  6  7  1  0
  7  8  2  0
  8  9  1  0
  9 10  2  0
 10 11  1  0
 11 12  1  0
 12 13  1  0
 13 14  1  0
 11 15  2  0
 15 16  1  0
 16 17  2  0
 17 18  1  0
  6 19  1  0
 19 20  1  0
  5 21  1  0
 21 22  2  0
 22  2  1  0
 20  6  1  0
 18  7  1  0
 18 10  1  0
 14 12  1  0
  3 23  1  0
  4 24  1  0
 12 25  1  0
 13 26  1  0
 13 27  1  0
 14 28  1  0
 14 29  1  0
 15 30  1  0
 16 31  1  0
 17 32  1  0
 19 33  1  0
 19 34  1  0
 20 35  1  0
 20 36  1  0
 21 37  1  0
 22 38  1  0
M  END
$$$$
