
     RDKit          3D

 55 59  0  0  0  0  0  0  0  0999 V2000
    1.2719   -0.2520    3.5273 C   0  0  0  0  0  0  0  0  0  0  0  0
    2.1972   -0.2918    2.3661 C   0  0  0  0  0  0  0  0  0  0  0  0
    3.5382   -0.2477    2.6350 C   0  0  0  0  0  0  0  0  0  0  0  0
    4.4191   -0.2823    1.5818 C   0  0  0  0  0  0  0  0  0  0  0  0
    4.0106   -0.3592    0.2741 C   0  0  0  0  0  0  0  0  0  0  0  0
    4.9620   -0.4011   -0.8362 C   0  0  0  0  0  0  0  0  0  0  0  0
    4.5149   -0.4466   -2.0027 O   0  0  0  0  0  0  0  0  0  0  0  0
    6.3545   -0.3924   -0.6351 N   0  0  0  0  0  0  0  0  0  0  0  0
    7.3091   -0.4350   -1.7436 C   0  0  0  0  0  0  0  0  0  0  0  0
    8.6185   -1.1028   -1.5293 C   0  0  0  0  0  0  0  0  0  0  0  0
    8.5781    0.3642   -1.5300 C   0  0  0  0  0  0  0  0  0  0  0  0
    2.6418   -0.4028    0.0228 C   0  0  0  0  0  0  0  0  0  0  0  0
    1.7321   -0.3709    1.0396 C   0  0  0  0  0  0  0  0  0  0  0  0
    0.3239   -0.4187    0.8727 N   0  0  0  0  0  0  0  0  0  0  0  0
   -0.3856   -0.5203   -0.3408 C   0  0  0  0  0  0  0  0  0  0  0  0
    0.2909   -0.7258   -1.4894 N   0  0  0  0  0  0  0  0  0  0  0  0
   -0.3330   -0.8357   -2.6656 C   0  0  0  0  0  0  0  0  0  0  0  0
   -1.6718   -0.7467   -2.7698 N   0  0  0  0  0  0  0  0  0  0  0  0
   -2.3686   -0.5447   -1.6665 N   0  0  0  0  0  0  0  0  0  0  0  0
   -3.7040   -0.4211   -1.5321 C   0  0  0  0  0  0  0  0  0  0  0  0
   -3.9870   -0.2186   -0.2070 C   0  0  0  0  0  0  0  0  0  0  0  0
   -5.2568   -0.0440    0.4264 C   0  0  0  0  0  0  0  0  0  0  0  0
   -5.5584   -0.6695    1.4989 O   0  0  0  0  0  0  0  0  0  0  0  0
   -6.2906    0.8545   -0.1052 C   0  0  0  0  0  0  0  0  0  0  0  0
   -7.6316    0.6361    0.1764 C   0  0  0  0  0  0  0  0  0  0  0  0
   -8.6128    1.4711   -0.3131 C   0  0  0  0  0  0  0  0  0  0  0  0
   -8.2977    2.5571   -1.1033 C   0  0  0  0  0  0  0  0  0  0  0  0
   -6.9782    2.7842   -1.3893 C   0  0  0  0  0  0  0  0  0  0  0  0
   -5.9860    1.9389   -0.8933 C   0  0  0  0  0  0  0  0  0  0  0  0
   -2.7462   -0.2259    0.4517 C   0  0  0  0  0  0  0  0  0  0  0  0
   -2.5751   -0.0189    1.9024 C   0  0  0  0  0  0  0  0  0  0  0  0
   -1.7541   -0.4320   -0.4750 C   0  0  0  0  0  0  0  0  0  0  0  0
    0.5161   -1.0429    3.5164 H   0  0  0  0  0  0  0  0  0  0  0  0
    1.7980   -0.2718    4.4876 H   0  0  0  0  0  0  0  0  0  0  0  0
    0.7408    0.7326    3.4673 H   0  0  0  0  0  0  0  0  0  0  0  0
    3.8860   -0.1853    3.6791 H   0  0  0  0  0  0  0  0  0  0  0  0
    5.4837   -0.2457    1.8162 H   0  0  0  0  0  0  0  0  0  0  0  0
    6.7795   -0.3551    0.3143 H   0  0  0  0  0  0  0  0  0  0  0  0
    6.8556   -0.4475   -2.7363 H   0  0  0  0  0  0  0  0  0  0  0  0
    9.0259   -1.6227   -2.4415 H   0  0  0  0  0  0  0  0  0  0  0  0
    8.8138   -1.6551   -0.6074 H   0  0  0  0  0  0  0  0  0  0  0  0
    8.6965    0.9128   -0.5505 H   0  0  0  0  0  0  0  0  0  0  0  0
    8.9642    0.9597   -2.3875 H   0  0  0  0  0  0  0  0  0  0  0  0
    2.3675   -0.4577   -1.0008 H   0  0  0  0  0  0  0  0  0  0  0  0
   -0.2419   -0.3926    1.7405 H   0  0  0  0  0  0  0  0  0  0  0  0
    0.2327   -0.9988   -3.5595 H   0  0  0  0  0  0  0  0  0  0  0  0
   -4.4515   -0.4656   -2.2920 H   0  0  0  0  0  0  0  0  0  0  0  0
   -7.8514   -0.2288    0.8020 H   0  0  0  0  0  0  0  0  0  0  0  0
   -9.6566    1.2892   -0.0855 H   0  0  0  0  0  0  0  0  0  0  0  0
   -9.0565    3.2226   -1.4965 H   0  0  0  0  0  0  0  0  0  0  0  0
   -6.6519    3.6238   -2.0068 H   0  0  0  0  0  0  0  0  0  0  0  0
   -4.9587    2.1285   -1.1255 H   0  0  0  0  0  0  0  0  0  0  0  0
   -3.6049    0.2571    2.3142 H   0  0  0  0  0  0  0  0  0  0  0  0
   -2.3152   -0.9177    2.4548 H   0  0  0  0  0  0  0  0  0  0  0  0
   -1.9970    0.9021    2.1496 H   0  0  0  0  0  0  0  0  0  0  0  0
  1  2  1  0
  2  3  2  0
  3  4  1  0
  4  5  2  0
  5  6  1  0
  6  7  2  0
  6  8  1  0
  8  9  1  0
  9 10  1  0
 10 11  1  0
  5 12  1  0
 12 13  2  0
 13 14  1  0
 14 15  1  0
 15 16  2  0
 16 17  1  0
 17 18  2  0
 18 19  1  0
 19 20  1  0
 20 21  2  0
 21 22  1  0
 22 23  2  0
 22 24  1  0
 24 25  2  0
 25 26  1  0
 26 27  2  0
 27 28  1  0
 28 29  2  0
 21 30  1  0
 30 31  1  0
 30 32  2  0
 13  2  1  0
 32 15  1  0
 11  9  1  0
 32 19  1  0
 29 24  1  0
  1 33  1  0
  1 34  1  0
  1 35  1  0
  3 36  1  0
  4 37  1  0
  8 38  1  0
  9 39  1  0
 10 40  1  0
 10 41  1  0
 11 42  1  0
 11 43  1  0
 12 44  1  0
 14 45  1  0
 17 46  1  0
 20 47  1  0
 25 48  1  0
 26 49  1  0
 27 50  1  0
 28 51  1  0
 29 52  1  0
 31 53  1  0
 31 54  1  0
 31 55  1  0
M  END
$$$$
