@<TRIPOS>MOLECULE
*****
 55 59 0 0 0
SMALL
GASTEIGER

@<TRIPOS>ATOM
      1 C           1.2719   -0.2520    3.5273 C.3     1  UNL1       -0.0380
      2 C           2.1972   -0.2918    2.3661 C.ar    1  UNL1       -0.0292
      3 C           3.5382   -0.2477    2.6350 C.ar    1  UNL1       -0.0564
      4 C           4.4191   -0.2823    1.5818 C.ar    1  UNL1       -0.0493
      5 C           4.0106   -0.3592    0.2741 C.ar    1  UNL1        0.0385
      6 C           4.9620   -0.4011   -0.8362 C.2     1  UNL1        0.2443
      7 O           4.5149   -0.4466   -2.0027 O.2     1  UNL1       -0.2702
      8 N           6.3545   -0.3924   -0.6351 N.am    1  UNL1       -0.3085
      9 C           7.3091   -0.4350   -1.7436 C.3     1  UNL1        0.0235
     10 C           8.6185   -1.1028   -1.5293 C.3     1  UNL1       -0.0328
     11 C           8.5781    0.3642   -1.5300 C.3     1  UNL1       -0.0328
     12 C           2.6418   -0.4028    0.0228 C.ar    1  UNL1       -0.0281
     13 C           1.7321   -0.3709    1.0396 C.ar    1  UNL1        0.0361
     14 N           0.3239   -0.4187    0.8727 N.pl3   1  UNL1       -0.2975
     15 C          -0.3856   -0.5203   -0.3408 C.ar    1  UNL1        0.1506
     16 N           0.2909   -0.7258   -1.4894 N.ar    1  UNL1       -0.2167
     17 C          -0.3330   -0.8357   -2.6656 C.ar    1  UNL1        0.1388
     18 N          -1.6718   -0.7467   -2.7698 N.ar    1  UNL1       -0.1548
     19 N          -2.3686   -0.5447   -1.6665 N.ar    1  UNL1       -0.2342
     20 C          -3.7040   -0.4211   -1.5321 C.ar    1  UNL1        0.0411
     21 C          -3.9870   -0.2186   -0.2070 C.ar    1  UNL1        0.0454
     22 C          -5.2568   -0.0440    0.4264 C.2     1  UNL1        0.1949
     23 O          -5.5584   -0.6695    1.4989 O.2     1  UNL1       -0.2866
     24 C          -6.2906    0.8545   -0.1052 C.ar    1  UNL1        0.0223
     25 C          -7.6316    0.6361    0.1764 C.ar    1  UNL1       -0.0509
     26 C          -8.6128    1.4711   -0.3131 C.ar    1  UNL1       -0.0611
     27 C          -8.2977    2.5571   -1.1033 C.ar    1  UNL1       -0.0617
     28 C          -6.9782    2.7842   -1.3893 C.ar    1  UNL1       -0.0611
     29 C          -5.9860    1.9389   -0.8933 C.ar    1  UNL1       -0.0509
     30 C          -2.7462   -0.2259    0.4517 C.ar    1  UNL1       -0.0094
     31 C          -2.5751   -0.0189    1.9024 C.3     1  UNL1       -0.0369
     32 C          -1.7541   -0.4320   -0.4750 C.ar    1  UNL1        0.1089
     33 H           0.5161   -1.0429    3.5164 H       1  UNL1        0.0278
     34 H           1.7980   -0.2718    4.4876 H       1  UNL1        0.0278
     35 H           0.7408    0.7326    3.4673 H       1  UNL1        0.0278
     36 H           3.8860   -0.1853    3.6791 H       1  UNL1        0.0621
     37 H           5.4837   -0.2457    1.8162 H       1  UNL1        0.0625
     38 H           6.7795   -0.3551    0.3143 H       1  UNL1        0.1493
     39 H           6.8556   -0.4475   -2.7363 H       1  UNL1        0.0498
     40 H           9.0259   -1.6227   -2.4415 H       1  UNL1        0.0284
     41 H           8.8138   -1.6551   -0.6074 H       1  UNL1        0.0284
     42 H           8.6965    0.9128   -0.5505 H       1  UNL1        0.0284
     43 H           8.9642    0.9597   -2.3875 H       1  UNL1        0.0284
     44 H           2.3675   -0.4577   -1.0008 H       1  UNL1        0.0644
     45 H          -0.2419   -0.3926    1.7405 H       1  UNL1        0.1536
     46 H           0.2327   -0.9988   -3.5595 H       1  UNL1        0.1066
     47 H          -4.4515   -0.4656   -2.2920 H       1  UNL1        0.0837
     48 H          -7.8514   -0.2288    0.8020 H       1  UNL1        0.0625
     49 H          -9.6566    1.2892   -0.0855 H       1  UNL1        0.0618
     50 H          -9.0565    3.2226   -1.4965 H       1  UNL1        0.0618
     51 H          -6.6519    3.6238   -2.0068 H       1  UNL1        0.0618
     52 H          -4.9587    2.1285   -1.1255 H       1  UNL1        0.0625
     53 H          -3.6049    0.2571    2.3142 H       1  UNL1        0.0278
     54 H          -2.3152   -0.9177    2.4548 H       1  UNL1        0.0278
     55 H          -1.9970    0.9021    2.1496 H       1  UNL1        0.0278
@<TRIPOS>BOND
     1     1     2    1
     2     2     3   ar
     3     3     4   ar
     4     4     5   ar
     5     5     6    1
     6     6     7    2
     7     6     8   am
     8     8     9    1
     9     9    10    1
    10    10    11    1
    11     5    12   ar
    12    12    13   ar
    13    13    14    1
    14    14    15    1
    15    15    16   ar
    16    16    17   ar
    17    17    18   ar
    18    18    19   ar
    19    19    20   ar
    20    20    21   ar
    21    21    22    1
    22    22    23    2
    23    22    24    1
    24    24    25   ar
    25    25    26   ar
    26    26    27   ar
    27    27    28   ar
    28    28    29   ar
    29    21    30   ar
    30    30    31    1
    31    30    32   ar
    32    13     2   ar
    33    32    15   ar
    34    11     9    1
    35    32    19   ar
    36    29    24   ar
    37     1    33    1
    38     1    34    1
    39     1    35    1
    40     3    36    1
    41     4    37    1
    42     8    38    1
    43     9    39    1
    44    10    40    1
    45    10    41    1
    46    11    42    1
    47    11    43    1
    48    12    44    1
    49    14    45    1
    50    17    46    1
    51    20    47    1
    52    25    48    1
    53    26    49    1
    54    27    50    1
    55    28    51    1
    56    29    52    1
    57    31    53    1
    58    31    54    1
    59    31    55    1
