
     RDKit          3D

 40 42  0  0  0  0  0  0  0  0999 V2000
    3.4241   -0.0779    2.5130 C   0  0  0  0  0  0  0  0  0  0  0  0
    3.3392    0.0792    1.0747 N   0  0  0  0  0  0  0  0  0  0  0  0
    2.1011    0.0661    0.4331 C   0  0  0  0  0  0  0  0  0  0  0  0
    2.0294    0.2024   -0.8126 O   0  0  0  0  0  0  0  0  0  0  0  0
    0.8803   -0.0933    1.0935 O   0  0  0  0  0  0  0  0  0  0  0  0
   -0.3085   -0.0969    0.3980 C   0  0  0  0  0  0  0  0  0  0  0  0
   -0.8376   -1.2698   -0.0920 C   0  0  0  0  0  0  0  0  0  0  0  0
   -2.0484   -1.2657   -0.7992 C   0  0  0  0  0  0  0  0  0  0  0  0
   -2.7024   -0.0792   -0.9987 C   0  0  0  0  0  0  0  0  0  0  0  0
   -3.8898   -0.0760   -1.6923 O   0  0  0  0  0  0  0  0  0  0  0  0
   -5.0701   -0.2376   -0.9605 C   0  0  0  0  0  0  0  0  0  0  0  0
   -6.3050   -0.2456   -1.5837 C   0  0  0  0  0  0  0  0  0  0  0  0
   -7.4633   -0.4058   -0.8519 C   0  0  0  0  0  0  0  0  0  0  0  0
   -7.4153   -0.5622    0.5242 C   0  0  0  0  0  0  0  0  0  0  0  0
   -8.8869   -0.7687    1.4797 Cl  0  0  0  0  0  0  0  0  0  0  0  0
   -6.1702   -0.5497    1.1151 C   0  0  0  0  0  0  0  0  0  0  0  0
   -5.0714   -0.3925    0.3755 N   0  0  0  0  0  0  0  0  0  0  0  0
   -2.1926    1.0946   -0.5198 C   0  0  0  0  0  0  0  0  0  0  0  0
   -0.9903    1.0779    0.1805 C   0  0  0  0  0  0  0  0  0  0  0  0
    4.5201    0.2526    0.2665 C   0  0  0  0  0  0  0  0  0  0  0  0
    5.1946   -0.8002   -0.2704 C   0  0  0  0  0  0  0  0  0  0  0  0
    6.3120   -0.6069   -1.0332 C   0  0  0  0  0  0  0  0  0  0  0  0
    6.7594    0.6863   -1.2593 C   0  0  0  0  0  0  0  0  0  0  0  0
    6.0924    1.7524   -0.7269 C   0  0  0  0  0  0  0  0  0  0  0  0
    4.9747    1.5332    0.0345 C   0  0  0  0  0  0  0  0  0  0  0  0
    3.7683   -1.1109    2.7653 H   0  0  0  0  0  0  0  0  0  0  0  0
    2.4301    0.0992    2.9502 H   0  0  0  0  0  0  0  0  0  0  0  0
    4.1188    0.6949    2.9106 H   0  0  0  0  0  0  0  0  0  0  0  0
   -0.3042   -2.1872    0.0785 H   0  0  0  0  0  0  0  0  0  0  0  0
   -2.3915   -2.2290   -1.1482 H   0  0  0  0  0  0  0  0  0  0  0  0
   -6.2966   -0.1198   -2.6645 H   0  0  0  0  0  0  0  0  0  0  0  0
   -8.4230   -0.4076   -1.3751 H   0  0  0  0  0  0  0  0  0  0  0  0
   -6.1208   -0.6700    2.1804 H   0  0  0  0  0  0  0  0  0  0  0  0
   -2.7334    2.0062   -0.6955 H   0  0  0  0  0  0  0  0  0  0  0  0
   -0.5645    1.9897    0.5699 H   0  0  0  0  0  0  0  0  0  0  0  0
    4.8352   -1.8077   -0.0867 H   0  0  0  0  0  0  0  0  0  0  0  0
    6.8676   -1.4494   -1.4737 H   0  0  0  0  0  0  0  0  0  0  0  0
    7.6430    0.8183   -1.8639 H   0  0  0  0  0  0  0  0  0  0  0  0
    6.4608    2.7610   -0.9167 H   0  0  0  0  0  0  0  0  0  0  0  0
    4.4344    2.3956    0.4657 H   0  0  0  0  0  0  0  0  0  0  0  0
  1  2  1  0
  2  3  1  0
  3  4  2  0
  3  5  1  0
  5  6  1  0
  6  7  2  0
  7  8  1  0
  8  9  2  0
  9 10  1  0
 10 11  1  0
 11 12  2  0
 12 13  1  0
 13 14  2  0
 14 15  1  0
 14 16  1  0
 16 17  2  0
  9 18  1  0
 18 19  2  0
  2 20  1  0
 20 21  2  0
 21 22  1  0
 22 23  2  0
 23 24  1  0
 24 25  2  0
 19  6  1  0
 25 20  1  0
 17 11  1  0
  1 26  1  0
  1 27  1  0
  1 28  1  0
  7 29  1  0
  8 30  1  0
 12 31  1  0
 13 32  1  0
 16 33  1  0
 18 34  1  0
 19 35  1  0
 21 36  1  0
 22 37  1  0
 23 38  1  0
 24 39  1  0
 25 40  1  0
M  END
$$$$
