@<TRIPOS>MOLECULE
*****
 40 42 0 0 0
SMALL
GASTEIGER

@<TRIPOS>ATOM
      1 C           3.4241   -0.0779    2.5130 C.3     1  UNL1        0.0115
      2 N           3.3392    0.0792    1.0747 N.am    1  UNL1       -0.2400
      3 C           2.1011    0.0661    0.4331 C.2     1  UNL1        0.4123
      4 O           2.0294    0.2024   -0.8126 O.2     1  UNL1       -0.2254
      5 O           0.8803   -0.0933    1.0935 O.3     1  UNL1       -0.4112
      6 C          -0.3085   -0.0969    0.3980 C.ar    1  UNL1        0.1335
      7 C          -0.8376   -1.2698   -0.0920 C.ar    1  UNL1       -0.0157
      8 C          -2.0484   -1.2657   -0.7992 C.ar    1  UNL1       -0.0158
      9 C          -2.7024   -0.0792   -0.9987 C.ar    1  UNL1        0.1306
     10 O          -3.8898   -0.0760   -1.6923 O.3     1  UNL1       -0.4380
     11 C          -5.0701   -0.2376   -0.9605 C.ar    1  UNL1        0.2205
     12 C          -6.3050   -0.2456   -1.5837 C.ar    1  UNL1        0.0018
     13 C          -7.4633   -0.4058   -0.8519 C.ar    1  UNL1       -0.0369
     14 C          -7.4153   -0.5622    0.5242 C.ar    1  UNL1        0.0593
     15 CL         -8.8869   -0.7687    1.4797 Cl      1  UNL1       -0.0820
     16 C          -6.1702   -0.5497    1.1151 C.ar    1  UNL1        0.0497
     17 N          -5.0714   -0.3925    0.3755 N.ar    1  UNL1       -0.2195
     18 C          -2.1926    1.0946   -0.5198 C.ar    1  UNL1       -0.0158
     19 C          -0.9903    1.0779    0.1805 C.ar    1  UNL1       -0.0157
     20 C           4.5201    0.2526    0.2665 C.ar    1  UNL1        0.0391
     21 C           5.1946   -0.8002   -0.2704 C.ar    1  UNL1       -0.0402
     22 C           6.3120   -0.6069   -1.0332 C.ar    1  UNL1       -0.0600
     23 C           6.7594    0.6863   -1.2593 C.ar    1  UNL1       -0.0616
     24 C           6.0924    1.7524   -0.7269 C.ar    1  UNL1       -0.0600
     25 C           4.9747    1.5332    0.0345 C.ar    1  UNL1       -0.0402
     26 H           3.7683   -1.1109    2.7653 H       1  UNL1        0.0434
     27 H           2.4301    0.0992    2.9502 H       1  UNL1        0.0434
     28 H           4.1188    0.6949    2.9106 H       1  UNL1        0.0434
     29 H          -0.3042   -2.1872    0.0785 H       1  UNL1        0.0655
     30 H          -2.3915   -2.2290   -1.1482 H       1  UNL1        0.0655
     31 H          -6.2966   -0.1198   -2.6645 H       1  UNL1        0.0671
     32 H          -8.4230   -0.4076   -1.3751 H       1  UNL1        0.0634
     33 H          -6.1208   -0.6700    2.1804 H       1  UNL1        0.0846
     34 H          -2.7334    2.0062   -0.6955 H       1  UNL1        0.0655
     35 H          -0.5645    1.9897    0.5699 H       1  UNL1        0.0655
     36 H           4.8352   -1.8077   -0.0867 H       1  UNL1        0.0636
     37 H           6.8676   -1.4494   -1.4737 H       1  UNL1        0.0618
     38 H           7.6430    0.8183   -1.8639 H       1  UNL1        0.0618
     39 H           6.4608    2.7610   -0.9167 H       1  UNL1        0.0618
     40 H           4.4344    2.3956    0.4657 H       1  UNL1        0.0636
@<TRIPOS>BOND
     1     1     2    1
     2     2     3   am
     3     3     4    2
     4     3     5    1
     5     5     6    1
     6     6     7   ar
     7     7     8   ar
     8     8     9   ar
     9     9    10    1
    10    10    11    1
    11    11    12   ar
    12    12    13   ar
    13    13    14   ar
    14    14    15    1
    15    14    16   ar
    16    16    17   ar
    17     9    18   ar
    18    18    19   ar
    19     2    20    1
    20    20    21   ar
    21    21    22   ar
    22    22    23   ar
    23    23    24   ar
    24    24    25   ar
    25    19     6   ar
    26    25    20   ar
    27    17    11   ar
    28     1    26    1
    29     1    27    1
    30     1    28    1
    31     7    29    1
    32     8    30    1
    33    12    31    1
    34    13    32    1
    35    16    33    1
    36    18    34    1
    37    19    35    1
    38    21    36    1
    39    22    37    1
    40    23    38    1
    41    24    39    1
    42    25    40    1
