@<TRIPOS>MOLECULE
*****
 33 36 0 0 0
SMALL
GASTEIGER

@<TRIPOS>ATOM
      1 O          -1.0413    3.4718   -1.1365 O.2     1  UNL1       -0.2751
      2 C          -1.2301    2.4448   -0.3990 C.2     1  UNL1        0.2216
      3 C          -0.1263    2.0271    0.5002 C.3     1  UNL1        0.0520
      4 C           0.2906    0.6205    0.2711 C.ar    1  UNL1       -0.0054
      5 C          -0.4997   -0.5110    0.0788 C.ar    1  UNL1        0.0529
      6 N           0.2691   -1.5921   -0.0967 N.ar    1  UNL1       -0.3539
      7 C           1.5588   -1.1653   -0.0185 C.ar    1  UNL1        0.0476
      8 C           2.7662   -1.8318   -0.1225 C.ar    1  UNL1       -0.0314
      9 C           3.9709   -1.1632   -0.0046 C.ar    1  UNL1        0.0176
     10 C           4.0124    0.2050    0.2230 C.ar    1  UNL1        0.2738
     11 N           5.2414    0.8953    0.3446 N.pl3   1  UNL1        0.0796
     12 O           5.2212    2.1169    0.5473 O.2     1  UNL1        0.0414
     13 O           6.4104    0.1983    0.2355 O.co2   1  UNL1       -0.5760
     14 C           2.7858    0.8503    0.3233 C.ar    1  UNL1        0.0250
     15 C           1.5923    0.1867    0.2063 C.ar    1  UNL1        0.0103
     16 C          -1.9518   -0.5840    0.0593 C.ar    1  UNL1        0.0198
     17 C          -2.4019   -1.8452    0.3590 C.ar    1  UNL1       -0.0508
     18 C          -3.7885   -2.0431    0.3690 C.ar    1  UNL1       -0.0610
     19 C          -4.6449   -0.9979    0.0860 C.ar    1  UNL1       -0.0600
     20 C          -4.1837    0.2526   -0.2105 C.ar    1  UNL1       -0.0398
     21 C          -2.8131    0.4525   -0.2214 C.ar    1  UNL1        0.0426
     22 N          -2.5126    1.8291   -0.5504 N.am    1  UNL1       -0.2847
     23 H           0.7221    2.7111    0.3076 H       1  UNL1        0.0408
     24 H          -0.5005    2.1417    1.5590 H       1  UNL1        0.0408
     25 H           0.0204   -2.5831   -0.2657 H       1  UNL1        0.1659
     26 H           2.7963   -2.9102   -0.3015 H       1  UNL1        0.0640
     27 H           4.8785   -1.7324   -0.0940 H       1  UNL1        0.0686
     28 H           2.8492    1.9333    0.5037 H       1  UNL1        0.0692
     29 H          -1.7553   -2.6751    0.5866 H       1  UNL1        0.0625
     30 H          -4.1388   -3.0422    0.6064 H       1  UNL1        0.0618
     31 H          -5.6961   -1.1773    0.1008 H       1  UNL1        0.0618
     32 H          -4.8160    1.1010   -0.4383 H       1  UNL1        0.0636
     33 H          -3.2849    2.4158   -0.9248 H       1  UNL1        0.1548
@<TRIPOS>UNITY_ATOM_ATTR
11 1
charge 1
13 1
charge -1
@<TRIPOS>BOND
     1     1     2    2
     2     2     3    1
     3     3     4    1
     4     4     5   ar
     5     5     6   ar
     6     6     7   ar
     7     7     8   ar
     8     8     9   ar
     9     9    10   ar
    10    10    11    1
    11    11    12    2
    12    11    13    1
    13    10    14   ar
    14    14    15   ar
    15     5    16    1
    16    16    17   ar
    17    17    18   ar
    18    18    19   ar
    19    19    20   ar
    20    20    21   ar
    21    21    22    1
    22    22     2   am
    23    15     4   ar
    24    21    16   ar
    25    15     7   ar
    26     3    23    1
    27     3    24    1
    28     6    25    1
    29     8    26    1
    30     9    27    1
    31    14    28    1
    32    17    29    1
    33    18    30    1
    34    19    31    1
    35    20    32    1
    36    22    33    1
