
     RDKit          3D

 33 36  0  0  0  0  0  0  0  0999 V2000
   -1.0413    3.4718   -1.1365 O   0  0  0  0  0  0  0  0  0  0  0  0
   -1.2301    2.4448   -0.3990 C   0  0  0  0  0  0  0  0  0  0  0  0
   -0.1263    2.0271    0.5002 C   0  0  0  0  0  0  0  0  0  0  0  0
    0.2906    0.6205    0.2711 C   0  0  0  0  0  0  0  0  0  0  0  0
   -0.4997   -0.5110    0.0788 C   0  0  0  0  0  0  0  0  0  0  0  0
    0.2691   -1.5921   -0.0967 N   0  0  0  0  0  0  0  0  0  0  0  0
    1.5588   -1.1653   -0.0185 C   0  0  0  0  0  0  0  0  0  0  0  0
    2.7662   -1.8318   -0.1225 C   0  0  0  0  0  0  0  0  0  0  0  0
    3.9709   -1.1632   -0.0046 C   0  0  0  0  0  0  0  0  0  0  0  0
    4.0124    0.2050    0.2230 C   0  0  0  0  0  0  0  0  0  0  0  0
    5.2414    0.8953    0.3446 N   0  0  0  0  0  4  0  0  0  0  0  0
    5.2212    2.1169    0.5473 O   0  0  0  0  0  0  0  0  0  0  0  0
    6.4104    0.1983    0.2355 O   0  0  0  0  0  1  0  0  0  0  0  0
    2.7858    0.8503    0.3233 C   0  0  0  0  0  0  0  0  0  0  0  0
    1.5923    0.1867    0.2063 C   0  0  0  0  0  0  0  0  0  0  0  0
   -1.9518   -0.5840    0.0593 C   0  0  0  0  0  0  0  0  0  0  0  0
   -2.4019   -1.8452    0.3590 C   0  0  0  0  0  0  0  0  0  0  0  0
   -3.7885   -2.0431    0.3690 C   0  0  0  0  0  0  0  0  0  0  0  0
   -4.6449   -0.9979    0.0860 C   0  0  0  0  0  0  0  0  0  0  0  0
   -4.1837    0.2526   -0.2105 C   0  0  0  0  0  0  0  0  0  0  0  0
   -2.8131    0.4525   -0.2214 C   0  0  0  0  0  0  0  0  0  0  0  0
   -2.5126    1.8291   -0.5504 N   0  0  0  0  0  0  0  0  0  0  0  0
    0.7221    2.7111    0.3076 H   0  0  0  0  0  0  0  0  0  0  0  0
   -0.5005    2.1417    1.5590 H   0  0  0  0  0  0  0  0  0  0  0  0
    0.0204   -2.5831   -0.2657 H   0  0  0  0  0  0  0  0  0  0  0  0
    2.7963   -2.9102   -0.3015 H   0  0  0  0  0  0  0  0  0  0  0  0
    4.8785   -1.7324   -0.0940 H   0  0  0  0  0  0  0  0  0  0  0  0
    2.8492    1.9333    0.5037 H   0  0  0  0  0  0  0  0  0  0  0  0
   -1.7553   -2.6751    0.5866 H   0  0  0  0  0  0  0  0  0  0  0  0
   -4.1388   -3.0422    0.6064 H   0  0  0  0  0  0  0  0  0  0  0  0
   -5.6961   -1.1773    0.1008 H   0  0  0  0  0  0  0  0  0  0  0  0
   -4.8160    1.1010   -0.4383 H   0  0  0  0  0  0  0  0  0  0  0  0
   -3.2849    2.4158   -0.9248 H   0  0  0  0  0  0  0  0  0  0  0  0
  1  2  2  0
  2  3  1  0
  3  4  1  0
  4  5  2  0
  5  6  1  0
  6  7  1  0
  7  8  2  0
  8  9  1  0
  9 10  2  0
 10 11  1  0
 11 12  2  0
 11 13  1  0
 10 14  1  0
 14 15  2  0
  5 16  1  0
 16 17  2  0
 17 18  1  0
 18 19  2  0
 19 20  1  0
 20 21  2  0
 21 22  1  0
 22  2  1  0
 15  4  1  0
 21 16  1  0
 15  7  1  0
  3 23  1  0
  3 24  1  0
  6 25  1  0
  8 26  1  0
  9 27  1  0
 14 28  1  0
 17 29  1  0
 18 30  1  0
 19 31  1  0
 20 32  1  0
 22 33  1  0
M  CHG  2  11   1  13  -1
M  END
$$$$
