@<TRIPOS>MOLECULE
*****
 58 63 0 0 0
SMALL
GASTEIGER

@<TRIPOS>ATOM
      1 O          -3.5415   -1.9937   -0.4208 O.2     1  UNL1       -0.2700
      2 C          -4.3047   -0.9531   -0.3886 C.2     1  UNL1        0.2494
      3 N          -5.6363   -1.2213   -0.0572 N.am    1  UNL1       -0.3084
      4 C          -6.1302   -2.5759    0.2316 C.3     1  UNL1        0.0235
      5 C          -7.5212   -2.9379   -0.1439 C.3     1  UNL1       -0.0328
      6 C          -7.1450   -2.7255    1.3049 C.3     1  UNL1       -0.0328
      7 C          -3.7110    0.3277   -0.6898 C.ar    1  UNL1        0.1004
      8 C          -2.3532    0.4221   -1.0040 C.ar    1  UNL1        0.0276
      9 N          -1.7363    1.5702   -1.2928 N.ar    1  UNL1       -0.2999
     10 C          -0.3479    1.5276   -1.5958 C.ar    1  UNL1        0.0486
     11 C           0.1368    2.1615   -2.7239 C.ar    1  UNL1       -0.0378
     12 C           1.4730    2.1578   -3.0743 C.ar    1  UNL1       -0.0592
     13 C           2.3542    1.4837   -2.2473 C.ar    1  UNL1       -0.0539
     14 C           1.9176    0.8351   -1.1089 C.ar    1  UNL1       -0.0158
     15 C           2.8902    0.1353   -0.2659 C.ar    1  UNL1       -0.0151
     16 C           2.7051    0.0306    1.1081 C.ar    1  UNL1       -0.0536
     17 C           3.6319   -0.6320    1.8845 C.ar    1  UNL1       -0.0550
     18 C           4.7724   -1.2169    1.3527 C.ar    1  UNL1       -0.0083
     19 C           5.6975   -1.8871    2.2588 C.3     1  UNL1        0.0005
     20 C           6.7056   -1.1646    3.0713 C.3     1  UNL1       -0.0319
     21 C           7.1485   -1.9566    1.8905 C.3     1  UNL1        0.0637
     22 C           7.7695   -3.2822    2.1366 C.2     1  UNL1        0.3084
     23 O           8.6372   -3.7062    1.3439 O.2     1  UNL1       -0.2507
     24 O           7.4262   -4.0734    3.2134 O.3     1  UNL1       -0.4804
     25 C           4.9446   -1.1071   -0.0092 C.ar    1  UNL1        0.1274
     26 F           6.0018   -1.6405   -0.6329 F       1  UNL1       -0.2052
     27 C           4.0211   -0.4449   -0.7937 C.ar    1  UNL1       -0.0185
     28 C           0.5642    0.8687   -0.8009 C.ar    1  UNL1       -0.0301
     29 C          -2.4600    2.6873   -1.2796 C.ar    1  UNL1        0.1488
     30 N          -1.8795    3.8686   -1.5647 N.ar    1  UNL1       -0.2368
     31 C          -2.5449    5.0318   -1.5706 C.ar    1  UNL1        0.0299
     32 C          -3.8891    5.0695   -1.2768 C.ar    1  UNL1       -0.0428
     33 C          -4.5273    3.8925   -0.9794 C.ar    1  UNL1       -0.0459
     34 C          -3.8059    2.7235   -0.9852 C.ar    1  UNL1        0.0652
     35 C          -4.4238    1.4867   -0.6845 C.ar    1  UNL1        0.2030
     36 O          -5.6318    1.5172   -0.4201 O.2     1  UNL1       -0.2863
     37 H          -6.3247   -0.4736   -0.0031 H       1  UNL1        0.1493
     38 H          -5.3360   -3.3438    0.1567 H       1  UNL1        0.0498
     39 H          -8.1465   -2.2108   -0.6727 H       1  UNL1        0.0284
     40 H          -7.6815   -3.9962   -0.4806 H       1  UNL1        0.0284
     41 H          -7.5678   -1.7804    1.7372 H       1  UNL1        0.0284
     42 H          -7.0962   -3.6056    1.9609 H       1  UNL1        0.0284
     43 H          -1.7973   -0.5137   -1.0039 H       1  UNL1        0.0822
     44 H          -0.5818    2.6832   -3.3541 H       1  UNL1        0.0638
     45 H           1.8554    2.6571   -3.9630 H       1  UNL1        0.0618
     46 H           3.4207    1.4414   -2.4651 H       1  UNL1        0.0624
     47 H           1.8199    0.4818    1.5390 H       1  UNL1        0.0624
     48 H           3.4614   -0.7004    2.9700 H       1  UNL1        0.0621
     49 H           5.2402   -2.7791    2.7854 H       1  UNL1        0.0358
     50 H           6.7490   -0.0484    3.0629 H       1  UNL1        0.0279
     51 H           6.9996   -1.5865    4.0535 H       1  UNL1        0.0279
     52 H           7.5266   -1.4425    0.9895 H       1  UNL1        0.0419
     53 H           7.9164   -4.9665    3.3749 H       1  UNL1        0.2951
     54 H           4.1788   -0.3727   -1.8552 H       1  UNL1        0.0652
     55 H           0.2126    0.3708    0.0774 H       1  UNL1        0.0644
     56 H          -2.0497    5.9655   -1.8041 H       1  UNL1        0.0830
     57 H          -4.4344    6.0329   -1.2830 H       1  UNL1        0.0633
     58 H          -5.5727    3.9087   -0.7493 H       1  UNL1        0.0626
@<TRIPOS>BOND
     1     1     2    2
     2     2     3   am
     3     3     4    1
     4     4     5    1
     5     5     6    1
     6     2     7    1
     7     7     8   ar
     8     8     9   ar
     9     9    10    1
    10    10    11   ar
    11    11    12   ar
    12    12    13   ar
    13    13    14   ar
    14    14    15    1
    15    15    16   ar
    16    16    17   ar
    17    17    18   ar
    18    18    19    1
    19    19    20    1
    20    20    21    1
    21    21    22    1
    22    22    23    2
    23    22    24    1
    24    18    25   ar
    25    25    26    1
    26    25    27   ar
    27    14    28   ar
    28     9    29   ar
    29    29    30   ar
    30    30    31   ar
    31    31    32   ar
    32    32    33   ar
    33    33    34   ar
    34    34    35   ar
    35    35    36    2
    36     6     4    1
    37    35     7   ar
    38    28    10   ar
    39    34    29   ar
    40    27    15   ar
    41    21    19    1
    42     3    37    1
    43     4    38    1
    44     5    39    1
    45     5    40    1
    46     6    41    1
    47     6    42    1
    48     8    43    1
    49    11    44    1
    50    12    45    1
    51    13    46    1
    52    16    47    1
    53    17    48    1
    54    19    49    1
    55    20    50    1
    56    20    51    1
    57    21    52    1
    58    24    53    1
    59    27    54    1
    60    28    55    1
    61    31    56    1
    62    32    57    1
    63    33    58    1
