@<TRIPOS>MOLECULE
*****
 76 78 0 0 0
SMALL
GASTEIGER

@<TRIPOS>ATOM
      1 C          -7.2503    0.9250   -2.1386 C.3     1  UNL1        0.0364
      2 O          -6.2794    1.0356   -1.1566 O.3     1  UNL1       -0.3829
      3 C          -6.3211    2.2502   -0.5067 C.3     1  UNL1        0.0504
      4 C          -5.2170    2.2780    0.5513 C.3     1  UNL1        0.0049
      5 C          -5.4407    1.1676    1.5343 C.3     1  UNL1        0.0918
      6 O          -5.4550   -0.1102    1.0595 O.3     1  UNL1       -0.4882
      7 C          -4.5291   -0.8959    0.4336 C.ar    1  UNL1        0.1626
      8 C          -3.2297   -0.5336    0.1407 C.ar    1  UNL1       -0.0042
      9 C          -2.3333   -1.3657   -0.4950 C.ar    1  UNL1        0.0406
     10 C          -0.9571   -0.9727   -0.7989 C.2     1  UNL1        0.2470
     11 O          -0.7744   -0.5656   -1.9918 O.2     1  UNL1       -0.2700
     12 N           0.1305   -1.0056    0.0750 N.am    1  UNL1       -0.2946
     13 C           1.4222   -0.5625   -0.3852 C.3     1  UNL1        0.0227
     14 C           1.7646    0.8563   -0.1366 C.3     1  UNL1        0.0257
     15 C           0.8378    1.8545   -0.7741 C.3     1  UNL1        0.0037
     16 N           1.2538    1.9963   -2.1339 N.3     1  UNL1       -0.3120
     17 C           2.5408    1.4045   -2.2834 C.3     1  UNL1        0.0335
     18 C           3.0607    1.1478   -0.9108 C.3     1  UNL1        0.1224
     19 O           3.7900    2.1737   -0.3467 O.3     1  UNL1       -0.4454
     20 C           5.0852    1.9571    0.1121 C.2     1  UNL1        0.4008
     21 O           5.5131    0.7905   -0.0315 O.2     1  UNL1       -0.2265
     22 N           5.8836    2.9378    0.6958 N.am    1  UNL1       -0.2770
     23 C           7.2157    2.7106    1.1671 C.3     1  UNL1        0.0400
     24 C           7.6142    1.3156    0.8968 C.ar    1  UNL1       -0.0302
     25 C           8.2173    0.9576   -0.2995 C.ar    1  UNL1       -0.0571
     26 C           8.6043   -0.3369   -0.5522 C.ar    1  UNL1       -0.0615
     27 C           8.4071   -1.3416    0.3809 C.ar    1  UNL1       -0.0617
     28 C           7.8154   -1.0095    1.5643 C.ar    1  UNL1       -0.0615
     29 C           7.4343    0.2814    1.8053 C.ar    1  UNL1       -0.0571
     30 C           0.0545   -1.4529    1.4428 C.3     1  UNL1        0.0207
     31 C          -0.4024   -2.9116    1.4079 C.3     1  UNL1       -0.0467
     32 C          -0.8962   -0.6988    2.2993 C.3     1  UNL1       -0.0467
     33 C          -2.7947   -2.6175   -0.8414 C.ar    1  UNL1       -0.0459
     34 C          -4.0890   -2.9950   -0.5562 C.ar    1  UNL1       -0.0156
     35 C          -4.9881   -2.1757    0.0755 C.ar    1  UNL1        0.1615
     36 O          -6.2898   -2.5646    0.3587 O.3     1  UNL1       -0.4915
     37 C          -6.7899   -3.8416    0.0157 C.3     1  UNL1        0.0790
     38 H          -7.1143    1.7262   -2.9133 H       1  UNL1        0.0523
     39 H          -8.2730    1.0234   -1.7220 H       1  UNL1        0.0523
     40 H          -7.1061   -0.0295   -2.6728 H       1  UNL1        0.0523
     41 H          -7.2881    2.4212    0.0122 H       1  UNL1        0.0561
     42 H          -6.1444    3.0916   -1.2091 H       1  UNL1        0.0561
     43 H          -4.2388    2.2820    0.0899 H       1  UNL1        0.0320
     44 H          -5.3895    3.2699    1.0773 H       1  UNL1        0.0320
     45 H          -4.5898    1.2287    2.2894 H       1  UNL1        0.0697
     46 H          -6.3307    1.4326    2.1624 H       1  UNL1        0.0697
     47 H          -2.8763    0.4479    0.4243 H       1  UNL1        0.0663
     48 H           1.4747   -0.7429   -1.5018 H       1  UNL1        0.0469
     49 H           2.2561   -1.1851    0.0081 H       1  UNL1        0.0469
     50 H           1.9251    1.0823    0.9493 H       1  UNL1        0.0365
     51 H          -0.2324    1.6679   -0.6110 H       1  UNL1        0.0428
     52 H           1.0197    2.8185   -0.1899 H       1  UNL1        0.0428
     53 H           0.5569    1.6630   -2.7935 H       1  UNL1        0.1221
     54 H           3.2361    1.9967   -2.9172 H       1  UNL1        0.0460
     55 H           2.4572    0.4315   -2.8112 H       1  UNL1        0.0460
     56 H           3.6664    0.2202   -0.9229 H       1  UNL1        0.0751
     57 H           5.4715    3.9190    0.7965 H       1  UNL1        0.1523
     58 H           7.9542    3.4119    0.7145 H       1  UNL1        0.0513
     59 H           7.3161    2.8718    2.2662 H       1  UNL1        0.0513
     60 H           8.3924    1.6988   -1.0570 H       1  UNL1        0.0621
     61 H           9.0789   -0.6259   -1.4927 H       1  UNL1        0.0618
     62 H           8.7278   -2.3711    0.1499 H       1  UNL1        0.0618
     63 H           7.6489   -1.7645    2.3078 H       1  UNL1        0.0618
     64 H           6.9545    0.5900    2.7472 H       1  UNL1        0.0621
     65 H           1.0739   -1.3876    1.9239 H       1  UNL1        0.0495
     66 H           0.2331   -3.4809    2.1235 H       1  UNL1        0.0247
     67 H          -1.4699   -3.0205    1.6889 H       1  UNL1        0.0247
     68 H          -0.2918   -3.3589    0.3991 H       1  UNL1        0.0247
     69 H          -0.4049   -0.5658    3.3101 H       1  UNL1        0.0247
     70 H          -1.0697    0.3461    1.9709 H       1  UNL1        0.0247
     71 H          -1.8195   -1.2582    2.5438 H       1  UNL1        0.0247
     72 H          -2.0904   -3.2747   -1.3425 H       1  UNL1        0.0626
     73 H          -4.4377   -3.9994   -0.8418 H       1  UNL1        0.0655
     74 H          -6.0605   -4.6635    0.1943 H       1  UNL1        0.0660
     75 H          -7.1360   -3.8939   -1.0369 H       1  UNL1        0.0660
     76 H          -7.6875   -4.1018    0.6296 H       1  UNL1        0.0660
@<TRIPOS>BOND
     1     1     2    1
     2     2     3    1
     3     3     4    1
     4     4     5    1
     5     5     6    1
     6     6     7    1
     7     7     8   ar
     8     8     9   ar
     9     9    10    1
    10    10    11    2
    11    10    12   am
    12    12    13    1
    13    13    14    1
    14    14    15    1
    15    15    16    1
    16    16    17    1
    17    17    18    1
    18    18    19    1
    19    19    20    1
    20    20    21    2
    21    20    22   am
    22    22    23    1
    23    23    24    1
    24    24    25   ar
    25    25    26   ar
    26    26    27   ar
    27    27    28   ar
    28    28    29   ar
    29    12    30    1
    30    30    31    1
    31    30    32    1
    32     9    33   ar
    33    33    34   ar
    34    34    35   ar
    35    35    36    1
    36    36    37    1
    37    35     7   ar
    38    18    14    1
    39    29    24   ar
    40     1    38    1
    41     1    39    1
    42     1    40    1
    43     3    41    1
    44     3    42    1
    45     4    43    1
    46     4    44    1
    47     5    45    1
    48     5    46    1
    49     8    47    1
    50    13    48    1
    51    13    49    1
    52    14    50    1
    53    15    51    1
    54    15    52    1
    55    16    53    1
    56    17    54    1
    57    17    55    1
    58    18    56    1
    59    22    57    1
    60    23    58    1
    61    23    59    1
    62    25    60    1
    63    26    61    1
    64    27    62    1
    65    28    63    1
    66    29    64    1
    67    30    65    1
    68    31    66    1
    69    31    67    1
    70    31    68    1
    71    32    69    1
    72    32    70    1
    73    32    71    1
    74    33    72    1
    75    34    73    1
    76    37    74    1
    77    37    75    1
    78    37    76    1
