
     RDKit          3D

 76 78  0  0  0  0  0  0  0  0999 V2000
   -7.2503    0.9250   -2.1386 C   0  0  0  0  0  0  0  0  0  0  0  0
   -6.2794    1.0356   -1.1566 O   0  0  0  0  0  0  0  0  0  0  0  0
   -6.3211    2.2502   -0.5067 C   0  0  0  0  0  0  0  0  0  0  0  0
   -5.2170    2.2780    0.5513 C   0  0  0  0  0  0  0  0  0  0  0  0
   -5.4407    1.1676    1.5343 C   0  0  0  0  0  0  0  0  0  0  0  0
   -5.4550   -0.1102    1.0595 O   0  0  0  0  0  0  0  0  0  0  0  0
   -4.5291   -0.8959    0.4336 C   0  0  0  0  0  0  0  0  0  0  0  0
   -3.2297   -0.5336    0.1407 C   0  0  0  0  0  0  0  0  0  0  0  0
   -2.3333   -1.3657   -0.4950 C   0  0  0  0  0  0  0  0  0  0  0  0
   -0.9571   -0.9727   -0.7989 C   0  0  0  0  0  0  0  0  0  0  0  0
   -0.7744   -0.5656   -1.9918 O   0  0  0  0  0  0  0  0  0  0  0  0
    0.1305   -1.0056    0.0750 N   0  0  0  0  0  0  0  0  0  0  0  0
    1.4222   -0.5625   -0.3852 C   0  0  0  0  0  0  0  0  0  0  0  0
    1.7646    0.8563   -0.1366 C   0  0  2  0  0  0  0  0  0  0  0  0
    0.8378    1.8545   -0.7741 C   0  0  0  0  0  0  0  0  0  0  0  0
    1.2538    1.9963   -2.1339 N   0  0  0  0  0  0  0  0  0  0  0  0
    2.5408    1.4045   -2.2834 C   0  0  0  0  0  0  0  0  0  0  0  0
    3.0607    1.1478   -0.9108 C   0  0  1  0  0  0  0  0  0  0  0  0
    3.7900    2.1737   -0.3467 O   0  0  0  0  0  0  0  0  0  0  0  0
    5.0852    1.9571    0.1121 C   0  0  0  0  0  0  0  0  0  0  0  0
    5.5131    0.7905   -0.0315 O   0  0  0  0  0  0  0  0  0  0  0  0
    5.8836    2.9378    0.6958 N   0  0  0  0  0  0  0  0  0  0  0  0
    7.2157    2.7106    1.1671 C   0  0  0  0  0  0  0  0  0  0  0  0
    7.6142    1.3156    0.8968 C   0  0  0  0  0  0  0  0  0  0  0  0
    8.2173    0.9576   -0.2995 C   0  0  0  0  0  0  0  0  0  0  0  0
    8.6043   -0.3369   -0.5522 C   0  0  0  0  0  0  0  0  0  0  0  0
    8.4071   -1.3416    0.3809 C   0  0  0  0  0  0  0  0  0  0  0  0
    7.8154   -1.0095    1.5643 C   0  0  0  0  0  0  0  0  0  0  0  0
    7.4343    0.2814    1.8053 C   0  0  0  0  0  0  0  0  0  0  0  0
    0.0545   -1.4529    1.4428 C   0  0  0  0  0  0  0  0  0  0  0  0
   -0.4024   -2.9116    1.4079 C   0  0  0  0  0  0  0  0  0  0  0  0
   -0.8962   -0.6988    2.2993 C   0  0  0  0  0  0  0  0  0  0  0  0
   -2.7947   -2.6175   -0.8414 C   0  0  0  0  0  0  0  0  0  0  0  0
   -4.0890   -2.9950   -0.5562 C   0  0  0  0  0  0  0  0  0  0  0  0
   -4.9881   -2.1757    0.0755 C   0  0  0  0  0  0  0  0  0  0  0  0
   -6.2898   -2.5646    0.3587 O   0  0  0  0  0  0  0  0  0  0  0  0
   -6.7899   -3.8416    0.0157 C   0  0  0  0  0  0  0  0  0  0  0  0
   -7.1143    1.7262   -2.9133 H   0  0  0  0  0  0  0  0  0  0  0  0
   -8.2730    1.0234   -1.7220 H   0  0  0  0  0  0  0  0  0  0  0  0
   -7.1061   -0.0295   -2.6728 H   0  0  0  0  0  0  0  0  0  0  0  0
   -7.2881    2.4212    0.0122 H   0  0  0  0  0  0  0  0  0  0  0  0
   -6.1444    3.0916   -1.2091 H   0  0  0  0  0  0  0  0  0  0  0  0
   -4.2388    2.2820    0.0899 H   0  0  0  0  0  0  0  0  0  0  0  0
   -5.3895    3.2699    1.0773 H   0  0  0  0  0  0  0  0  0  0  0  0
   -4.5898    1.2287    2.2894 H   0  0  0  0  0  0  0  0  0  0  0  0
   -6.3307    1.4326    2.1624 H   0  0  0  0  0  0  0  0  0  0  0  0
   -2.8763    0.4479    0.4243 H   0  0  0  0  0  0  0  0  0  0  0  0
    1.4747   -0.7429   -1.5018 H   0  0  0  0  0  0  0  0  0  0  0  0
    2.2561   -1.1851    0.0081 H   0  0  0  0  0  0  0  0  0  0  0  0
    1.9251    1.0823    0.9493 H   0  0  0  0  0  0  0  0  0  0  0  0
   -0.2324    1.6679   -0.6110 H   0  0  0  0  0  0  0  0  0  0  0  0
    1.0197    2.8185   -0.1899 H   0  0  0  0  0  0  0  0  0  0  0  0
    0.5569    1.6630   -2.7935 H   0  0  0  0  0  0  0  0  0  0  0  0
    3.2361    1.9967   -2.9172 H   0  0  0  0  0  0  0  0  0  0  0  0
    2.4572    0.4315   -2.8112 H   0  0  0  0  0  0  0  0  0  0  0  0
    3.6664    0.2202   -0.9229 H   0  0  0  0  0  0  0  0  0  0  0  0
    5.4715    3.9190    0.7965 H   0  0  0  0  0  0  0  0  0  0  0  0
    7.9542    3.4119    0.7145 H   0  0  0  0  0  0  0  0  0  0  0  0
    7.3161    2.8718    2.2662 H   0  0  0  0  0  0  0  0  0  0  0  0
    8.3924    1.6988   -1.0570 H   0  0  0  0  0  0  0  0  0  0  0  0
    9.0789   -0.6259   -1.4927 H   0  0  0  0  0  0  0  0  0  0  0  0
    8.7278   -2.3711    0.1499 H   0  0  0  0  0  0  0  0  0  0  0  0
    7.6489   -1.7645    2.3078 H   0  0  0  0  0  0  0  0  0  0  0  0
    6.9545    0.5900    2.7472 H   0  0  0  0  0  0  0  0  0  0  0  0
    1.0739   -1.3876    1.9239 H   0  0  0  0  0  0  0  0  0  0  0  0
    0.2331   -3.4809    2.1235 H   0  0  0  0  0  0  0  0  0  0  0  0
   -1.4699   -3.0205    1.6889 H   0  0  0  0  0  0  0  0  0  0  0  0
   -0.2918   -3.3589    0.3991 H   0  0  0  0  0  0  0  0  0  0  0  0
   -0.4049   -0.5658    3.3101 H   0  0  0  0  0  0  0  0  0  0  0  0
   -1.0697    0.3461    1.9709 H   0  0  0  0  0  0  0  0  0  0  0  0
   -1.8195   -1.2582    2.5438 H   0  0  0  0  0  0  0  0  0  0  0  0
   -2.0904   -3.2747   -1.3425 H   0  0  0  0  0  0  0  0  0  0  0  0
   -4.4377   -3.9994   -0.8418 H   0  0  0  0  0  0  0  0  0  0  0  0
   -6.0605   -4.6635    0.1943 H   0  0  0  0  0  0  0  0  0  0  0  0
   -7.1360   -3.8939   -1.0369 H   0  0  0  0  0  0  0  0  0  0  0  0
   -7.6875   -4.1018    0.6296 H   0  0  0  0  0  0  0  0  0  0  0  0
  1  2  1  0
  2  3  1  0
  3  4  1  0
  4  5  1  0
  5  6  1  0
  6  7  1  0
  7  8  2  0
  8  9  1  0
  9 10  1  0
 10 11  2  0
 10 12  1  0
 12 13  1  0
 13 14  1  0
 14 15  1  0
 15 16  1  0
 16 17  1  0
 17 18  1  0
 18 19  1  0
 19 20  1  0
 20 21  2  0
 20 22  1  0
 22 23  1  0
 23 24  1  0
 24 25  2  0
 25 26  1  0
 26 27  2  0
 27 28  1  0
 28 29  2  0
 12 30  1  0
 30 31  1  0
 30 32  1  0
  9 33  2  0
 33 34  1  0
 34 35  2  0
 35 36  1  0
 36 37  1  0
 35  7  1  0
 18 14  1  0
 29 24  1  0
  1 38  1  0
  1 39  1  0
  1 40  1  0
  3 41  1  0
  3 42  1  0
  4 43  1  0
  4 44  1  0
  5 45  1  0
  5 46  1  0
  8 47  1  0
 13 48  1  0
 13 49  1  0
 14 50  1  1
 15 51  1  0
 15 52  1  0
 16 53  1  0
 17 54  1  0
 17 55  1  0
 18 56  1  6
 22 57  1  0
 23 58  1  0
 23 59  1  0
 25 60  1  0
 26 61  1  0
 27 62  1  0
 28 63  1  0
 29 64  1  0
 30 65  1  0
 31 66  1  0
 31 67  1  0
 31 68  1  0
 32 69  1  0
 32 70  1  0
 32 71  1  0
 33 72  1  0
 34 73  1  0
 37 74  1  0
 37 75  1  0
 37 76  1  0
M  END
$$$$
