@<TRIPOS>MOLECULE
*****
 60 65 0 0 0
SMALL
GASTEIGER

@<TRIPOS>ATOM
      1 C          -4.9461    3.9853   -0.2816 C.3     1  UNL1       -0.0200
      2 C          -5.6435    2.9175    0.4879 C.ar    1  UNL1        0.0674
      3 N          -6.8180    2.9931    1.1414 N.ar    1  UNL1       -0.1780
      4 N          -7.0973    1.8279    1.7025 N.ar    1  UNL1       -0.2767
      5 C          -6.0851    0.9698    1.4113 C.ar    1  UNL1        0.0660
      6 C          -5.8336   -0.3509    1.7186 C.ar    1  UNL1       -0.0357
      7 C          -4.6951   -0.9982    1.2817 C.ar    1  UNL1       -0.0519
      8 C          -3.7552   -0.3427    0.5131 C.ar    1  UNL1       -0.0150
      9 C          -2.5401   -1.0127    0.0390 C.ar    1  UNL1        0.0117
     10 C          -1.2806   -0.5961    0.4153 C.ar    1  UNL1       -0.0087
     11 C          -0.1632   -1.2567   -0.0571 C.ar    1  UNL1        0.1392
     12 O           1.1267   -0.8779    0.2909 O.3     1  UNL1       -0.4889
     13 C           2.2055   -1.6185   -0.2467 C.3     1  UNL1        0.1050
     14 C           3.5340   -1.0589    0.2462 C.3     1  UNL1        0.0435
     15 N           4.5872   -1.8366   -0.3236 N.3     1  UNL1       -0.3242
     16 C           3.5611    0.4020   -0.0491 C.3     1  UNL1       -0.0073
     17 C           4.8079    1.0643    0.3823 C.ar    1  UNL1       -0.0208
     18 C           4.9688    1.8216    1.5473 C.ar    1  UNL1        0.0060
     19 N           6.2346    2.2501    1.6178 N.ar    1  UNL1       -0.3604
     20 C           6.9269    1.8099    0.5462 C.ar    1  UNL1        0.0467
     21 C           8.2343    1.9752    0.1556 C.ar    1  UNL1       -0.0378
     22 C           8.6952    1.4156   -1.0050 C.ar    1  UNL1       -0.0598
     23 C           7.8419    0.6816   -1.7866 C.ar    1  UNL1       -0.0611
     24 C           6.5312    0.5183   -1.3907 C.ar    1  UNL1       -0.0523
     25 C           6.0380    1.0687   -0.2280 C.ar    1  UNL1        0.0029
     26 C          -0.4005   -2.3287   -0.9056 C.ar    1  UNL1        0.0699
     27 N          -1.6382   -2.7181   -1.2597 N.ar    1  UNL1       -0.2506
     28 C          -2.7458   -2.0960   -0.8170 C.ar    1  UNL1        0.0819
     29 C          -4.0954   -2.5064   -1.1914 C.ar    1  UNL1        0.0386
     30 C          -5.0342   -1.7789   -1.8883 C.ar    1  UNL1       -0.0147
     31 C          -6.1409   -2.5962   -1.9876 C.ar    1  UNL1        0.0923
     32 O          -5.8745   -3.7214   -1.3938 O.2     1  UNL1       -0.4704
     33 C          -4.6804   -3.7185   -0.9076 C.ar    1  UNL1        0.1008
     34 C          -4.0071    0.9787    0.2058 C.ar    1  UNL1       -0.0430
     35 C          -5.1512    1.6339    0.6432 C.ar    1  UNL1        0.0230
     36 H          -4.3937    4.6293    0.4269 H       1  UNL1        0.0293
     37 H          -5.7098    4.6072   -0.8133 H       1  UNL1        0.0293
     38 H          -4.2892    3.5232   -1.0532 H       1  UNL1        0.0293
     39 H          -7.9454    1.5847    2.2766 H       1  UNL1        0.1889
     40 H          -6.5731   -0.8674    2.3239 H       1  UNL1        0.0639
     41 H          -4.4886   -2.0341    1.5173 H       1  UNL1        0.0624
     42 H          -1.1528    0.2505    1.0831 H       1  UNL1        0.0661
     43 H           2.2142   -1.4870   -1.3573 H       1  UNL1        0.0712
     44 H           2.1303   -2.7019   -0.0005 H       1  UNL1        0.0712
     45 H           3.5406   -1.2343    1.3451 H       1  UNL1        0.0495
     46 H           4.9170   -2.6161    0.2733 H       1  UNL1        0.1186
     47 H           4.4737   -2.0780   -1.3163 H       1  UNL1        0.1186
     48 H           3.4358    0.5283   -1.1465 H       1  UNL1        0.0330
     49 H           2.7079    0.8631    0.4997 H       1  UNL1        0.0330
     50 H           4.1650    1.9956    2.2360 H       1  UNL1        0.0810
     51 H           6.6231    2.8322    2.3808 H       1  UNL1        0.1653
     52 H           8.9016    2.5484    0.7658 H       1  UNL1        0.0638
     53 H           9.7364    1.5365   -1.3337 H       1  UNL1        0.0618
     54 H           8.1979    0.2394   -2.7002 H       1  UNL1        0.0618
     55 H           5.8488   -0.0569   -2.0103 H       1  UNL1        0.0624
     56 H           0.4865   -2.8520   -1.2799 H       1  UNL1        0.0867
     57 H          -4.9309   -0.7659   -2.2832 H       1  UNL1        0.0655
     58 H          -7.0824   -2.3627   -2.4725 H       1  UNL1        0.1029
     59 H          -4.1828   -4.5086   -0.3638 H       1  UNL1        0.1036
     60 H          -3.2973    1.5263   -0.3928 H       1  UNL1        0.0631
@<TRIPOS>BOND
     1     1     2    1
     2     2     3   ar
     3     3     4   ar
     4     4     5   ar
     5     5     6   ar
     6     6     7   ar
     7     7     8   ar
     8     8     9    1
     9     9    10   ar
    10    10    11   ar
    11    11    12    1
    12    12    13    1
    13    13    14    1
    14    14    15    1
    15    14    16    1
    16    16    17    1
    17    17    18   ar
    18    18    19   ar
    19    19    20   ar
    20    20    21   ar
    21    21    22   ar
    22    22    23   ar
    23    23    24   ar
    24    24    25   ar
    25    11    26   ar
    26    26    27   ar
    27    27    28   ar
    28    28    29    1
    29    29    30   ar
    30    30    31   ar
    31    31    32   ar
    32    32    33   ar
    33     8    34   ar
    34    34    35   ar
    35    35     2   ar
    36    35     5   ar
    37    28     9   ar
    38    33    29   ar
    39    25    17   ar
    40    25    20   ar
    41     1    36    1
    42     1    37    1
    43     1    38    1
    44     4    39    1
    45     6    40    1
    46     7    41    1
    47    10    42    1
    48    13    43    1
    49    13    44    1
    50    14    45    1
    51    15    46    1
    52    15    47    1
    53    16    48    1
    54    16    49    1
    55    18    50    1
    56    19    51    1
    57    21    52    1
    58    22    53    1
    59    23    54    1
    60    24    55    1
    61    26    56    1
    62    30    57    1
    63    31    58    1
    64    33    59    1
    65    34    60    1
