
     RDKit          3D

 60 65  0  0  0  0  0  0  0  0999 V2000
   -4.9461    3.9853   -0.2816 C   0  0  0  0  0  0  0  0  0  0  0  0
   -5.6435    2.9175    0.4879 C   0  0  0  0  0  0  0  0  0  0  0  0
   -6.8180    2.9931    1.1414 N   0  0  0  0  0  0  0  0  0  0  0  0
   -7.0973    1.8279    1.7025 N   0  0  0  0  0  0  0  0  0  0  0  0
   -6.0851    0.9698    1.4113 C   0  0  0  0  0  0  0  0  0  0  0  0
   -5.8336   -0.3509    1.7186 C   0  0  0  0  0  0  0  0  0  0  0  0
   -4.6951   -0.9982    1.2817 C   0  0  0  0  0  0  0  0  0  0  0  0
   -3.7552   -0.3427    0.5131 C   0  0  0  0  0  0  0  0  0  0  0  0
   -2.5401   -1.0127    0.0390 C   0  0  0  0  0  0  0  0  0  0  0  0
   -1.2806   -0.5961    0.4153 C   0  0  0  0  0  0  0  0  0  0  0  0
   -0.1632   -1.2567   -0.0571 C   0  0  0  0  0  0  0  0  0  0  0  0
    1.1267   -0.8779    0.2909 O   0  0  0  0  0  0  0  0  0  0  0  0
    2.2055   -1.6185   -0.2467 C   0  0  0  0  0  0  0  0  0  0  0  0
    3.5340   -1.0589    0.2462 C   0  0  1  0  0  0  0  0  0  0  0  0
    4.5872   -1.8366   -0.3236 N   0  0  0  0  0  0  0  0  0  0  0  0
    3.5611    0.4020   -0.0491 C   0  0  0  0  0  0  0  0  0  0  0  0
    4.8079    1.0643    0.3823 C   0  0  0  0  0  0  0  0  0  0  0  0
    4.9688    1.8216    1.5473 C   0  0  0  0  0  0  0  0  0  0  0  0
    6.2346    2.2501    1.6178 N   0  0  0  0  0  0  0  0  0  0  0  0
    6.9269    1.8099    0.5462 C   0  0  0  0  0  0  0  0  0  0  0  0
    8.2343    1.9752    0.1556 C   0  0  0  0  0  0  0  0  0  0  0  0
    8.6952    1.4156   -1.0050 C   0  0  0  0  0  0  0  0  0  0  0  0
    7.8419    0.6816   -1.7866 C   0  0  0  0  0  0  0  0  0  0  0  0
    6.5312    0.5183   -1.3907 C   0  0  0  0  0  0  0  0  0  0  0  0
    6.0380    1.0687   -0.2280 C   0  0  0  0  0  0  0  0  0  0  0  0
   -0.4005   -2.3287   -0.9056 C   0  0  0  0  0  0  0  0  0  0  0  0
   -1.6382   -2.7181   -1.2597 N   0  0  0  0  0  0  0  0  0  0  0  0
   -2.7458   -2.0960   -0.8170 C   0  0  0  0  0  0  0  0  0  0  0  0
   -4.0954   -2.5064   -1.1914 C   0  0  0  0  0  0  0  0  0  0  0  0
   -5.0342   -1.7789   -1.8883 C   0  0  0  0  0  0  0  0  0  0  0  0
   -6.1409   -2.5962   -1.9876 C   0  0  0  0  0  0  0  0  0  0  0  0
   -5.8745   -3.7214   -1.3938 O   0  0  0  0  0  0  0  0  0  0  0  0
   -4.6804   -3.7185   -0.9076 C   0  0  0  0  0  0  0  0  0  0  0  0
   -4.0071    0.9787    0.2058 C   0  0  0  0  0  0  0  0  0  0  0  0
   -5.1512    1.6339    0.6432 C   0  0  0  0  0  0  0  0  0  0  0  0
   -4.3937    4.6293    0.4269 H   0  0  0  0  0  0  0  0  0  0  0  0
   -5.7098    4.6072   -0.8133 H   0  0  0  0  0  0  0  0  0  0  0  0
   -4.2892    3.5232   -1.0532 H   0  0  0  0  0  0  0  0  0  0  0  0
   -7.9454    1.5847    2.2766 H   0  0  0  0  0  0  0  0  0  0  0  0
   -6.5731   -0.8674    2.3239 H   0  0  0  0  0  0  0  0  0  0  0  0
   -4.4886   -2.0341    1.5173 H   0  0  0  0  0  0  0  0  0  0  0  0
   -1.1528    0.2505    1.0831 H   0  0  0  0  0  0  0  0  0  0  0  0
    2.2142   -1.4870   -1.3573 H   0  0  0  0  0  0  0  0  0  0  0  0
    2.1303   -2.7019   -0.0005 H   0  0  0  0  0  0  0  0  0  0  0  0
    3.5406   -1.2343    1.3451 H   0  0  0  0  0  0  0  0  0  0  0  0
    4.9170   -2.6161    0.2733 H   0  0  0  0  0  0  0  0  0  0  0  0
    4.4737   -2.0780   -1.3163 H   0  0  0  0  0  0  0  0  0  0  0  0
    3.4358    0.5283   -1.1465 H   0  0  0  0  0  0  0  0  0  0  0  0
    2.7079    0.8631    0.4997 H   0  0  0  0  0  0  0  0  0  0  0  0
    4.1650    1.9956    2.2360 H   0  0  0  0  0  0  0  0  0  0  0  0
    6.6231    2.8322    2.3808 H   0  0  0  0  0  0  0  0  0  0  0  0
    8.9016    2.5484    0.7658 H   0  0  0  0  0  0  0  0  0  0  0  0
    9.7364    1.5365   -1.3337 H   0  0  0  0  0  0  0  0  0  0  0  0
    8.1979    0.2394   -2.7002 H   0  0  0  0  0  0  0  0  0  0  0  0
    5.8488   -0.0569   -2.0103 H   0  0  0  0  0  0  0  0  0  0  0  0
    0.4865   -2.8520   -1.2799 H   0  0  0  0  0  0  0  0  0  0  0  0
   -4.9309   -0.7659   -2.2832 H   0  0  0  0  0  0  0  0  0  0  0  0
   -7.0824   -2.3627   -2.4725 H   0  0  0  0  0  0  0  0  0  0  0  0
   -4.1828   -4.5086   -0.3638 H   0  0  0  0  0  0  0  0  0  0  0  0
   -3.2973    1.5263   -0.3928 H   0  0  0  0  0  0  0  0  0  0  0  0
  1  2  1  0
  2  3  2  0
  3  4  1  0
  4  5  1  0
  5  6  2  0
  6  7  1  0
  7  8  2  0
  8  9  1  0
  9 10  2  0
 10 11  1  0
 11 12  1  0
 12 13  1  0
 13 14  1  0
 14 15  1  0
 14 16  1  0
 16 17  1  0
 17 18  2  0
 18 19  1  0
 19 20  1  0
 20 21  2  0
 21 22  1  0
 22 23  2  0
 23 24  1  0
 24 25  2  0
 11 26  2  0
 26 27  1  0
 27 28  2  0
 28 29  1  0
 29 30  1  0
 30 31  2  0
 31 32  1  0
 32 33  1  0
  8 34  1  0
 34 35  2  0
 35  2  1  0
 35  5  1  0
 28  9  1  0
 33 29  2  0
 25 17  1  0
 25 20  1  0
  1 36  1  0
  1 37  1  0
  1 38  1  0
  4 39  1  0
  6 40  1  0
  7 41  1  0
 10 42  1  0
 13 43  1  0
 13 44  1  0
 14 45  1  1
 15 46  1  0
 15 47  1  0
 16 48  1  0
 16 49  1  0
 18 50  1  0
 19 51  1  0
 21 52  1  0
 22 53  1  0
 23 54  1  0
 24 55  1  0
 26 56  1  0
 30 57  1  0
 31 58  1  0
 33 59  1  0
 34 60  1  0
M  END
$$$$
