@<TRIPOS>MOLECULE
*****
 45 48 0 0 0
SMALL
GASTEIGER

@<TRIPOS>ATOM
      1 C          -1.3374   -0.5735    0.1414 C.3     1  UNL1       -0.0274
      2 C          -2.3582   -1.2764   -0.6520 C.3     1  UNL1       -0.0207
      3 C          -3.4960   -1.2626    0.3777 C.3     1  UNL1        0.0819
      4 O          -3.2048   -2.3303    1.2362 O.3     1  UNL1       -0.3892
      5 C          -3.3069    0.0467    1.1355 C.3     1  UNL1        0.0867
      6 O          -4.4151    0.8385    0.7623 O.3     1  UNL1       -0.3887
      7 C          -2.0472    0.6675    0.6269 C.3     1  UNL1       -0.0005
      8 C          -2.3572    1.6514   -0.4340 C.3     1  UNL1       -0.0569
      9 C          -1.1837    1.2656    1.6985 C.3     1  UNL1       -0.0444
     10 C           0.2034    1.5299    1.1607 C.3     1  UNL1       -0.0454
     11 C           0.7930    0.2366    0.6816 C.3     1  UNL1       -0.0125
     12 C           2.1855    0.3277    0.2516 C.ar    1  UNL1       -0.0406
     13 C           2.7117   -0.7464   -0.4434 C.ar    1  UNL1       -0.0405
     14 C           1.7869   -1.8890   -0.6778 C.3     1  UNL1       -0.0270
     15 C           0.5612   -1.2796   -1.3290 C.3     1  UNL1       -0.0454
     16 C          -0.0623   -0.2115   -0.5066 C.3     1  UNL1       -0.0304
     17 C           4.0135   -0.7802   -0.9026 C.ar    1  UNL1       -0.0167
     18 C           4.8068    0.3366   -0.6359 C.ar    1  UNL1        0.1171
     19 O           6.1268    0.3544   -1.0765 O.3     1  UNL1       -0.5068
     20 C           4.3211    1.4286    0.0539 C.ar    1  UNL1       -0.0199
     21 C           3.0136    1.4020    0.4860 C.ar    1  UNL1       -0.0546
     22 H          -1.1323   -1.1877    1.0445 H       1  UNL1        0.0311
     23 H          -2.0826   -2.3435   -0.8867 H       1  UNL1        0.0294
     24 H          -2.6520   -0.8228   -1.5957 H       1  UNL1        0.0294
     25 H          -4.4762   -1.3716   -0.0826 H       1  UNL1        0.0619
     26 H          -2.5729   -2.9826    0.8560 H       1  UNL1        0.2099
     27 H          -3.2963   -0.1402    2.2365 H       1  UNL1        0.0624
     28 H          -4.7230    1.3994    1.4998 H       1  UNL1        0.2099
     29 H          -1.6440    2.4828   -0.5608 H       1  UNL1        0.0236
     30 H          -2.5168    1.2171   -1.4384 H       1  UNL1        0.0236
     31 H          -3.3474    2.1326   -0.1836 H       1  UNL1        0.0236
     32 H          -1.0896    0.5405    2.5079 H       1  UNL1        0.0272
     33 H          -1.6711    2.2114    2.0437 H       1  UNL1        0.0272
     34 H           0.8324    1.9930    1.9523 H       1  UNL1        0.0271
     35 H           0.2204    2.2407    0.3091 H       1  UNL1        0.0271
     36 H           0.7076   -0.5428    1.4775 H       1  UNL1        0.0352
     37 H           1.4826   -2.3481    0.3016 H       1  UNL1        0.0313
     38 H           2.2154   -2.6400   -1.3671 H       1  UNL1        0.0313
     39 H           0.9410   -0.7976   -2.2773 H       1  UNL1        0.0271
     40 H          -0.1629   -2.0891   -1.5851 H       1  UNL1        0.0271
     41 H          -0.2270    0.7328   -1.0941 H       1  UNL1        0.0310
     42 H           4.4097   -1.6362   -1.4486 H       1  UNL1        0.0657
     43 H           6.4877   -0.3288   -1.7297 H       1  UNL1        0.2921
     44 H           4.9120    2.2963    0.2698 H       1  UNL1        0.0654
     45 H           2.6304    2.2485    1.0231 H       1  UNL1        0.0622
@<TRIPOS>BOND
     1     1     2    1
     2     2     3    1
     3     3     4    1
     4     3     5    1
     5     5     6    1
     6     5     7    1
     7     7     8    1
     8     7     9    1
     9     9    10    1
    10    10    11    1
    11    11    12    1
    12    12    13   ar
    13    13    14    1
    14    14    15    1
    15    15    16    1
    16    13    17   ar
    17    17    18   ar
    18    18    19    1
    19    18    20   ar
    20    20    21   ar
    21     7     1    1
    22    16    11    1
    23    16     1    1
    24    21    12   ar
    25     1    22    1
    26     2    23    1
    27     2    24    1
    28     3    25    1
    29     4    26    1
    30     5    27    1
    31     6    28    1
    32     8    29    1
    33     8    30    1
    34     8    31    1
    35     9    32    1
    36     9    33    1
    37    10    34    1
    38    10    35    1
    39    11    36    1
    40    14    37    1
    41    14    38    1
    42    15    39    1
    43    15    40    1
    44    16    41    1
    45    17    42    1
    46    19    43    1
    47    20    44    1
    48    21    45    1
