@<TRIPOS>MOLECULE
*****
 65 67 0 0 0
SMALL
GASTEIGER

@<TRIPOS>ATOM
      1 C          -5.4195    1.9642    0.5732 C.3     1  UNL1       -0.0645
      2 C          -4.3823    2.6826   -0.2583 C.3     1  UNL1       -0.0432
      3 C          -3.0669    2.8024    0.5206 C.3     1  UNL1        0.0534
      4 C          -2.0365    3.5156   -0.3045 C.3     1  UNL1       -0.0523
      5 C          -2.6277    1.4784    0.9735 C.2     1  UNL1        0.3102
      6 O          -2.4916    1.2836    2.2241 O.2     1  UNL1       -0.2505
      7 O          -2.3513    0.4244    0.1172 O.3     1  UNL1       -0.4605
      8 C          -1.9341   -0.8133    0.6435 C.3     1  UNL1        0.1106
      9 C          -3.0418   -1.8296    0.3980 C.3     1  UNL1       -0.0090
     10 C          -2.5069   -3.1431    0.9935 C.3     1  UNL1       -0.0218
     11 C          -3.5818   -4.1821    1.0643 C.3     1  UNL1       -0.0588
     12 C          -1.4134   -3.5308    0.0395 C.2     1  UNL1       -0.0775
     13 C          -0.5429   -2.6426   -0.3667 C.2     1  UNL1       -0.0444
     14 C           0.5024   -3.0425   -1.2892 C.2     1  UNL1       -0.0621
     15 C           0.9050   -2.1779   -2.2172 C.2     1  UNL1       -0.0806
     16 C           0.2443   -0.8504   -2.2404 C.3     1  UNL1       -0.0219
     17 C           0.9931    0.0838   -3.1478 C.3     1  UNL1       -0.0587
     18 C          -0.0407   -0.2751   -0.8923 C.3     1  UNL1       -0.0247
     19 C           1.1046    0.4768   -0.2882 C.3     1  UNL1       -0.0457
     20 C           2.3431   -0.3645   -0.0900 C.3     1  UNL1       -0.0153
     21 C           3.3943    0.5606    0.5280 C.3     1  UNL1        0.1054
     22 C           4.6879   -0.1632    0.7772 C.3     1  UNL1        0.0109
     23 C           5.5852    0.7194    1.5930 C.3     1  UNL1        0.0686
     24 O           6.8753    0.1562    1.6840 O.3     1  UNL1       -0.3911
     25 C           5.6601    2.1310    1.1099 C.3     1  UNL1        0.0710
     26 C           4.8106    2.3925   -0.0640 C.2     1  UNL1        0.3098
     27 O           5.1537    3.3046   -0.8585 O.2     1  UNL1       -0.2507
     28 O           3.6562    1.6613   -0.3049 O.3     1  UNL1       -0.4612
     29 C          -0.5948   -1.2519    0.1059 C.3     1  UNL1        0.0243
     30 H          -5.3787    2.2527    1.6377 H       1  UNL1        0.0230
     31 H          -5.3812    0.8688    0.4275 H       1  UNL1        0.0230
     32 H          -6.4190    2.2863    0.1825 H       1  UNL1        0.0230
     33 H          -4.7081    3.7108   -0.4782 H       1  UNL1        0.0270
     34 H          -4.2387    2.1091   -1.1836 H       1  UNL1        0.0270
     35 H          -3.3118    3.4301    1.3984 H       1  UNL1        0.0410
     36 H          -1.9052    3.0077   -1.2694 H       1  UNL1        0.0238
     37 H          -1.0761    3.4691    0.2729 H       1  UNL1        0.0238
     38 H          -2.3731    4.5560   -0.4401 H       1  UNL1        0.0238
     39 H          -1.8974   -0.7141    1.7563 H       1  UNL1        0.0740
     40 H          -3.2807   -1.9483   -0.6670 H       1  UNL1        0.0307
     41 H          -3.9086   -1.4869    0.9962 H       1  UNL1        0.0307
     42 H          -2.0591   -2.8974    1.9721 H       1  UNL1        0.0342
     43 H          -4.5321   -3.8230    0.6196 H       1  UNL1        0.0235
     44 H          -3.7528   -4.4390    2.1297 H       1  UNL1        0.0235
     45 H          -3.1990   -5.0927    0.5232 H       1  UNL1        0.0235
     46 H          -1.3774   -4.5750   -0.2923 H       1  UNL1        0.0578
     47 H           0.9412   -4.0565   -1.2104 H       1  UNL1        0.0617
     48 H           1.6851   -2.4505   -2.9188 H       1  UNL1        0.0575
     49 H          -0.7523   -1.0292   -2.7481 H       1  UNL1        0.0343
     50 H           1.0842    1.1042   -2.7849 H       1  UNL1        0.0235
     51 H           2.0392   -0.3184   -3.2409 H       1  UNL1        0.0235
     52 H           0.5970    0.0386   -4.2052 H       1  UNL1        0.0235
     53 H          -0.8461    0.5067   -1.0441 H       1  UNL1        0.0313
     54 H           1.3347    1.4382   -0.7893 H       1  UNL1        0.0269
     55 H           0.7712    0.7712    0.7514 H       1  UNL1        0.0269
     56 H           2.1728   -1.1584    0.6659 H       1  UNL1        0.0301
     57 H           2.7140   -0.8416   -0.9983 H       1  UNL1        0.0301
     58 H           3.0464    0.9537    1.5047 H       1  UNL1        0.0734
     59 H           4.4346   -1.0592    1.4129 H       1  UNL1        0.0326
     60 H           5.1147   -0.4507   -0.1877 H       1  UNL1        0.0326
     61 H           5.1914    0.7256    2.6487 H       1  UNL1        0.0600
     62 H           7.0873   -0.2362    0.7812 H       1  UNL1        0.2098
     63 H           6.7265    2.3520    0.8160 H       1  UNL1        0.0403
     64 H           5.4570    2.8627    1.9416 H       1  UNL1        0.0403
     65 H           0.1165   -1.2367    0.9963 H       1  UNL1        0.0388
@<TRIPOS>BOND
     1     1     2    1
     2     2     3    1
     3     3     4    1
     4     3     5    1
     5     5     6    2
     6     5     7    1
     7     7     8    1
     8     8     9    1
     9     9    10    1
    10    10    11    1
    11    10    12    1
    12    12    13    2
    13    13    14    1
    14    14    15    2
    15    15    16    1
    16    16    17    1
    17    16    18    1
    18    18    19    1
    19    19    20    1
    20    20    21    1
    21    21    22    1
    22    22    23    1
    23    23    24    1
    24    23    25    1
    25    25    26    1
    26    26    27    2
    27    26    28    1
    28    18    29    1
    29    29     8    1
    30    29    13    1
    31    28    21    1
    32     1    30    1
    33     1    31    1
    34     1    32    1
    35     2    33    1
    36     2    34    1
    37     3    35    1
    38     4    36    1
    39     4    37    1
    40     4    38    1
    41     8    39    1
    42     9    40    1
    43     9    41    1
    44    10    42    1
    45    11    43    1
    46    11    44    1
    47    11    45    1
    48    12    46    1
    49    14    47    1
    50    15    48    1
    51    16    49    1
    52    17    50    1
    53    17    51    1
    54    17    52    1
    55    18    53    1
    56    19    54    1
    57    19    55    1
    58    20    56    1
    59    20    57    1
    60    21    58    1
    61    22    59    1
    62    22    60    1
    63    23    61    1
    64    24    62    1
    65    25    63    1
    66    25    64    1
    67    29    65    1
