
     RDKit          3D

 65 67  0  0  0  0  0  0  0  0999 V2000
   -5.4195    1.9642    0.5732 C   0  0  0  0  0  0  0  0  0  0  0  0
   -4.3823    2.6826   -0.2583 C   0  0  0  0  0  0  0  0  0  0  0  0
   -3.0669    2.8024    0.5206 C   0  0  2  0  0  0  0  0  0  0  0  0
   -2.0365    3.5156   -0.3045 C   0  0  0  0  0  0  0  0  0  0  0  0
   -2.6277    1.4784    0.9735 C   0  0  0  0  0  0  0  0  0  0  0  0
   -2.4916    1.2836    2.2241 O   0  0  0  0  0  0  0  0  0  0  0  0
   -2.3513    0.4244    0.1172 O   0  0  0  0  0  0  0  0  0  0  0  0
   -1.9341   -0.8133    0.6435 C   0  0  1  0  0  0  0  0  0  0  0  0
   -3.0418   -1.8296    0.3980 C   0  0  0  0  0  0  0  0  0  0  0  0
   -2.5069   -3.1431    0.9935 C   0  0  1  0  0  0  0  0  0  0  0  0
   -3.5818   -4.1821    1.0643 C   0  0  0  0  0  0  0  0  0  0  0  0
   -1.4134   -3.5308    0.0395 C   0  0  0  0  0  0  0  0  0  0  0  0
   -0.5429   -2.6426   -0.3667 C   0  0  0  0  0  0  0  0  0  0  0  0
    0.5024   -3.0425   -1.2892 C   0  0  0  0  0  0  0  0  0  0  0  0
    0.9050   -2.1779   -2.2172 C   0  0  0  0  0  0  0  0  0  0  0  0
    0.2443   -0.8504   -2.2404 C   0  0  2  0  0  0  0  0  0  0  0  0
    0.9931    0.0838   -3.1478 C   0  0  0  0  0  0  0  0  0  0  0  0
   -0.0407   -0.2751   -0.8923 C   0  0  2  0  0  0  0  0  0  0  0  0
    1.1046    0.4768   -0.2882 C   0  0  0  0  0  0  0  0  0  0  0  0
    2.3431   -0.3645   -0.0900 C   0  0  0  0  0  0  0  0  0  0  0  0
    3.3943    0.5606    0.5280 C   0  0  0  0  0  0  0  0  0  0  0  0
    4.6879   -0.1632    0.7772 C   0  0  0  0  0  0  0  0  0  0  0  0
    5.5852    0.7194    1.5930 C   0  0  1  0  0  0  0  0  0  0  0  0
    6.8753    0.1562    1.6840 O   0  0  0  0  0  0  0  0  0  0  0  0
    5.6601    2.1310    1.1099 C   0  0  0  0  0  0  0  0  0  0  0  0
    4.8106    2.3925   -0.0640 C   0  0  0  0  0  0  0  0  0  0  0  0
    5.1537    3.3046   -0.8585 O   0  0  0  0  0  0  0  0  0  0  0  0
    3.6562    1.6613   -0.3049 O   0  0  0  0  0  0  0  0  0  0  0  0
   -0.5948   -1.2519    0.1059 C   0  0  1  0  0  0  0  0  0  0  0  0
   -5.3787    2.2527    1.6377 H   0  0  0  0  0  0  0  0  0  0  0  0
   -5.3812    0.8688    0.4275 H   0  0  0  0  0  0  0  0  0  0  0  0
   -6.4190    2.2863    0.1825 H   0  0  0  0  0  0  0  0  0  0  0  0
   -4.7081    3.7108   -0.4782 H   0  0  0  0  0  0  0  0  0  0  0  0
   -4.2387    2.1091   -1.1836 H   0  0  0  0  0  0  0  0  0  0  0  0
   -3.3118    3.4301    1.3984 H   0  0  0  0  0  0  0  0  0  0  0  0
   -1.9052    3.0077   -1.2694 H   0  0  0  0  0  0  0  0  0  0  0  0
   -1.0761    3.4691    0.2729 H   0  0  0  0  0  0  0  0  0  0  0  0
   -2.3731    4.5560   -0.4401 H   0  0  0  0  0  0  0  0  0  0  0  0
   -1.8974   -0.7141    1.7563 H   0  0  0  0  0  0  0  0  0  0  0  0
   -3.2807   -1.9483   -0.6670 H   0  0  0  0  0  0  0  0  0  0  0  0
   -3.9086   -1.4869    0.9962 H   0  0  0  0  0  0  0  0  0  0  0  0
   -2.0591   -2.8974    1.9721 H   0  0  0  0  0  0  0  0  0  0  0  0
   -4.5321   -3.8230    0.6196 H   0  0  0  0  0  0  0  0  0  0  0  0
   -3.7528   -4.4390    2.1297 H   0  0  0  0  0  0  0  0  0  0  0  0
   -3.1990   -5.0927    0.5232 H   0  0  0  0  0  0  0  0  0  0  0  0
   -1.3774   -4.5750   -0.2923 H   0  0  0  0  0  0  0  0  0  0  0  0
    0.9412   -4.0565   -1.2104 H   0  0  0  0  0  0  0  0  0  0  0  0
    1.6851   -2.4505   -2.9188 H   0  0  0  0  0  0  0  0  0  0  0  0
   -0.7523   -1.0292   -2.7481 H   0  0  0  0  0  0  0  0  0  0  0  0
    1.0842    1.1042   -2.7849 H   0  0  0  0  0  0  0  0  0  0  0  0
    2.0392   -0.3184   -3.2409 H   0  0  0  0  0  0  0  0  0  0  0  0
    0.5970    0.0386   -4.2052 H   0  0  0  0  0  0  0  0  0  0  0  0
   -0.8461    0.5067   -1.0441 H   0  0  0  0  0  0  0  0  0  0  0  0
    1.3347    1.4382   -0.7893 H   0  0  0  0  0  0  0  0  0  0  0  0
    0.7712    0.7712    0.7514 H   0  0  0  0  0  0  0  0  0  0  0  0
    2.1728   -1.1584    0.6659 H   0  0  0  0  0  0  0  0  0  0  0  0
    2.7140   -0.8416   -0.9983 H   0  0  0  0  0  0  0  0  0  0  0  0
    3.0464    0.9537    1.5047 H   0  0  0  0  0  0  0  0  0  0  0  0
    4.4346   -1.0592    1.4129 H   0  0  0  0  0  0  0  0  0  0  0  0
    5.1147   -0.4507   -0.1877 H   0  0  0  0  0  0  0  0  0  0  0  0
    5.1914    0.7256    2.6487 H   0  0  0  0  0  0  0  0  0  0  0  0
    7.0873   -0.2362    0.7812 H   0  0  0  0  0  0  0  0  0  0  0  0
    6.7265    2.3520    0.8160 H   0  0  0  0  0  0  0  0  0  0  0  0
    5.4570    2.8627    1.9416 H   0  0  0  0  0  0  0  0  0  0  0  0
    0.1165   -1.2367    0.9963 H   0  0  0  0  0  0  0  0  0  0  0  0
  1  2  1  0
  2  3  1  0
  3  4  1  0
  3  5  1  0
  5  6  2  0
  5  7  1  0
  7  8  1  0
  8  9  1  0
  9 10  1  0
 10 11  1  0
 10 12  1  0
 12 13  2  0
 13 14  1  0
 14 15  2  0
 15 16  1  0
 16 17  1  0
 16 18  1  0
 18 19  1  0
 19 20  1  0
 20 21  1  0
 21 22  1  0
 22 23  1  0
 23 24  1  0
 23 25  1  0
 25 26  1  0
 26 27  2  0
 26 28  1  0
 18 29  1  0
 29  8  1  0
 29 13  1  0
 28 21  1  0
  1 30  1  0
  1 31  1  0
  1 32  1  0
  2 33  1  0
  2 34  1  0
  3 35  1  1
  4 36  1  0
  4 37  1  0
  4 38  1  0
  8 39  1  1
  9 40  1  0
  9 41  1  0
 10 42  1  1
 11 43  1  0
 11 44  1  0
 11 45  1  0
 12 46  1  0
 14 47  1  0
 15 48  1  0
 16 49  1  6
 17 50  1  0
 17 51  1  0
 17 52  1  0
 18 53  1  6
 19 54  1  0
 19 55  1  0
 20 56  1  0
 20 57  1  0
 21 58  1  0
 22 59  1  0
 22 60  1  0
 23 61  1  1
 24 62  1  0
 25 63  1  0
 25 64  1  0
 29 65  1  1
M  END
$$$$
