@<TRIPOS>MOLECULE
*****
 59 64 0 0 0
SMALL
GASTEIGER

@<TRIPOS>ATOM
      1 N          10.4004    4.7275    0.2054 N.1     1  UNL1       -0.1908
      2 C           9.4654    4.0169    0.2789 C.1     1  UNL1        0.1007
      3 C           8.3347    3.1359    0.3763 C.ar    1  UNL1        0.0699
      4 C           7.9270    2.5969    1.5784 C.ar    1  UNL1       -0.0407
      5 C           6.8370    1.7546    1.6443 C.ar    1  UNL1       -0.0300
      6 C           6.1419    1.4417    0.5029 C.ar    1  UNL1        0.1257
      7 C           4.9852    0.5602    0.5266 C.2     1  UNL1        0.2666
      8 O           4.5996    0.0477    1.6064 O.2     1  UNL1       -0.2682
      9 N           4.2617    0.2534   -0.6545 N.am    1  UNL1       -0.2802
     10 C           3.1275   -0.6084   -0.6568 C.ar    1  UNL1        0.0343
     11 C           3.2855   -1.9619   -0.8680 C.ar    1  UNL1       -0.0370
     12 C           2.2227   -2.8378   -0.8749 C.ar    1  UNL1       -0.0172
     13 C           0.9134   -2.3785   -0.6635 C.ar    1  UNL1        0.1346
     14 C           0.7541   -1.0420   -0.4559 C.ar    1  UNL1        0.0287
     15 C           1.8428   -0.1620   -0.4507 C.ar    1  UNL1       -0.0312
     16 C          -0.5952   -0.4305   -0.2563 C.3     1  UNL1        0.1265
     17 C          -0.7931    0.4405   -1.4788 C.3     1  UNL1        0.0155
     18 C          -1.7335    1.5877   -1.3542 C.3     1  UNL1        0.0953
     19 O          -1.6143    2.2313   -0.1137 O.2     1  UNL1       -0.4658
     20 C          -1.0871    1.5767    0.9912 C.2     1  UNL1        0.2763
     21 N          -1.0592    2.2684    2.2341 N.pl3   1  UNL1       -0.3134
     22 N          -0.6301    0.3795    0.9227 N.2     1  UNL1       -0.2205
     23 C          -1.6701   -1.4391   -0.2282 C.ar    1  UNL1        0.0334
     24 C          -2.9999   -1.0430   -0.0040 C.ar    1  UNL1       -0.0265
     25 C          -4.0547   -1.9205    0.0037 C.ar    1  UNL1        0.0705
     26 C          -5.4258   -1.4751    0.2427 C.2     1  UNL1       -0.0215
     27 C          -6.4104   -2.3627    0.2323 C.2     1  UNL1       -0.0534
     28 C          -7.7741   -1.8881    0.4751 C.3     1  UNL1        0.0665
     29 O          -8.0987   -0.6748   -0.0665 O.3     1  UNL1       -0.3754
     30 C          -7.0619    0.1708   -0.3543 C.3     1  UNL1        0.0521
     31 C          -5.8185   -0.0737    0.5054 C.3     1  UNL1       -0.0024
     32 N          -3.7784   -3.2238   -0.2169 N.ar    1  UNL1       -0.2164
     33 C          -2.5237   -3.6388   -0.4326 C.ar    1  UNL1        0.2566
     34 F          -2.2443   -4.9480   -0.6547 F       1  UNL1       -0.1799
     35 C          -1.4230   -2.7652   -0.4455 C.ar    1  UNL1        0.1883
     36 O          -0.1510   -3.2622   -0.6658 O.3     1  UNL1       -0.4508
     37 N           6.5304    1.9593   -0.6649 N.ar    1  UNL1       -0.2491
     38 C           7.5887    2.7776   -0.7288 C.ar    1  UNL1        0.0458
     39 H           8.4865    2.8529    2.4753 H       1  UNL1        0.0631
     40 H           6.5367    1.3420    2.6144 H       1  UNL1        0.0641
     41 H           4.6158    0.7067   -1.5484 H       1  UNL1        0.1552
     42 H           4.3164   -2.3119   -1.0331 H       1  UNL1        0.0637
     43 H           2.3618   -3.8929   -1.0414 H       1  UNL1        0.0655
     44 H           1.7142    0.8964   -0.2848 H       1  UNL1        0.0641
     45 H          -1.0331   -0.2003   -2.3716 H       1  UNL1        0.0328
     46 H           0.2173    0.8798   -1.7629 H       1  UNL1        0.0328
     47 H          -2.7916    1.3555   -1.6343 H       1  UNL1        0.0698
     48 H          -1.3676    2.3682   -2.1092 H       1  UNL1        0.0698
     49 H          -1.0466    1.7155    3.1157 H       1  UNL1        0.1466
     50 H          -1.0498    3.3119    2.3155 H       1  UNL1        0.1466
     51 H          -3.1857   -0.0126    0.1826 H       1  UNL1        0.0644
     52 H          -6.1666   -3.4183    0.0423 H       1  UNL1        0.0598
     53 H          -7.9183   -1.8746    1.5908 H       1  UNL1        0.0604
     54 H          -8.4628   -2.7105    0.1167 H       1  UNL1        0.0604
     55 H          -6.7333    0.0937   -1.4168 H       1  UNL1        0.0563
     56 H          -7.3968    1.2286   -0.2104 H       1  UNL1        0.0563
     57 H          -6.1793    0.0038    1.5524 H       1  UNL1        0.0336
     58 H          -5.0907    0.6792    0.2148 H       1  UNL1        0.0336
     59 H           7.9026    3.1962   -1.6766 H       1  UNL1        0.0843
@<TRIPOS>BOND
     1     1     2    3
     2     2     3    1
     3     3     4   ar
     4     4     5   ar
     5     5     6   ar
     6     6     7    1
     7     7     8    2
     8     7     9   am
     9     9    10    1
    10    10    11   ar
    11    11    12   ar
    12    12    13   ar
    13    13    14   ar
    14    14    15   ar
    15    14    16    1
    16    16    17    1
    17    17    18    1
    18    18    19    1
    19    19    20    1
    20    20    21    1
    21    20    22    2
    22    16    23    1
    23    23    24   ar
    24    24    25   ar
    25    25    26    1
    26    26    27    2
    27    27    28    1
    28    28    29    1
    29    29    30    1
    30    30    31    1
    31    25    32   ar
    32    32    33   ar
    33    33    34    1
    34    33    35   ar
    35    35    36    1
    36     6    37   ar
    37    37    38   ar
    38    38     3   ar
    39    15    10   ar
    40    22    16    1
    41    35    23   ar
    42    36    13    1
    43    31    26    1
    44     4    39    1
    45     5    40    1
    46     9    41    1
    47    11    42    1
    48    12    43    1
    49    15    44    1
    50    17    45    1
    51    17    46    1
    52    18    47    1
    53    18    48    1
    54    21    49    1
    55    21    50    1
    56    24    51    1
    57    27    52    1
    58    28    53    1
    59    28    54    1
    60    30    55    1
    61    30    56    1
    62    31    57    1
    63    31    58    1
    64    38    59    1
