
     RDKit          3D

 59 64  0  0  0  0  0  0  0  0999 V2000
   10.4004    4.7275    0.2054 N   0  0  0  0  0  0  0  0  0  0  0  0
    9.4654    4.0169    0.2789 C   0  0  0  0  0  0  0  0  0  0  0  0
    8.3347    3.1359    0.3763 C   0  0  0  0  0  0  0  0  0  0  0  0
    7.9270    2.5969    1.5784 C   0  0  0  0  0  0  0  0  0  0  0  0
    6.8370    1.7546    1.6443 C   0  0  0  0  0  0  0  0  0  0  0  0
    6.1419    1.4417    0.5029 C   0  0  0  0  0  0  0  0  0  0  0  0
    4.9852    0.5602    0.5266 C   0  0  0  0  0  0  0  0  0  0  0  0
    4.5996    0.0477    1.6064 O   0  0  0  0  0  0  0  0  0  0  0  0
    4.2617    0.2534   -0.6545 N   0  0  0  0  0  0  0  0  0  0  0  0
    3.1275   -0.6084   -0.6568 C   0  0  0  0  0  0  0  0  0  0  0  0
    3.2855   -1.9619   -0.8680 C   0  0  0  0  0  0  0  0  0  0  0  0
    2.2227   -2.8378   -0.8749 C   0  0  0  0  0  0  0  0  0  0  0  0
    0.9134   -2.3785   -0.6635 C   0  0  0  0  0  0  0  0  0  0  0  0
    0.7541   -1.0420   -0.4559 C   0  0  0  0  0  0  0  0  0  0  0  0
    1.8428   -0.1620   -0.4507 C   0  0  0  0  0  0  0  0  0  0  0  0
   -0.5952   -0.4305   -0.2563 C   0  0  0  0  0  0  0  0  0  0  0  0
   -0.7931    0.4405   -1.4788 C   0  0  0  0  0  0  0  0  0  0  0  0
   -1.7335    1.5877   -1.3542 C   0  0  0  0  0  0  0  0  0  0  0  0
   -1.6143    2.2313   -0.1137 O   0  0  0  0  0  0  0  0  0  0  0  0
   -1.0871    1.5767    0.9912 C   0  0  0  0  0  0  0  0  0  0  0  0
   -1.0592    2.2684    2.2341 N   0  0  0  0  0  0  0  0  0  0  0  0
   -0.6301    0.3795    0.9227 N   0  0  0  0  0  0  0  0  0  0  0  0
   -1.6701   -1.4391   -0.2282 C   0  0  0  0  0  0  0  0  0  0  0  0
   -2.9999   -1.0430   -0.0040 C   0  0  0  0  0  0  0  0  0  0  0  0
   -4.0547   -1.9205    0.0037 C   0  0  0  0  0  0  0  0  0  0  0  0
   -5.4258   -1.4751    0.2427 C   0  0  0  0  0  0  0  0  0  0  0  0
   -6.4104   -2.3627    0.2323 C   0  0  0  0  0  0  0  0  0  0  0  0
   -7.7741   -1.8881    0.4751 C   0  0  0  0  0  0  0  0  0  0  0  0
   -8.0987   -0.6748   -0.0665 O   0  0  0  0  0  0  0  0  0  0  0  0
   -7.0619    0.1708   -0.3543 C   0  0  0  0  0  0  0  0  0  0  0  0
   -5.8185   -0.0737    0.5054 C   0  0  0  0  0  0  0  0  0  0  0  0
   -3.7784   -3.2238   -0.2169 N   0  0  0  0  0  0  0  0  0  0  0  0
   -2.5237   -3.6388   -0.4326 C   0  0  0  0  0  0  0  0  0  0  0  0
   -2.2443   -4.9480   -0.6547 F   0  0  0  0  0  0  0  0  0  0  0  0
   -1.4230   -2.7652   -0.4455 C   0  0  0  0  0  0  0  0  0  0  0  0
   -0.1510   -3.2622   -0.6658 O   0  0  0  0  0  0  0  0  0  0  0  0
    6.5304    1.9593   -0.6649 N   0  0  0  0  0  0  0  0  0  0  0  0
    7.5887    2.7776   -0.7288 C   0  0  0  0  0  0  0  0  0  0  0  0
    8.4865    2.8529    2.4753 H   0  0  0  0  0  0  0  0  0  0  0  0
    6.5367    1.3420    2.6144 H   0  0  0  0  0  0  0  0  0  0  0  0
    4.6158    0.7067   -1.5484 H   0  0  0  0  0  0  0  0  0  0  0  0
    4.3164   -2.3119   -1.0331 H   0  0  0  0  0  0  0  0  0  0  0  0
    2.3618   -3.8929   -1.0414 H   0  0  0  0  0  0  0  0  0  0  0  0
    1.7142    0.8964   -0.2848 H   0  0  0  0  0  0  0  0  0  0  0  0
   -1.0331   -0.2003   -2.3716 H   0  0  0  0  0  0  0  0  0  0  0  0
    0.2173    0.8798   -1.7629 H   0  0  0  0  0  0  0  0  0  0  0  0
   -2.7916    1.3555   -1.6343 H   0  0  0  0  0  0  0  0  0  0  0  0
   -1.3676    2.3682   -2.1092 H   0  0  0  0  0  0  0  0  0  0  0  0
   -1.0466    1.7155    3.1157 H   0  0  0  0  0  0  0  0  0  0  0  0
   -1.0498    3.3119    2.3155 H   0  0  0  0  0  0  0  0  0  0  0  0
   -3.1857   -0.0126    0.1826 H   0  0  0  0  0  0  0  0  0  0  0  0
   -6.1666   -3.4183    0.0423 H   0  0  0  0  0  0  0  0  0  0  0  0
   -7.9183   -1.8746    1.5908 H   0  0  0  0  0  0  0  0  0  0  0  0
   -8.4628   -2.7105    0.1167 H   0  0  0  0  0  0  0  0  0  0  0  0
   -6.7333    0.0937   -1.4168 H   0  0  0  0  0  0  0  0  0  0  0  0
   -7.3968    1.2286   -0.2104 H   0  0  0  0  0  0  0  0  0  0  0  0
   -6.1793    0.0038    1.5524 H   0  0  0  0  0  0  0  0  0  0  0  0
   -5.0907    0.6792    0.2148 H   0  0  0  0  0  0  0  0  0  0  0  0
    7.9026    3.1962   -1.6766 H   0  0  0  0  0  0  0  0  0  0  0  0
  1  2  3  0
  2  3  1  0
  3  4  2  0
  4  5  1  0
  5  6  2  0
  6  7  1  0
  7  8  2  0
  7  9  1  0
  9 10  1  0
 10 11  2  0
 11 12  1  0
 12 13  2  0
 13 14  1  0
 14 15  2  0
 14 16  1  0
 16 17  1  0
 17 18  1  0
 18 19  1  0
 19 20  1  0
 20 21  1  0
 20 22  2  0
 16 23  1  0
 23 24  2  0
 24 25  1  0
 25 26  1  0
 26 27  2  0
 27 28  1  0
 28 29  1  0
 29 30  1  0
 30 31  1  0
 25 32  2  0
 32 33  1  0
 33 34  1  0
 33 35  2  0
 35 36  1  0
  6 37  1  0
 37 38  2  0
 38  3  1  0
 15 10  1  0
 22 16  1  0
 35 23  1  0
 36 13  1  0
 31 26  1  0
  4 39  1  0
  5 40  1  0
  9 41  1  0
 11 42  1  0
 12 43  1  0
 15 44  1  0
 17 45  1  0
 17 46  1  0
 18 47  1  0
 18 48  1  0
 21 49  1  0
 21 50  1  0
 24 51  1  0
 27 52  1  0
 28 53  1  0
 28 54  1  0
 30 55  1  0
 30 56  1  0
 31 57  1  0
 31 58  1  0
 38 59  1  0
M  END
$$$$
