@<TRIPOS>MOLECULE
*****
 60 64 0 0 0
SMALL
GASTEIGER

@<TRIPOS>ATOM
      1 C          -5.0275    0.5415   -0.0045 C.3     1  UNL1       -0.0274
      2 C          -4.0126   -0.3556   -0.6638 C.3     1  UNL1        0.1037
      3 O          -3.5929   -1.3060    0.2649 O.3     1  UNL1       -0.4725
      4 C          -2.2952   -1.4156    0.7411 C.ar    1  UNL1        0.2265
      5 N          -1.2981   -0.6071    0.3512 N.ar    1  UNL1       -0.2122
      6 C          -0.0402   -0.7201    0.8186 C.ar    1  UNL1        0.0769
      7 C           0.9953    0.2049    0.3412 C.ar    1  UNL1        0.0008
      8 C           0.6809    1.1827   -0.5799 C.ar    1  UNL1       -0.0523
      9 C           1.5993    2.0834   -1.0706 C.ar    1  UNL1       -0.0577
     10 C           2.9077    2.0295   -0.6376 C.ar    1  UNL1       -0.0429
     11 C           3.2513    1.0613    0.2841 C.ar    1  UNL1       -0.0423
     12 C           2.3014    0.1540    0.7711 C.ar    1  UNL1       -0.0491
     13 C           4.5959    0.8269    0.8809 C.3     1  UNL1       -0.0146
     14 C           5.1748    2.1183    1.4248 C.3     1  UNL1        0.0026
     15 N           5.6042    3.0274    0.4263 N.3     1  UNL1       -0.3047
     16 C           6.6776    2.5932   -0.3951 C.3     1  UNL1       -0.0127
     17 C           4.5960    3.7943   -0.2083 C.3     1  UNL1        0.0026
     18 C           3.7865    3.0398   -1.2330 C.3     1  UNL1       -0.0146
     19 C           0.1984   -1.7189    1.7349 C.ar    1  UNL1       -0.0077
     20 C          -0.7816   -2.5839    2.1778 C.ar    1  UNL1        0.0999
     21 N          -0.8563   -3.6169    3.0305 N.ar    1  UNL1       -0.1712
     22 N          -2.0737   -4.1170    3.0942 N.ar    1  UNL1       -0.2732
     23 C          -2.5398   -5.2444    3.9113 C.3     1  UNL1        0.0302
     24 C          -2.8268   -3.3881    2.2544 C.ar    1  UNL1        0.0380
     25 C          -2.0507   -2.4215    1.6652 C.ar    1  UNL1        0.0812
     26 C          -4.5550   -0.9875   -1.9267 C.3     1  UNL1        0.0196
     27 C          -4.9514    0.0378   -2.9385 C.3     1  UNL1        0.0182
     28 N          -3.6530    0.5778   -3.3397 N.am    1  UNL1       -0.3149
     29 C          -2.6782   -0.4485   -3.1861 C.2     1  UNL1        0.2135
     30 O          -1.4689   -0.3053   -3.4977 O.2     1  UNL1       -0.2758
     31 C          -3.3541   -1.6485   -2.6149 C.3     1  UNL1        0.0315
     32 H          -5.2155    1.4368   -0.6586 H       1  UNL1        0.0265
     33 H          -5.9532    0.0240    0.2563 H       1  UNL1        0.0265
     34 H          -4.5695    0.9323    0.9265 H       1  UNL1        0.0265
     35 H          -3.1432    0.2746   -0.9419 H       1  UNL1        0.0734
     36 H          -0.3361    1.2291   -0.9204 H       1  UNL1        0.0624
     37 H           1.3587    2.8492   -1.7904 H       1  UNL1        0.0621
     38 H           2.6142   -0.5873    1.4916 H       1  UNL1        0.0627
     39 H           4.4491    0.1617    1.7560 H       1  UNL1        0.0326
     40 H           5.2870    0.3194    0.1892 H       1  UNL1        0.0326
     41 H           4.3702    2.6007    2.0188 H       1  UNL1        0.0430
     42 H           5.9983    1.8887    2.1291 H       1  UNL1        0.0430
     43 H           6.8249    1.5113   -0.4583 H       1  UNL1        0.0391
     44 H           7.6300    3.0078    0.0439 H       1  UNL1        0.0391
     45 H           6.5842    3.0877   -1.3926 H       1  UNL1        0.0391
     46 H           3.9011    4.1809    0.5551 H       1  UNL1        0.0430
     47 H           5.0631    4.6524   -0.7217 H       1  UNL1        0.0430
     48 H           4.4810    2.6215   -2.0092 H       1  UNL1        0.0326
     49 H           3.1653    3.7835   -1.7668 H       1  UNL1        0.0326
     50 H           1.1748   -1.8509    2.1351 H       1  UNL1        0.0661
     51 H          -3.0261   -6.0231    3.2813 H       1  UNL1        0.0473
     52 H          -3.2644   -4.9036    4.6709 H       1  UNL1        0.0473
     53 H          -1.6527   -5.7336    4.3641 H       1  UNL1        0.0473
     54 H          -3.8796   -3.5150    2.0508 H       1  UNL1        0.0834
     55 H          -5.3330   -1.7305   -1.7193 H       1  UNL1        0.0356
     56 H          -5.6256    0.8135   -2.5651 H       1  UNL1        0.0466
     57 H          -5.3397   -0.4976   -3.8324 H       1  UNL1        0.0466
     58 H          -3.4898    1.5491   -3.6770 H       1  UNL1        0.1487
     59 H          -3.6871   -2.3434   -3.4182 H       1  UNL1        0.0363
     60 H          -2.6996   -2.1270   -1.8728 H       1  UNL1        0.0363
@<TRIPOS>BOND
     1     1     2    1
     2     2     3    1
     3     3     4    1
     4     4     5   ar
     5     5     6   ar
     6     6     7    1
     7     7     8   ar
     8     8     9   ar
     9     9    10   ar
    10    10    11   ar
    11    11    12   ar
    12    11    13    1
    13    13    14    1
    14    14    15    1
    15    15    16    1
    16    15    17    1
    17    17    18    1
    18     6    19   ar
    19    19    20   ar
    20    20    21   ar
    21    21    22   ar
    22    22    23    1
    23    22    24   ar
    24    24    25   ar
    25     2    26    1
    26    26    27    1
    27    27    28    1
    28    28    29   am
    29    29    30    2
    30    29    31    1
    31    25     4   ar
    32    31    26    1
    33    12     7   ar
    34    25    20   ar
    35    18    10    1
    36     1    32    1
    37     1    33    1
    38     1    34    1
    39     2    35    1
    40     8    36    1
    41     9    37    1
    42    12    38    1
    43    13    39    1
    44    13    40    1
    45    14    41    1
    46    14    42    1
    47    16    43    1
    48    16    44    1
    49    16    45    1
    50    17    46    1
    51    17    47    1
    52    18    48    1
    53    18    49    1
    54    19    50    1
    55    23    51    1
    56    23    52    1
    57    23    53    1
    58    24    54    1
    59    26    55    1
    60    27    56    1
    61    27    57    1
    62    28    58    1
    63    31    59    1
    64    31    60    1
