
     RDKit          3D

 60 64  0  0  0  0  0  0  0  0999 V2000
   -5.0275    0.5415   -0.0045 C   0  0  0  0  0  0  0  0  0  0  0  0
   -4.0126   -0.3556   -0.6638 C   0  0  1  0  0  0  0  0  0  0  0  0
   -3.5929   -1.3060    0.2649 O   0  0  0  0  0  0  0  0  0  0  0  0
   -2.2952   -1.4156    0.7411 C   0  0  0  0  0  0  0  0  0  0  0  0
   -1.2981   -0.6071    0.3512 N   0  0  0  0  0  0  0  0  0  0  0  0
   -0.0402   -0.7201    0.8186 C   0  0  0  0  0  0  0  0  0  0  0  0
    0.9953    0.2049    0.3412 C   0  0  0  0  0  0  0  0  0  0  0  0
    0.6809    1.1827   -0.5799 C   0  0  0  0  0  0  0  0  0  0  0  0
    1.5993    2.0834   -1.0706 C   0  0  0  0  0  0  0  0  0  0  0  0
    2.9077    2.0295   -0.6376 C   0  0  0  0  0  0  0  0  0  0  0  0
    3.2513    1.0613    0.2841 C   0  0  0  0  0  0  0  0  0  0  0  0
    2.3014    0.1540    0.7711 C   0  0  0  0  0  0  0  0  0  0  0  0
    4.5959    0.8269    0.8809 C   0  0  0  0  0  0  0  0  0  0  0  0
    5.1748    2.1183    1.4248 C   0  0  0  0  0  0  0  0  0  0  0  0
    5.6042    3.0274    0.4263 N   0  0  0  0  0  0  0  0  0  0  0  0
    6.6776    2.5932   -0.3951 C   0  0  0  0  0  0  0  0  0  0  0  0
    4.5960    3.7943   -0.2083 C   0  0  0  0  0  0  0  0  0  0  0  0
    3.7865    3.0398   -1.2330 C   0  0  0  0  0  0  0  0  0  0  0  0
    0.1984   -1.7189    1.7349 C   0  0  0  0  0  0  0  0  0  0  0  0
   -0.7816   -2.5839    2.1778 C   0  0  0  0  0  0  0  0  0  0  0  0
   -0.8563   -3.6169    3.0305 N   0  0  0  0  0  0  0  0  0  0  0  0
   -2.0737   -4.1170    3.0942 N   0  0  0  0  0  0  0  0  0  0  0  0
   -2.5398   -5.2444    3.9113 C   0  0  0  0  0  0  0  0  0  0  0  0
   -2.8268   -3.3881    2.2544 C   0  0  0  0  0  0  0  0  0  0  0  0
   -2.0507   -2.4215    1.6652 C   0  0  0  0  0  0  0  0  0  0  0  0
   -4.5550   -0.9875   -1.9267 C   0  0  1  0  0  0  0  0  0  0  0  0
   -4.9514    0.0378   -2.9385 C   0  0  0  0  0  0  0  0  0  0  0  0
   -3.6530    0.5778   -3.3397 N   0  0  0  0  0  0  0  0  0  0  0  0
   -2.6782   -0.4485   -3.1861 C   0  0  0  0  0  0  0  0  0  0  0  0
   -1.4689   -0.3053   -3.4977 O   0  0  0  0  0  0  0  0  0  0  0  0
   -3.3541   -1.6485   -2.6149 C   0  0  0  0  0  0  0  0  0  0  0  0
   -5.2155    1.4368   -0.6586 H   0  0  0  0  0  0  0  0  0  0  0  0
   -5.9532    0.0240    0.2563 H   0  0  0  0  0  0  0  0  0  0  0  0
   -4.5695    0.9323    0.9265 H   0  0  0  0  0  0  0  0  0  0  0  0
   -3.1432    0.2746   -0.9419 H   0  0  0  0  0  0  0  0  0  0  0  0
   -0.3361    1.2291   -0.9204 H   0  0  0  0  0  0  0  0  0  0  0  0
    1.3587    2.8492   -1.7904 H   0  0  0  0  0  0  0  0  0  0  0  0
    2.6142   -0.5873    1.4916 H   0  0  0  0  0  0  0  0  0  0  0  0
    4.4491    0.1617    1.7560 H   0  0  0  0  0  0  0  0  0  0  0  0
    5.2870    0.3194    0.1892 H   0  0  0  0  0  0  0  0  0  0  0  0
    4.3702    2.6007    2.0188 H   0  0  0  0  0  0  0  0  0  0  0  0
    5.9983    1.8887    2.1291 H   0  0  0  0  0  0  0  0  0  0  0  0
    6.8249    1.5113   -0.4583 H   0  0  0  0  0  0  0  0  0  0  0  0
    7.6300    3.0078    0.0439 H   0  0  0  0  0  0  0  0  0  0  0  0
    6.5842    3.0877   -1.3926 H   0  0  0  0  0  0  0  0  0  0  0  0
    3.9011    4.1809    0.5551 H   0  0  0  0  0  0  0  0  0  0  0  0
    5.0631    4.6524   -0.7217 H   0  0  0  0  0  0  0  0  0  0  0  0
    4.4810    2.6215   -2.0092 H   0  0  0  0  0  0  0  0  0  0  0  0
    3.1653    3.7835   -1.7668 H   0  0  0  0  0  0  0  0  0  0  0  0
    1.1748   -1.8509    2.1351 H   0  0  0  0  0  0  0  0  0  0  0  0
   -3.0261   -6.0231    3.2813 H   0  0  0  0  0  0  0  0  0  0  0  0
   -3.2644   -4.9036    4.6709 H   0  0  0  0  0  0  0  0  0  0  0  0
   -1.6527   -5.7336    4.3641 H   0  0  0  0  0  0  0  0  0  0  0  0
   -3.8796   -3.5150    2.0508 H   0  0  0  0  0  0  0  0  0  0  0  0
   -5.3330   -1.7305   -1.7193 H   0  0  0  0  0  0  0  0  0  0  0  0
   -5.6256    0.8135   -2.5651 H   0  0  0  0  0  0  0  0  0  0  0  0
   -5.3397   -0.4976   -3.8324 H   0  0  0  0  0  0  0  0  0  0  0  0
   -3.4898    1.5491   -3.6770 H   0  0  0  0  0  0  0  0  0  0  0  0
   -3.6871   -2.3434   -3.4182 H   0  0  0  0  0  0  0  0  0  0  0  0
   -2.6996   -2.1270   -1.8728 H   0  0  0  0  0  0  0  0  0  0  0  0
  1  2  1  0
  2  3  1  0
  3  4  1  0
  4  5  2  0
  5  6  1  0
  6  7  1  0
  7  8  2  0
  8  9  1  0
  9 10  2  0
 10 11  1  0
 11 12  2  0
 11 13  1  0
 13 14  1  0
 14 15  1  0
 15 16  1  0
 15 17  1  0
 17 18  1  0
  6 19  2  0
 19 20  1  0
 20 21  2  0
 21 22  1  0
 22 23  1  0
 22 24  1  0
 24 25  2  0
  2 26  1  0
 26 27  1  0
 27 28  1  0
 28 29  1  0
 29 30  2  0
 29 31  1  0
 25  4  1  0
 31 26  1  0
 12  7  1  0
 25 20  1  0
 18 10  1  0
  1 32  1  0
  1 33  1  0
  1 34  1  0
  2 35  1  6
  8 36  1  0
  9 37  1  0
 12 38  1  0
 13 39  1  0
 13 40  1  0
 14 41  1  0
 14 42  1  0
 16 43  1  0
 16 44  1  0
 16 45  1  0
 17 46  1  0
 17 47  1  0
 18 48  1  0
 18 49  1  0
 19 50  1  0
 23 51  1  0
 23 52  1  0
 23 53  1  0
 24 54  1  0
 26 55  1  1
 27 56  1  0
 27 57  1  0
 28 58  1  0
 31 59  1  0
 31 60  1  0
M  END
$$$$
