
     RDKit          3D

 44 46  0  0  0  0  0  0  0  0999 V2000
   -0.4346    4.0660    1.0178 C   0  0  0  0  0  0  0  0  0  0  0  0
   -1.2949    3.0736    0.5505 O   0  0  0  0  0  0  0  0  0  0  0  0
   -0.9186    1.7303    0.5938 C   0  0  0  0  0  0  0  0  0  0  0  0
    0.3204    1.3487    1.1021 C   0  0  0  0  0  0  0  0  0  0  0  0
    0.7058    0.0284    1.1502 C   0  0  0  0  0  0  0  0  0  0  0  0
    2.0285   -0.4298    1.6869 C   0  0  0  0  0  0  0  0  0  0  0  0
    3.0671   -0.5529    0.6405 C   0  0  0  0  0  0  0  0  0  0  0  0
    3.3745   -1.7968    0.1240 C   0  0  0  0  0  0  0  0  0  0  0  0
    4.3068   -1.9581   -0.8431 N   0  0  0  0  0  0  0  0  0  0  0  0
    4.9768   -0.9082   -1.3440 C   0  0  0  0  0  0  0  0  0  0  0  0
    5.9643   -1.0839   -2.3696 N   0  0  0  0  0  0  0  0  0  0  0  0
    4.6860    0.3086   -0.8482 N   0  0  0  0  0  0  0  0  0  0  0  0
    3.7659    0.5091    0.1130 C   0  0  0  0  0  0  0  0  0  0  0  0
    3.5521    1.8365    0.5672 N   0  0  0  0  0  0  0  0  0  0  0  0
   -0.2064   -0.8958    0.6664 C   0  0  0  0  0  0  0  0  0  0  0  0
   -1.4475   -0.5299    0.1562 C   0  0  0  0  0  0  0  0  0  0  0  0
   -1.8127    0.7957    0.1171 C   0  0  0  0  0  0  0  0  0  0  0  0
   -3.0935    1.1862   -0.4043 N   0  0  0  0  0  0  0  0  0  0  0  0
   -4.1566    0.2129   -0.2532 C   0  0  0  0  0  0  0  0  0  0  0  0
   -3.6771   -1.0849   -0.8205 C   0  0  0  0  0  0  0  0  0  0  0  0
   -4.7033   -2.2030   -0.5889 C   0  0  0  0  0  0  0  0  0  0  0  0
   -4.1544   -3.3555   -1.1497 O   0  0  0  0  0  0  0  0  0  0  0  0
   -2.3659   -1.5722   -0.3426 C   0  0  0  0  0  0  0  0  0  0  0  0
    0.4172    4.2638    0.3175 H   0  0  0  0  0  0  0  0  0  0  0  0
   -1.0056    5.0312    1.0518 H   0  0  0  0  0  0  0  0  0  0  0  0
   -0.0075    3.8092    1.9997 H   0  0  0  0  0  0  0  0  0  0  0  0
    0.9662    2.1082    1.4605 H   0  0  0  0  0  0  0  0  0  0  0  0
    2.3946    0.2917    2.4743 H   0  0  0  0  0  0  0  0  0  0  0  0
    1.8829   -1.3913    2.2380 H   0  0  0  0  0  0  0  0  0  0  0  0
    2.8656   -2.6783    0.4888 H   0  0  0  0  0  0  0  0  0  0  0  0
    5.8117   -0.7840   -3.3380 H   0  0  0  0  0  0  0  0  0  0  0  0
    6.8591   -1.5359   -2.0924 H   0  0  0  0  0  0  0  0  0  0  0  0
    3.2268    2.5670   -0.1008 H   0  0  0  0  0  0  0  0  0  0  0  0
    3.7391    2.0106    1.5796 H   0  0  0  0  0  0  0  0  0  0  0  0
    0.0759   -1.9559    0.6935 H   0  0  0  0  0  0  0  0  0  0  0  0
   -3.1936    2.1213   -0.8519 H   0  0  0  0  0  0  0  0  0  0  0  0
   -5.0664    0.5053   -0.8238 H   0  0  0  0  0  0  0  0  0  0  0  0
   -4.4185    0.0898    0.8381 H   0  0  0  0  0  0  0  0  0  0  0  0
   -3.6709   -0.9606   -1.9389 H   0  0  0  0  0  0  0  0  0  0  0  0
   -4.8868   -2.3685    0.4731 H   0  0  0  0  0  0  0  0  0  0  0  0
   -5.6384   -1.9597   -1.1300 H   0  0  0  0  0  0  0  0  0  0  0  0
   -4.4478   -3.4469   -2.1047 H   0  0  0  0  0  0  0  0  0  0  0  0
   -1.8579   -2.1032   -1.1985 H   0  0  0  0  0  0  0  0  0  0  0  0
   -2.5284   -2.3383    0.4513 H   0  0  0  0  0  0  0  0  0  0  0  0
  1  2  1  0
  2  3  1  0
  3  4  2  0
  4  5  1  0
  5  6  1  0
  6  7  1  0
  7  8  2  0
  8  9  1  0
  9 10  2  0
 10 11  1  0
 10 12  1  0
 12 13  2  0
 13 14  1  0
  5 15  2  0
 15 16  1  0
 16 17  2  0
 17 18  1  0
 18 19  1  0
 19 20  1  0
 20 21  1  0
 21 22  1  0
 20 23  1  0
 17  3  1  0
 13  7  1  0
 23 16  1  0
  1 24  1  0
  1 25  1  0
  1 26  1  0
  4 27  1  0
  6 28  1  0
  6 29  1  0
  8 30  1  0
 11 31  1  0
 11 32  1  0
 14 33  1  0
 14 34  1  0
 15 35  1  0
 18 36  1  0
 19 37  1  0
 19 38  1  0
 20 39  1  0
 21 40  1  0
 21 41  1  0
 22 42  1  0
 23 43  1  0
 23 44  1  0
M  END
$$$$
