@<TRIPOS>MOLECULE
*****
 44 46 0 0 0
SMALL
GASTEIGER

@<TRIPOS>ATOM
      1 C          -0.4346    4.0660    1.0178 C.3     1  UNL1        0.0789
      2 O          -1.2949    3.0736    0.5505 O.3     1  UNL1       -0.4932
      3 C          -0.9186    1.7303    0.5938 C.ar    1  UNL1        0.1413
      4 C           0.3204    1.3487    1.1021 C.ar    1  UNL1       -0.0146
      5 C           0.7058    0.0284    1.1502 C.ar    1  UNL1       -0.0391
      6 C           2.0285   -0.4298    1.6869 C.3     1  UNL1        0.0024
      7 C           3.0671   -0.5529    0.6405 C.ar    1  UNL1        0.0146
      8 C           3.3745   -1.7968    0.1240 C.ar    1  UNL1        0.0379
      9 N           4.3068   -1.9581   -0.8431 N.ar    1  UNL1       -0.2227
     10 C           4.9768   -0.9082   -1.3440 C.ar    1  UNL1        0.2142
     11 N           5.9643   -1.0839   -2.3696 N.pl3   1  UNL1       -0.3274
     12 N           4.6860    0.3086   -0.8482 N.ar    1  UNL1       -0.1999
     13 C           3.7659    0.5091    0.1130 C.ar    1  UNL1        0.1247
     14 N           3.5521    1.8365    0.5672 N.pl3   1  UNL1       -0.3428
     15 C          -0.2064   -0.8958    0.6664 C.ar    1  UNL1       -0.0531
     16 C          -1.4475   -0.5299    0.1562 C.ar    1  UNL1       -0.0223
     17 C          -1.8127    0.7957    0.1171 C.ar    1  UNL1        0.0726
     18 N          -3.0935    1.1862   -0.4043 N.pl3   1  UNL1       -0.3405
     19 C          -4.1566    0.2129   -0.2532 C.3     1  UNL1        0.0144
     20 C          -3.6771   -1.0849   -0.8205 C.3     1  UNL1        0.0017
     21 C          -4.7033   -2.2030   -0.5889 C.3     1  UNL1        0.0487
     22 O          -4.1544   -3.3555   -1.1497 O.3     1  UNL1       -0.3947
     23 C          -2.3659   -1.5722   -0.3426 C.3     1  UNL1       -0.0195
     24 H           0.4172    4.2638    0.3175 H       1  UNL1        0.0660
     25 H          -1.0056    5.0312    1.0518 H       1  UNL1        0.0660
     26 H          -0.0075    3.8092    1.9997 H       1  UNL1        0.0660
     27 H           0.9662    2.1082    1.4605 H       1  UNL1        0.0657
     28 H           2.3946    0.2917    2.4743 H       1  UNL1        0.0363
     29 H           1.8829   -1.3913    2.2380 H       1  UNL1        0.0363
     30 H           2.8656   -2.6783    0.4888 H       1  UNL1        0.0834
     31 H           5.8117   -0.7840   -3.3380 H       1  UNL1        0.1452
     32 H           6.8591   -1.5359   -2.0924 H       1  UNL1        0.1452
     33 H           3.2268    2.5670   -0.1008 H       1  UNL1        0.1437
     34 H           3.7391    2.0106    1.5796 H       1  UNL1        0.1437
     35 H           0.0759   -1.9559    0.6935 H       1  UNL1        0.0624
     36 H          -3.1936    2.1213   -0.8519 H       1  UNL1        0.1462
     37 H          -5.0664    0.5053   -0.8238 H       1  UNL1        0.0465
     38 H          -4.4185    0.0898    0.8381 H       1  UNL1        0.0465
     39 H          -3.6709   -0.9606   -1.9389 H       1  UNL1        0.0341
     40 H          -4.8868   -2.3685    0.4731 H       1  UNL1        0.0560
     41 H          -5.6384   -1.9597   -1.1300 H       1  UNL1        0.0560
     42 H          -4.4478   -3.4469   -2.1047 H       1  UNL1        0.2094
     43 H          -1.8579   -2.1032   -1.1985 H       1  UNL1        0.0318
     44 H          -2.5284   -2.3383    0.4513 H       1  UNL1        0.0318
@<TRIPOS>BOND
     1     1     2    1
     2     2     3    1
     3     3     4   ar
     4     4     5   ar
     5     5     6    1
     6     6     7    1
     7     7     8   ar
     8     8     9   ar
     9     9    10   ar
    10    10    11    1
    11    10    12   ar
    12    12    13   ar
    13    13    14    1
    14     5    15   ar
    15    15    16   ar
    16    16    17   ar
    17    17    18    1
    18    18    19    1
    19    19    20    1
    20    20    21    1
    21    21    22    1
    22    20    23    1
    23    17     3   ar
    24    13     7   ar
    25    23    16    1
    26     1    24    1
    27     1    25    1
    28     1    26    1
    29     4    27    1
    30     6    28    1
    31     6    29    1
    32     8    30    1
    33    11    31    1
    34    11    32    1
    35    14    33    1
    36    14    34    1
    37    15    35    1
    38    18    36    1
    39    19    37    1
    40    19    38    1
    41    20    39    1
    42    21    40    1
    43    21    41    1
    44    22    42    1
    45    23    43    1
    46    23    44    1
