@<TRIPOS>MOLECULE
*****
 34 36 0 0 0
SMALL
GASTEIGER

@<TRIPOS>ATOM
      1 C          -3.0817    3.3762    0.8066 C.3     1  UNL1       -0.0584
      2 C          -1.7992    2.6244    0.9668 C.3     1  UNL1        0.0034
      3 C          -1.8890    1.2274    0.4779 C.ar    1  UNL1        0.1168
      4 O          -2.9505    0.6108    0.0447 O.2     1  UNL1       -0.4590
      5 C          -2.6246   -0.6122   -0.2954 C.ar    1  UNL1        0.1359
      6 C          -3.4429   -1.6238   -0.8054 C.ar    1  UNL1       -0.0187
      7 C          -2.8507   -2.8363   -1.0787 C.ar    1  UNL1       -0.0582
      8 C          -1.5160   -3.0609   -0.8656 C.ar    1  UNL1       -0.0610
      9 C          -0.7115   -2.0331   -0.3546 C.ar    1  UNL1       -0.0503
     10 C          -1.2855   -0.8228   -0.0805 C.ar    1  UNL1        0.0313
     11 C          -0.7932    0.3797    0.4264 C.ar    1  UNL1        0.0708
     12 C           0.5278    0.7068    0.8608 C.2     1  UNL1        0.1971
     13 O           0.6248    1.5659    1.8223 O.2     1  UNL1       -0.2865
     14 C           1.7972    0.2213    0.3816 C.ar    1  UNL1        0.0247
     15 C           1.9989   -0.2111   -0.9161 C.ar    1  UNL1       -0.0333
     16 C           3.2141   -0.6841   -1.3561 C.ar    1  UNL1        0.0610
     17 BR          3.4409   -1.2691   -3.1637 Br      1  UNL1       -0.0465
     18 C           4.3074   -0.7528   -0.5177 C.ar    1  UNL1        0.1447
     19 O           5.5277   -1.2399   -1.0030 O.3     1  UNL1       -0.5045
     20 C           4.1331   -0.3271    0.7802 C.ar    1  UNL1        0.0610
     21 BR          5.6418   -0.4230    1.9437 Br      1  UNL1       -0.0465
     22 C           2.9204    0.1446    1.2190 C.ar    1  UNL1       -0.0333
     23 H          -3.8803    2.9443    1.4239 H       1  UNL1        0.0234
     24 H          -2.8940    4.4085    1.1927 H       1  UNL1        0.0234
     25 H          -3.4037    3.4835   -0.2466 H       1  UNL1        0.0234
     26 H          -1.5738    2.6260    2.0717 H       1  UNL1        0.0341
     27 H          -1.0079    3.1277    0.4001 H       1  UNL1        0.0341
     28 H          -4.5033   -1.4471   -0.9739 H       1  UNL1        0.0654
     29 H          -3.4776   -3.6142   -1.4710 H       1  UNL1        0.0619
     30 H          -1.0291   -4.0047   -1.0704 H       1  UNL1        0.0618
     31 H           0.3181   -2.1862   -0.1593 H       1  UNL1        0.0625
     32 H           1.1485   -0.1652   -1.6013 H       1  UNL1        0.0637
     33 H           6.3442   -0.6188   -1.1043 H       1  UNL1        0.2922
     34 H           2.7696    0.4853    2.2451 H       1  UNL1        0.0637
@<TRIPOS>BOND
     1     1     2    1
     2     2     3    1
     3     3     4   ar
     4     4     5   ar
     5     5     6   ar
     6     6     7   ar
     7     7     8   ar
     8     8     9   ar
     9     9    10   ar
    10    10    11   ar
    11    11    12    1
    12    12    13    2
    13    12    14    1
    14    14    15   ar
    15    15    16   ar
    16    16    17    1
    17    16    18   ar
    18    18    19    1
    19    18    20   ar
    20    20    21    1
    21    20    22   ar
    22    11     3   ar
    23    22    14   ar
    24    10     5   ar
    25     1    23    1
    26     1    24    1
    27     1    25    1
    28     2    26    1
    29     2    27    1
    30     6    28    1
    31     7    29    1
    32     8    30    1
    33     9    31    1
    34    15    32    1
    35    19    33    1
    36    22    34    1
