@<TRIPOS>MOLECULE
*****
 61 64 0 0 0
SMALL
GASTEIGER

@<TRIPOS>ATOM
      1 C          -3.5702    4.1151   -1.8647 C.3     1  UNL1       -0.0127
      2 N          -2.9325    2.9184   -1.4112 N.3     1  UNL1       -0.3040
      3 C          -2.9357    2.7860    0.0325 C.3     1  UNL1        0.0062
      4 C          -2.8183    1.3283    0.3135 C.3     1  UNL1        0.0092
      5 C          -1.3883    0.9500    0.4544 C.ar    1  UNL1       -0.0423
      6 C          -0.4900    1.1460   -0.5735 C.ar    1  UNL1       -0.0577
      7 C           0.8608    0.7918   -0.4499 C.ar    1  UNL1       -0.0543
      8 C           1.3245    0.2324    0.7190 C.ar    1  UNL1       -0.0249
      9 C           2.7002   -0.1705    0.9452 C.2     1  UNL1       -0.0497
     10 C           3.6833   -0.0573    0.0737 C.2     1  UNL1        0.0010
     11 C           5.0381   -0.4948    0.4007 C.2     1  UNL1        0.2411
     12 O           5.2514   -0.9836    1.5332 O.2     1  UNL1       -0.2705
     13 N           6.0593   -0.3562   -0.5581 N.am    1  UNL1       -0.2804
     14 C           7.4094   -0.7645   -0.3047 C.ar    1  UNL1        0.0545
     15 C           7.8486   -2.0401   -0.5907 C.ar    1  UNL1       -0.0387
     16 C           9.1745   -2.3959   -0.3310 C.ar    1  UNL1       -0.0599
     17 C          10.0703   -1.4854    0.2143 C.ar    1  UNL1       -0.0599
     18 C           9.6139   -0.2236    0.4912 C.ar    1  UNL1       -0.0392
     19 C           8.3146    0.1341    0.2396 C.ar    1  UNL1        0.0461
     20 N           7.8530    1.4396    0.5302 N.pl3   1  UNL1       -0.3565
     21 C           0.4183    0.0319    1.7633 C.ar    1  UNL1       -0.0543
     22 C          -0.9020    0.3898    1.6123 C.ar    1  UNL1       -0.0577
     23 C          -3.3545    0.6468   -0.8857 C.3     1  UNL1        0.0565
     24 C          -4.6572   -0.0354   -0.6540 C.2     1  UNL1        0.2221
     25 O          -5.6399    0.2965   -1.3143 O.2     1  UNL1       -0.2751
     26 N          -4.7678   -1.0498    0.3090 N.am    1  UNL1       -0.2852
     27 C          -5.9229   -1.7880    0.6431 C.ar    1  UNL1        0.0335
     28 C          -7.1356   -1.6397    0.0715 C.ar    1  UNL1       -0.0391
     29 C          -8.2207   -2.4245    0.4768 C.ar    1  UNL1       -0.0416
     30 C          -8.1050   -3.3760    1.4678 C.ar    1  UNL1        0.0411
     31 CL         -9.4710   -4.3413    1.9539 Cl      1  UNL1       -0.0835
     32 C          -6.8559   -3.5287    2.0567 C.ar    1  UNL1       -0.0416
     33 C          -5.8062   -2.7481    1.6431 C.ar    1  UNL1       -0.0391
     34 C          -3.5405    1.7066   -1.9188 C.3     1  UNL1        0.0103
     35 H          -3.1624    4.9580   -1.2559 H       1  UNL1        0.0391
     36 H          -3.2853    4.3236   -2.9117 H       1  UNL1        0.0391
     37 H          -4.6632    4.1280   -1.6986 H       1  UNL1        0.0391
     38 H          -2.1198    3.3669    0.5128 H       1  UNL1        0.0433
     39 H          -3.8824    3.2488    0.3919 H       1  UNL1        0.0433
     40 H          -3.3344    1.0328    1.2633 H       1  UNL1        0.0369
     41 H          -0.7864    1.5782   -1.5118 H       1  UNL1        0.0621
     42 H           1.5538    0.9458   -1.2516 H       1  UNL1        0.0624
     43 H           2.9849   -0.6119    1.9132 H       1  UNL1        0.0625
     44 H           3.4430    0.3741   -0.8949 H       1  UNL1        0.0670
     45 H           5.8218    0.0574   -1.4817 H       1  UNL1        0.1552
     46 H           7.1809   -2.7746   -1.0154 H       1  UNL1        0.0637
     47 H           9.4908   -3.4073   -0.5671 H       1  UNL1        0.0618
     48 H          11.0863   -1.7703    0.4091 H       1  UNL1        0.0618
     49 H          10.3183    0.4842    0.9175 H       1  UNL1        0.0636
     50 H           7.9523    1.8454    1.4720 H       1  UNL1        0.1424
     51 H           7.4060    1.9671   -0.2658 H       1  UNL1        0.1424
     52 H           0.7355   -0.4023    2.6971 H       1  UNL1        0.0624
     53 H          -1.5593    0.2074    2.4666 H       1  UNL1        0.0621
     54 H          -2.6735   -0.1743   -1.2648 H       1  UNL1        0.0413
     55 H          -3.8484   -1.2546    0.8249 H       1  UNL1        0.1548
     56 H          -7.3625   -0.9370   -0.7098 H       1  UNL1        0.0636
     57 H          -9.1900   -2.3033    0.0171 H       1  UNL1        0.0633
     58 H          -6.7781   -4.2758    2.8311 H       1  UNL1        0.0633
     59 H          -4.8574   -2.9144    2.1410 H       1  UNL1        0.0636
     60 H          -4.6185    1.8753   -2.1905 H       1  UNL1        0.0434
     61 H          -2.9579    1.4229   -2.8238 H       1  UNL1        0.0434
@<TRIPOS>BOND
     1     1     2    1
     2     2     3    1
     3     3     4    1
     4     4     5    1
     5     5     6   ar
     6     6     7   ar
     7     7     8   ar
     8     8     9    1
     9     9    10    2
    10    10    11    1
    11    11    12    2
    12    11    13   am
    13    13    14    1
    14    14    15   ar
    15    15    16   ar
    16    16    17   ar
    17    17    18   ar
    18    18    19   ar
    19    19    20    1
    20     8    21   ar
    21    21    22   ar
    22     4    23    1
    23    23    24    1
    24    24    25    2
    25    24    26   am
    26    26    27    1
    27    27    28   ar
    28    28    29   ar
    29    29    30   ar
    30    30    31    1
    31    30    32   ar
    32    32    33   ar
    33    23    34    1
    34    34     2    1
    35    22     5   ar
    36    33    27   ar
    37    19    14   ar
    38     1    35    1
    39     1    36    1
    40     1    37    1
    41     3    38    1
    42     3    39    1
    43     4    40    1
    44     6    41    1
    45     7    42    1
    46     9    43    1
    47    10    44    1
    48    13    45    1
    49    15    46    1
    50    16    47    1
    51    17    48    1
    52    18    49    1
    53    20    50    1
    54    20    51    1
    55    21    52    1
    56    22    53    1
    57    23    54    1
    58    26    55    1
    59    28    56    1
    60    29    57    1
    61    32    58    1
    62    33    59    1
    63    34    60    1
    64    34    61    1
