
     RDKit          3D

 61 64  0  0  0  0  0  0  0  0999 V2000
   -3.5702    4.1151   -1.8647 C   0  0  0  0  0  0  0  0  0  0  0  0
   -2.9325    2.9184   -1.4112 N   0  0  0  0  0  0  0  0  0  0  0  0
   -2.9357    2.7860    0.0325 C   0  0  0  0  0  0  0  0  0  0  0  0
   -2.8183    1.3283    0.3135 C   0  0  2  0  0  0  0  0  0  0  0  0
   -1.3883    0.9500    0.4544 C   0  0  0  0  0  0  0  0  0  0  0  0
   -0.4900    1.1460   -0.5735 C   0  0  0  0  0  0  0  0  0  0  0  0
    0.8608    0.7918   -0.4499 C   0  0  0  0  0  0  0  0  0  0  0  0
    1.3245    0.2324    0.7190 C   0  0  0  0  0  0  0  0  0  0  0  0
    2.7002   -0.1705    0.9452 C   0  0  0  0  0  0  0  0  0  0  0  0
    3.6833   -0.0573    0.0737 C   0  0  0  0  0  0  0  0  0  0  0  0
    5.0381   -0.4948    0.4007 C   0  0  0  0  0  0  0  0  0  0  0  0
    5.2514   -0.9836    1.5332 O   0  0  0  0  0  0  0  0  0  0  0  0
    6.0593   -0.3562   -0.5581 N   0  0  0  0  0  0  0  0  0  0  0  0
    7.4094   -0.7645   -0.3047 C   0  0  0  0  0  0  0  0  0  0  0  0
    7.8486   -2.0401   -0.5907 C   0  0  0  0  0  0  0  0  0  0  0  0
    9.1745   -2.3959   -0.3310 C   0  0  0  0  0  0  0  0  0  0  0  0
   10.0703   -1.4854    0.2143 C   0  0  0  0  0  0  0  0  0  0  0  0
    9.6139   -0.2236    0.4912 C   0  0  0  0  0  0  0  0  0  0  0  0
    8.3146    0.1341    0.2396 C   0  0  0  0  0  0  0  0  0  0  0  0
    7.8530    1.4396    0.5302 N   0  0  0  0  0  0  0  0  0  0  0  0
    0.4183    0.0319    1.7633 C   0  0  0  0  0  0  0  0  0  0  0  0
   -0.9020    0.3898    1.6123 C   0  0  0  0  0  0  0  0  0  0  0  0
   -3.3545    0.6468   -0.8857 C   0  0  1  0  0  0  0  0  0  0  0  0
   -4.6572   -0.0354   -0.6540 C   0  0  0  0  0  0  0  0  0  0  0  0
   -5.6399    0.2965   -1.3143 O   0  0  0  0  0  0  0  0  0  0  0  0
   -4.7678   -1.0498    0.3090 N   0  0  0  0  0  0  0  0  0  0  0  0
   -5.9229   -1.7880    0.6431 C   0  0  0  0  0  0  0  0  0  0  0  0
   -7.1356   -1.6397    0.0715 C   0  0  0  0  0  0  0  0  0  0  0  0
   -8.2207   -2.4245    0.4768 C   0  0  0  0  0  0  0  0  0  0  0  0
   -8.1050   -3.3760    1.4678 C   0  0  0  0  0  0  0  0  0  0  0  0
   -9.4710   -4.3413    1.9539 Cl  0  0  0  0  0  0  0  0  0  0  0  0
   -6.8559   -3.5287    2.0567 C   0  0  0  0  0  0  0  0  0  0  0  0
   -5.8062   -2.7481    1.6431 C   0  0  0  0  0  0  0  0  0  0  0  0
   -3.5405    1.7066   -1.9188 C   0  0  0  0  0  0  0  0  0  0  0  0
   -3.1624    4.9580   -1.2559 H   0  0  0  0  0  0  0  0  0  0  0  0
   -3.2853    4.3236   -2.9117 H   0  0  0  0  0  0  0  0  0  0  0  0
   -4.6632    4.1280   -1.6986 H   0  0  0  0  0  0  0  0  0  0  0  0
   -2.1198    3.3669    0.5128 H   0  0  0  0  0  0  0  0  0  0  0  0
   -3.8824    3.2488    0.3919 H   0  0  0  0  0  0  0  0  0  0  0  0
   -3.3344    1.0328    1.2633 H   0  0  0  0  0  0  0  0  0  0  0  0
   -0.7864    1.5782   -1.5118 H   0  0  0  0  0  0  0  0  0  0  0  0
    1.5538    0.9458   -1.2516 H   0  0  0  0  0  0  0  0  0  0  0  0
    2.9849   -0.6119    1.9132 H   0  0  0  0  0  0  0  0  0  0  0  0
    3.4430    0.3741   -0.8949 H   0  0  0  0  0  0  0  0  0  0  0  0
    5.8218    0.0574   -1.4817 H   0  0  0  0  0  0  0  0  0  0  0  0
    7.1809   -2.7746   -1.0154 H   0  0  0  0  0  0  0  0  0  0  0  0
    9.4908   -3.4073   -0.5671 H   0  0  0  0  0  0  0  0  0  0  0  0
   11.0863   -1.7703    0.4091 H   0  0  0  0  0  0  0  0  0  0  0  0
   10.3183    0.4842    0.9175 H   0  0  0  0  0  0  0  0  0  0  0  0
    7.9523    1.8454    1.4720 H   0  0  0  0  0  0  0  0  0  0  0  0
    7.4060    1.9671   -0.2658 H   0  0  0  0  0  0  0  0  0  0  0  0
    0.7355   -0.4023    2.6971 H   0  0  0  0  0  0  0  0  0  0  0  0
   -1.5593    0.2074    2.4666 H   0  0  0  0  0  0  0  0  0  0  0  0
   -2.6735   -0.1743   -1.2648 H   0  0  0  0  0  0  0  0  0  0  0  0
   -3.8484   -1.2546    0.8249 H   0  0  0  0  0  0  0  0  0  0  0  0
   -7.3625   -0.9370   -0.7098 H   0  0  0  0  0  0  0  0  0  0  0  0
   -9.1900   -2.3033    0.0171 H   0  0  0  0  0  0  0  0  0  0  0  0
   -6.7781   -4.2758    2.8311 H   0  0  0  0  0  0  0  0  0  0  0  0
   -4.8574   -2.9144    2.1410 H   0  0  0  0  0  0  0  0  0  0  0  0
   -4.6185    1.8753   -2.1905 H   0  0  0  0  0  0  0  0  0  0  0  0
   -2.9579    1.4229   -2.8238 H   0  0  0  0  0  0  0  0  0  0  0  0
  1  2  1  0
  2  3  1  0
  3  4  1  0
  4  5  1  0
  5  6  2  0
  6  7  1  0
  7  8  2  0
  8  9  1  0
  9 10  2  0
 10 11  1  0
 11 12  2  0
 11 13  1  0
 13 14  1  0
 14 15  2  0
 15 16  1  0
 16 17  2  0
 17 18  1  0
 18 19  2  0
 19 20  1  0
  8 21  1  0
 21 22  2  0
  4 23  1  0
 23 24  1  0
 24 25  2  0
 24 26  1  0
 26 27  1  0
 27 28  2  0
 28 29  1  0
 29 30  2  0
 30 31  1  0
 30 32  1  0
 32 33  2  0
 23 34  1  0
 34  2  1  0
 22  5  1  0
 33 27  1  0
 19 14  1  0
  1 35  1  0
  1 36  1  0
  1 37  1  0
  3 38  1  0
  3 39  1  0
  4 40  1  1
  6 41  1  0
  7 42  1  0
  9 43  1  0
 10 44  1  0
 13 45  1  0
 15 46  1  0
 16 47  1  0
 17 48  1  0
 18 49  1  0
 20 50  1  0
 20 51  1  0
 21 52  1  0
 22 53  1  0
 23 54  1  6
 26 55  1  0
 28 56  1  0
 29 57  1  0
 32 58  1  0
 33 59  1  0
 34 60  1  0
 34 61  1  0
M  END
$$$$
