@<TRIPOS>MOLECULE
*****
 54 56 0 0 0
SMALL
GASTEIGER

@<TRIPOS>ATOM
      1 C           9.9606    0.9551    1.1916 C.2     1  UNL1       -0.0938
      2 C           8.8734    0.2936    1.5123 C.2     1  UNL1       -0.0066
      3 C           7.6143    0.6874    0.8640 C.2     1  UNL1        0.2405
      4 O           7.5807    1.6208    0.0335 O.2     1  UNL1       -0.2705
      5 N           6.4412   -0.0081    1.1982 N.am    1  UNL1       -0.2820
      6 C           5.1623    0.2851    0.6474 C.ar    1  UNL1        0.0338
      7 C           4.3260    1.2115    1.2264 C.ar    1  UNL1       -0.0386
      8 C           3.0727    1.5451    0.7596 C.ar    1  UNL1       -0.0336
      9 C           2.6119    0.8987   -0.3843 C.ar    1  UNL1        0.1056
     10 S           1.0361    1.2619   -1.0512 S.O2    1  UNL1        0.0609
     11 O           0.7129    2.7003   -0.6638 O.2     1  UNL1       -0.1528
     12 O           1.0517    1.2265   -2.5461 O.2     1  UNL1       -0.1528
     13 N          -0.1175    0.2639   -0.3259 N.3     1  UNL1       -0.1736
     14 C          -0.0023   -1.1132   -0.4891 C.3     1  UNL1        0.0364
     15 C          -1.0874   -2.0115   -0.0137 C.3     1  UNL1        0.0306
     16 N          -2.3115   -1.2060    0.2886 N.am    1  UNL1       -0.2829
     17 C          -3.4965   -1.6503   -0.2275 C.2     1  UNL1        0.3049
     18 O          -3.4676   -2.8128   -0.8932 O.2     1  UNL1       -0.2524
     19 N          -4.7642   -1.0413   -0.1584 N.am    1  UNL1       -0.2851
     20 C          -4.9818    0.2270    0.4777 C.3     1  UNL1        0.0215
     21 C          -6.3280    0.7959   -0.0149 C.3     1  UNL1        0.0266
     22 C          -6.4839    0.6009   -1.5015 C.3     1  UNL1        0.2518
     23 F          -5.4790    1.2765   -2.1484 F       1  UNL1       -0.2056
     24 F          -7.6860    1.1703   -1.8532 F       1  UNL1       -0.2056
     25 C          -6.5392   -0.8703   -1.8611 C.3     1  UNL1        0.0266
     26 C          -5.9348   -1.7187   -0.7629 C.3     1  UNL1        0.0215
     27 C          -2.0361   -0.0831    1.0990 C.3     1  UNL1        0.0306
     28 C          -1.2652    0.8865    0.1781 C.3     1  UNL1        0.0364
     29 C           3.4179   -0.0237   -0.9809 C.ar    1  UNL1       -0.0336
     30 C           4.6860   -0.3482   -0.4915 C.ar    1  UNL1       -0.0386
     31 H          10.0327    1.7653    0.4943 H       1  UNL1        0.0536
     32 H          10.9126    0.6700    1.6783 H       1  UNL1        0.0536
     33 H           8.9129   -0.5105    2.2334 H       1  UNL1        0.0663
     34 H           6.5021   -0.7900    1.8906 H       1  UNL1        0.1551
     35 H           4.7239    1.6996    2.1259 H       1  UNL1        0.0637
     36 H           2.4361    2.2612    1.2161 H       1  UNL1        0.0638
     37 H           0.9747   -1.4848   -0.0864 H       1  UNL1        0.0459
     38 H           0.0957   -1.3161   -1.6066 H       1  UNL1        0.0459
     39 H          -0.7918   -2.3931    1.0023 H       1  UNL1        0.0478
     40 H          -1.3160   -2.8754   -0.6278 H       1  UNL1        0.0478
     41 H          -4.2332    0.9335    0.0796 H       1  UNL1        0.0467
     42 H          -5.0469    0.1839    1.5667 H       1  UNL1        0.0467
     43 H          -7.1408    0.3907    0.5927 H       1  UNL1        0.0338
     44 H          -6.2593    1.8997    0.1623 H       1  UNL1        0.0338
     45 H          -6.0183   -0.9936   -2.8283 H       1  UNL1        0.0338
     46 H          -7.5900   -1.1850   -2.0001 H       1  UNL1        0.0338
     47 H          -6.6395   -1.9344    0.0383 H       1  UNL1        0.0467
     48 H          -5.5656   -2.6527   -1.2150 H       1  UNL1        0.0467
     49 H          -2.8062    0.3785    1.6856 H       1  UNL1        0.0478
     50 H          -1.1855   -0.4164    1.8123 H       1  UNL1        0.0478
     51 H          -1.9767    1.2487   -0.6022 H       1  UNL1        0.0459
     52 H          -0.9855    1.7319    0.8438 H       1  UNL1        0.0459
     53 H           3.0765   -0.5426   -1.8767 H       1  UNL1        0.0638
     54 H           5.3212   -1.0882   -0.9751 H       1  UNL1        0.0637
@<TRIPOS>BOND
     1     1     2    2
     2     2     3    1
     3     3     4    2
     4     3     5   am
     5     5     6    1
     6     6     7   ar
     7     7     8   ar
     8     8     9   ar
     9     9    10    1
    10    10    11    2
    11    10    12    2
    12    10    13    1
    13    13    14    1
    14    14    15    1
    15    15    16    1
    16    16    17   am
    17    17    18    2
    18    17    19   am
    19    19    20    1
    20    20    21    1
    21    21    22    1
    22    22    23    1
    23    22    24    1
    24    22    25    1
    25    25    26    1
    26    16    27    1
    27    27    28    1
    28     9    29   ar
    29    29    30   ar
    30    30     6   ar
    31    28    13    1
    32    26    19    1
    33     1    31    1
    34     1    32    1
    35     2    33    1
    36     5    34    1
    37     7    35    1
    38     8    36    1
    39    14    37    1
    40    14    38    1
    41    15    39    1
    42    15    40    1
    43    20    41    1
    44    20    42    1
    45    21    43    1
    46    21    44    1
    47    25    45    1
    48    25    46    1
    49    26    47    1
    50    26    48    1
    51    27    49    1
    52    27    50    1
    53    28    51    1
    54    28    52    1
    55    29    53    1
    56    30    54    1
