
     RDKit          3D

 54 56  0  0  0  0  0  0  0  0999 V2000
    9.9606    0.9551    1.1916 C   0  0  0  0  0  0  0  0  0  0  0  0
    8.8734    0.2936    1.5123 C   0  0  0  0  0  0  0  0  0  0  0  0
    7.6143    0.6874    0.8640 C   0  0  0  0  0  0  0  0  0  0  0  0
    7.5807    1.6208    0.0335 O   0  0  0  0  0  0  0  0  0  0  0  0
    6.4412   -0.0081    1.1982 N   0  0  0  0  0  0  0  0  0  0  0  0
    5.1623    0.2851    0.6474 C   0  0  0  0  0  0  0  0  0  0  0  0
    4.3260    1.2115    1.2264 C   0  0  0  0  0  0  0  0  0  0  0  0
    3.0727    1.5451    0.7596 C   0  0  0  0  0  0  0  0  0  0  0  0
    2.6119    0.8987   -0.3843 C   0  0  0  0  0  0  0  0  0  0  0  0
    1.0361    1.2619   -1.0512 S   0  0  0  0  0  6  0  0  0  0  0  0
    0.7129    2.7003   -0.6638 O   0  0  0  0  0  0  0  0  0  0  0  0
    1.0517    1.2265   -2.5461 O   0  0  0  0  0  0  0  0  0  0  0  0
   -0.1175    0.2639   -0.3259 N   0  0  0  0  0  0  0  0  0  0  0  0
   -0.0023   -1.1132   -0.4891 C   0  0  0  0  0  0  0  0  0  0  0  0
   -1.0874   -2.0115   -0.0137 C   0  0  0  0  0  0  0  0  0  0  0  0
   -2.3115   -1.2060    0.2886 N   0  0  0  0  0  0  0  0  0  0  0  0
   -3.4965   -1.6503   -0.2275 C   0  0  0  0  0  0  0  0  0  0  0  0
   -3.4676   -2.8128   -0.8932 O   0  0  0  0  0  0  0  0  0  0  0  0
   -4.7642   -1.0413   -0.1584 N   0  0  0  0  0  0  0  0  0  0  0  0
   -4.9818    0.2270    0.4777 C   0  0  0  0  0  0  0  0  0  0  0  0
   -6.3280    0.7959   -0.0149 C   0  0  0  0  0  0  0  0  0  0  0  0
   -6.4839    0.6009   -1.5015 C   0  0  0  0  0  0  0  0  0  0  0  0
   -5.4790    1.2765   -2.1484 F   0  0  0  0  0  0  0  0  0  0  0  0
   -7.6860    1.1703   -1.8532 F   0  0  0  0  0  0  0  0  0  0  0  0
   -6.5392   -0.8703   -1.8611 C   0  0  0  0  0  0  0  0  0  0  0  0
   -5.9348   -1.7187   -0.7629 C   0  0  0  0  0  0  0  0  0  0  0  0
   -2.0361   -0.0831    1.0990 C   0  0  0  0  0  0  0  0  0  0  0  0
   -1.2652    0.8865    0.1781 C   0  0  0  0  0  0  0  0  0  0  0  0
    3.4179   -0.0237   -0.9809 C   0  0  0  0  0  0  0  0  0  0  0  0
    4.6860   -0.3482   -0.4915 C   0  0  0  0  0  0  0  0  0  0  0  0
   10.0327    1.7653    0.4943 H   0  0  0  0  0  0  0  0  0  0  0  0
   10.9126    0.6700    1.6783 H   0  0  0  0  0  0  0  0  0  0  0  0
    8.9129   -0.5105    2.2334 H   0  0  0  0  0  0  0  0  0  0  0  0
    6.5021   -0.7900    1.8906 H   0  0  0  0  0  0  0  0  0  0  0  0
    4.7239    1.6996    2.1259 H   0  0  0  0  0  0  0  0  0  0  0  0
    2.4361    2.2612    1.2161 H   0  0  0  0  0  0  0  0  0  0  0  0
    0.9747   -1.4848   -0.0864 H   0  0  0  0  0  0  0  0  0  0  0  0
    0.0957   -1.3161   -1.6066 H   0  0  0  0  0  0  0  0  0  0  0  0
   -0.7918   -2.3931    1.0023 H   0  0  0  0  0  0  0  0  0  0  0  0
   -1.3160   -2.8754   -0.6278 H   0  0  0  0  0  0  0  0  0  0  0  0
   -4.2332    0.9335    0.0796 H   0  0  0  0  0  0  0  0  0  0  0  0
   -5.0469    0.1839    1.5667 H   0  0  0  0  0  0  0  0  0  0  0  0
   -7.1408    0.3907    0.5927 H   0  0  0  0  0  0  0  0  0  0  0  0
   -6.2593    1.8997    0.1623 H   0  0  0  0  0  0  0  0  0  0  0  0
   -6.0183   -0.9936   -2.8283 H   0  0  0  0  0  0  0  0  0  0  0  0
   -7.5900   -1.1850   -2.0001 H   0  0  0  0  0  0  0  0  0  0  0  0
   -6.6395   -1.9344    0.0383 H   0  0  0  0  0  0  0  0  0  0  0  0
   -5.5656   -2.6527   -1.2150 H   0  0  0  0  0  0  0  0  0  0  0  0
   -2.8062    0.3785    1.6856 H   0  0  0  0  0  0  0  0  0  0  0  0
   -1.1855   -0.4164    1.8123 H   0  0  0  0  0  0  0  0  0  0  0  0
   -1.9767    1.2487   -0.6022 H   0  0  0  0  0  0  0  0  0  0  0  0
   -0.9855    1.7319    0.8438 H   0  0  0  0  0  0  0  0  0  0  0  0
    3.0765   -0.5426   -1.8767 H   0  0  0  0  0  0  0  0  0  0  0  0
    5.3212   -1.0882   -0.9751 H   0  0  0  0  0  0  0  0  0  0  0  0
  1  2  2  3
  2  3  1  0
  3  4  2  0
  3  5  1  0
  5  6  1  0
  6  7  2  0
  7  8  1  0
  8  9  2  0
  9 10  1  0
 10 11  2  0
 10 12  2  0
 10 13  1  0
 13 14  1  0
 14 15  1  0
 15 16  1  0
 16 17  1  0
 17 18  2  0
 17 19  1  0
 19 20  1  0
 20 21  1  0
 21 22  1  0
 22 23  1  0
 22 24  1  0
 22 25  1  0
 25 26  1  0
 16 27  1  0
 27 28  1  0
  9 29  1  0
 29 30  2  0
 30  6  1  0
 28 13  1  0
 26 19  1  0
  1 31  1  0
  1 32  1  0
  2 33  1  0
  5 34  1  0
  7 35  1  0
  8 36  1  0
 14 37  1  0
 14 38  1  0
 15 39  1  0
 15 40  1  0
 20 41  1  0
 20 42  1  0
 21 43  1  0
 21 44  1  0
 25 45  1  0
 25 46  1  0
 26 47  1  0
 26 48  1  0
 27 49  1  0
 27 50  1  0
 28 51  1  0
 28 52  1  0
 29 53  1  0
 30 54  1  0
M  END
$$$$
