@<TRIPOS>MOLECULE
*****
 64 68 0 0 0
SMALL
GASTEIGER

@<TRIPOS>ATOM
      1 O           6.9963   -0.9115    1.7864 O.2     1  UNL1       -0.2699
      2 C           7.4217   -0.8021    0.6062 C.2     1  UNL1        0.2483
      3 N           6.5757   -0.1285   -0.3052 N.am    1  UNL1       -0.2815
      4 C           5.3130    0.4078    0.0505 C.ar    1  UNL1        0.0344
      5 C           5.2489    1.7052    0.5033 C.ar    1  UNL1       -0.0397
      6 C           4.0539    2.3022    0.8704 C.ar    1  UNL1       -0.0471
      7 C           2.8931    1.5627    0.7754 C.ar    1  UNL1        0.0495
      8 C           2.9170    0.2519    0.3236 C.ar    1  UNL1        0.0512
      9 C           4.1459   -0.3141   -0.0375 C.ar    1  UNL1       -0.0276
     10 C           1.5445   -0.2501    0.3386 C.2     1  UNL1        0.2539
     11 O           1.1856   -1.4007   -0.0063 O.2     1  UNL1       -0.2695
     12 N           0.6673    0.7759    0.8091 N.am    1  UNL1       -0.2341
     13 C          -0.7732    0.7093    0.9818 C.3     1  UNL1        0.0232
     14 C          -1.4174    1.1518   -0.3173 C.3     1  UNL1       -0.0337
     15 C          -2.9222    1.1145   -0.2313 C.3     1  UNL1       -0.0373
     16 C          -3.3961   -0.2776    0.0673 C.3     1  UNL1       -0.0373
     17 C          -4.9025   -0.4018   -0.0305 C.3     1  UNL1       -0.0005
     18 N          -5.4522    0.4771   -1.0327 N.3     1  UNL1       -0.2981
     19 C          -6.6802    0.0169   -1.6027 C.3     1  UNL1        0.0240
     20 C          -7.7530   -0.1356   -0.6018 C.ar    1  UNL1       -0.0334
     21 C          -8.5690    0.9465   -0.3409 C.ar    1  UNL1       -0.0573
     22 C          -9.5794    0.8240    0.5914 C.ar    1  UNL1       -0.0615
     23 C          -9.7784   -0.3656    1.2605 C.ar    1  UNL1       -0.0617
     24 C          -8.9804   -1.4625    1.0214 C.ar    1  UNL1       -0.0615
     25 C          -7.9709   -1.3088    0.0769 C.ar    1  UNL1       -0.0573
     26 C          -4.4830    0.7252   -2.0682 C.3     1  UNL1       -0.0005
     27 C          -3.4629    1.6928   -1.5095 C.3     1  UNL1       -0.0373
     28 C           1.5096    1.9050    1.0809 C.2     1  UNL1        0.2538
     29 O           1.1027    3.0195    1.5177 O.2     1  UNL1       -0.2695
     30 C           8.7310   -1.3595    0.2431 C.ar    1  UNL1        0.0370
     31 C           9.4751   -1.9974    1.2143 C.ar    1  UNL1       -0.0496
     32 C          10.7104   -2.5465    0.9560 C.ar    1  UNL1       -0.0610
     33 C          11.2327   -2.4647   -0.3049 C.ar    1  UNL1       -0.0617
     34 C          10.5068   -1.8354   -1.2781 C.ar    1  UNL1       -0.0610
     35 C           9.2510   -1.2788   -1.0097 C.ar    1  UNL1       -0.0496
     36 H           6.9150   -0.0268   -1.3003 H       1  UNL1        0.1551
     37 H           6.1586    2.2762    0.5748 H       1  UNL1        0.0636
     38 H           3.9807    3.3194    1.2284 H       1  UNL1        0.0626
     39 H           4.1859   -1.3427   -0.3950 H       1  UNL1        0.0644
     40 H          -1.0492    1.3789    1.8291 H       1  UNL1        0.0470
     41 H          -1.0458   -0.3239    1.2595 H       1  UNL1        0.0470
     42 H          -1.0754    0.4402   -1.0984 H       1  UNL1        0.0283
     43 H          -1.0704    2.1896   -0.5078 H       1  UNL1        0.0283
     44 H          -3.2067    1.7688    0.6313 H       1  UNL1        0.0302
     45 H          -2.8865   -1.0531   -0.5157 H       1  UNL1        0.0280
     46 H          -3.1426   -0.4789    1.1403 H       1  UNL1        0.0280
     47 H          -5.3830   -0.2850    0.9583 H       1  UNL1        0.0427
     48 H          -5.0975   -1.4487   -0.3945 H       1  UNL1        0.0427
     49 H          -7.0088    0.7604   -2.3480 H       1  UNL1        0.0476
     50 H          -6.5337   -0.9427   -2.1615 H       1  UNL1        0.0476
     51 H          -8.4601    1.9085   -0.8366 H       1  UNL1        0.0621
     52 H         -10.2494    1.6415    0.8351 H       1  UNL1        0.0618
     53 H         -10.5824   -0.4502    1.9970 H       1  UNL1        0.0618
     54 H          -9.1376   -2.4016    1.5497 H       1  UNL1        0.0618
     55 H          -7.3579   -2.1786   -0.0963 H       1  UNL1        0.0621
     56 H          -3.9643   -0.2332   -2.2685 H       1  UNL1        0.0427
     57 H          -4.9794    1.1327   -2.9720 H       1  UNL1        0.0427
     58 H          -2.6491    1.9021   -2.2604 H       1  UNL1        0.0280
     59 H          -3.9375    2.6892   -1.3083 H       1  UNL1        0.0280
     60 H           9.0511   -2.0572    2.2137 H       1  UNL1        0.0625
     61 H          11.2924   -3.0525    1.7419 H       1  UNL1        0.0618
     62 H          12.2167   -2.9046   -0.5011 H       1  UNL1        0.0618
     63 H          10.9303   -1.7745   -2.2808 H       1  UNL1        0.0618
     64 H           8.7250   -0.8000   -1.7986 H       1  UNL1        0.0625
@<TRIPOS>BOND
     1     1     2    2
     2     2     3   am
     3     3     4    1
     4     4     5   ar
     5     5     6   ar
     6     6     7   ar
     7     7     8   ar
     8     8     9   ar
     9     8    10    1
    10    10    11    2
    11    10    12   am
    12    12    13    1
    13    13    14    1
    14    14    15    1
    15    15    16    1
    16    16    17    1
    17    17    18    1
    18    18    19    1
    19    19    20    1
    20    20    21   ar
    21    21    22   ar
    22    22    23   ar
    23    23    24   ar
    24    24    25   ar
    25    18    26    1
    26    26    27    1
    27    12    28   am
    28    28    29    2
    29     2    30    1
    30    30    31   ar
    31    31    32   ar
    32    32    33   ar
    33    33    34   ar
    34    34    35   ar
    35     9     4   ar
    36    27    15    1
    37    35    30   ar
    38    28     7    1
    39    25    20   ar
    40     3    36    1
    41     5    37    1
    42     6    38    1
    43     9    39    1
    44    13    40    1
    45    13    41    1
    46    14    42    1
    47    14    43    1
    48    15    44    1
    49    16    45    1
    50    16    46    1
    51    17    47    1
    52    17    48    1
    53    19    49    1
    54    19    50    1
    55    21    51    1
    56    22    52    1
    57    23    53    1
    58    24    54    1
    59    25    55    1
    60    26    56    1
    61    26    57    1
    62    27    58    1
    63    27    59    1
    64    31    60    1
    65    32    61    1
    66    33    62    1
    67    34    63    1
    68    35    64    1
