
     RDKit          3D

 47 50  0  0  0  0  0  0  0  0999 V2000
   -2.8656    2.9765   -1.0662 N   0  0  0  0  0  0  0  0  0  0  0  0
   -2.2367    2.0871   -0.0880 C   0  0  2  0  0  0  0  0  0  0  0  0
   -1.4446    2.9040    0.8686 C   0  0  0  0  0  0  0  0  0  0  0  0
   -0.0319    2.4014    1.0820 C   0  0  0  0  0  0  0  0  0  0  0  0
   -0.1523    0.8784    1.2510 C   0  0  0  0  0  0  0  0  0  0  0  0
   -0.4755    0.3698   -0.0554 N   0  0  0  0  0  0  0  0  0  0  0  0
    0.1194   -0.7842   -0.6402 C   0  0  0  0  0  0  0  0  0  0  0  0
    1.2948   -0.6504   -1.3578 C   0  0  0  0  0  0  0  0  0  0  0  0
    1.9238    0.6359   -1.5063 C   0  0  0  0  0  0  0  0  0  0  0  0
    3.1679    0.8284   -1.1799 C   0  0  0  0  0  0  0  0  0  0  0  0
    4.0701    2.4140   -1.3333 S   0  0  0  0  0  0  0  0  0  0  0  0
    5.5958    1.7945   -0.6554 C   0  0  0  0  0  0  0  0  0  0  0  0
    6.7480    2.5323   -0.4927 O   0  0  0  0  0  0  0  0  0  0  0  0
    5.4194    0.5907   -0.3645 N   0  0  0  0  0  0  0  0  0  0  0  0
    4.1987   -0.0096   -0.5925 C   0  0  0  0  0  0  0  0  0  0  0  0
    4.0060   -1.2493   -0.2893 O   0  0  0  0  0  0  0  0  0  0  0  0
    1.8574   -1.7291   -1.9665 C   0  0  0  0  0  0  0  0  0  0  0  0
    1.2905   -2.9824   -1.8940 C   0  0  0  0  0  0  0  0  0  0  0  0
    0.1246   -3.1139   -1.1808 C   0  0  0  0  0  0  0  0  0  0  0  0
   -0.4705   -2.0065   -0.5458 C   0  0  0  0  0  0  0  0  0  0  0  0
   -1.6872   -2.2890    0.1848 C   0  0  0  0  0  0  0  0  0  0  0  0
   -1.8200   -2.0418    1.5197 C   0  0  0  0  0  0  0  0  0  0  0  0
   -3.0453   -2.3196    2.1634 C   0  0  0  0  0  0  0  0  0  0  0  0
   -4.0761   -2.8258    1.4653 N   0  0  0  0  0  0  0  0  0  0  0  0
   -3.9667   -3.0747    0.1633 C   0  0  0  0  0  0  0  0  0  0  0  0
   -2.7631   -2.8082   -0.4995 C   0  0  0  0  0  0  0  0  0  0  0  0
   -1.4741    1.0589   -0.8396 C   0  0  0  0  0  0  0  0  0  0  0  0
   -2.1818    3.1936   -1.8258 H   0  0  0  0  0  0  0  0  0  0  0  0
   -3.6906    2.5089   -1.5157 H   0  0  0  0  0  0  0  0  0  0  0  0
   -3.1008    1.6254    0.4697 H   0  0  0  0  0  0  0  0  0  0  0  0
   -1.9627    2.9760    1.8705 H   0  0  0  0  0  0  0  0  0  0  0  0
   -1.3579    3.9643    0.5277 H   0  0  0  0  0  0  0  0  0  0  0  0
    0.5518    2.6787    0.1970 H   0  0  0  0  0  0  0  0  0  0  0  0
    0.3803    2.8710    1.9844 H   0  0  0  0  0  0  0  0  0  0  0  0
    0.7843    0.4546    1.6487 H   0  0  0  0  0  0  0  0  0  0  0  0
   -0.9896    0.7267    1.9887 H   0  0  0  0  0  0  0  0  0  0  0  0
    1.3524    1.4561   -1.8970 H   0  0  0  0  0  0  0  0  0  0  0  0
    7.6703    2.0963   -0.3412 H   0  0  0  0  0  0  0  0  0  0  0  0
    2.7628   -1.6444   -2.5567 H   0  0  0  0  0  0  0  0  0  0  0  0
    1.7164   -3.8505   -2.3656 H   0  0  0  0  0  0  0  0  0  0  0  0
   -0.3488   -4.0902   -1.1038 H   0  0  0  0  0  0  0  0  0  0  0  0
   -1.0069   -1.6568    2.0917 H   0  0  0  0  0  0  0  0  0  0  0  0
   -3.1557   -2.1277    3.2086 H   0  0  0  0  0  0  0  0  0  0  0  0
   -4.7970   -3.4780   -0.3758 H   0  0  0  0  0  0  0  0  0  0  0  0
   -2.6957   -3.0184   -1.5596 H   0  0  0  0  0  0  0  0  0  0  0  0
   -2.2085    0.2626   -1.1619 H   0  0  0  0  0  0  0  0  0  0  0  0
   -1.0292    1.4643   -1.7644 H   0  0  0  0  0  0  0  0  0  0  0  0
  1  2  1  0
  2  3  1  0
  3  4  1  0
  4  5  1  0
  5  6  1  0
  6  7  1  0
  7  8  1  0
  8  9  1  0
  9 10  2  3
 10 11  1  0
 11 12  1  0
 12 13  1  0
 12 14  2  0
 14 15  1  0
 15 16  2  0
  8 17  2  0
 17 18  1  0
 18 19  2  0
 19 20  1  0
 20 21  1  0
 21 22  2  0
 22 23  1  0
 23 24  2  0
 24 25  1  0
 25 26  2  0
  6 27  1  0
 27  2  1  0
 20  7  2  0
 26 21  1  0
 15 10  1  0
  1 28  1  0
  1 29  1  0
  2 30  1  1
  3 31  1  0
  3 32  1  0
  4 33  1  0
  4 34  1  0
  5 35  1  0
  5 36  1  0
  9 37  1  0
 13 38  1  0
 17 39  1  0
 18 40  1  0
 19 41  1  0
 22 42  1  0
 23 43  1  0
 25 44  1  0
 26 45  1  0
 27 46  1  0
 27 47  1  0
M  END
$$$$
