@<TRIPOS>MOLECULE
*****
 47 50 0 0 0
SMALL
GASTEIGER

@<TRIPOS>ATOM
      1 N          -2.8656    2.9765   -1.0662 N.3     1  UNL1       -0.3259
      2 C          -2.2367    2.0871   -0.0880 C.3     1  UNL1        0.0207
      3 C          -1.4446    2.9040    0.8686 C.3     1  UNL1       -0.0349
      4 C          -0.0319    2.4014    1.0820 C.3     1  UNL1       -0.0358
      5 C          -0.1523    0.8784    1.2510 C.3     1  UNL1        0.0123
      6 N          -0.4755    0.3698   -0.0554 N.pl3   1  UNL1       -0.3275
      7 C           0.1194   -0.7842   -0.6402 C.ar    1  UNL1        0.0448
      8 C           1.2948   -0.6504   -1.3578 C.ar    1  UNL1       -0.0022
      9 C           1.9238    0.6359   -1.5063 C.2     1  UNL1       -0.0338
     10 C           3.1679    0.8284   -1.1799 C.2     1  UNL1        0.0812
     11 S           4.0701    2.4140   -1.3333 S.3     1  UNL1       -0.0290
     12 C           5.5958    1.7945   -0.6554 C.2     1  UNL1        0.2466
     13 O           6.7480    2.5323   -0.4927 O.2     1  UNL1       -0.4890
     14 N           5.4194    0.5907   -0.3645 N.am    1  UNL1       -0.1348
     15 C           4.1987   -0.0096   -0.5925 C.2     1  UNL1        0.2774
     16 O           4.0060   -1.2493   -0.2893 O.2     1  UNL1       -0.2674
     17 C           1.8574   -1.7291   -1.9665 C.ar    1  UNL1       -0.0528
     18 C           1.2905   -2.9824   -1.8940 C.ar    1  UNL1       -0.0605
     19 C           0.1246   -3.1139   -1.1808 C.ar    1  UNL1       -0.0522
     20 C          -0.4705   -2.0065   -0.5458 C.ar    1  UNL1        0.0038
     21 C          -1.6872   -2.2890    0.1848 C.ar    1  UNL1       -0.0132
     22 C          -1.8200   -2.0418    1.5197 C.ar    1  UNL1       -0.0358
     23 C          -3.0453   -2.3196    2.1634 C.ar    1  UNL1        0.0281
     24 N          -4.0761   -2.8258    1.4653 N.ar    1  UNL1       -0.2632
     25 C          -3.9667   -3.0747    0.1633 C.ar    1  UNL1        0.0281
     26 C          -2.7631   -2.8082   -0.4995 C.ar    1  UNL1       -0.0358
     27 C          -1.4741    1.0589   -0.8396 C.3     1  UNL1        0.0274
     28 H          -2.1818    3.1936   -1.8258 H       1  UNL1        0.1185
     29 H          -3.6906    2.5089   -1.5157 H       1  UNL1        0.1185
     30 H          -3.1008    1.6254    0.4697 H       1  UNL1        0.0474
     31 H          -1.9627    2.9760    1.8705 H       1  UNL1        0.0281
     32 H          -1.3579    3.9643    0.5277 H       1  UNL1        0.0281
     33 H           0.5518    2.6787    0.1970 H       1  UNL1        0.0281
     34 H           0.3803    2.8710    1.9844 H       1  UNL1        0.0281
     35 H           0.7843    0.4546    1.6487 H       1  UNL1        0.0464
     36 H          -0.9896    0.7267    1.9887 H       1  UNL1        0.0464
     37 H           1.3524    1.4561   -1.8970 H       1  UNL1        0.0637
     38 H           7.6703    2.0963   -0.3412 H       1  UNL1        0.2941
     39 H           2.7628   -1.6444   -2.5567 H       1  UNL1        0.0624
     40 H           1.7164   -3.8505   -2.3656 H       1  UNL1        0.0618
     41 H          -0.3488   -4.0902   -1.1038 H       1  UNL1        0.0624
     42 H          -1.0069   -1.6568    2.0917 H       1  UNL1        0.0639
     43 H          -3.1557   -2.1277    3.2086 H       1  UNL1        0.0830
     44 H          -4.7970   -3.4780   -0.3758 H       1  UNL1        0.0830
     45 H          -2.6957   -3.0184   -1.5596 H       1  UNL1        0.0639
     46 H          -2.2085    0.2626   -1.1619 H       1  UNL1        0.0479
     47 H          -1.0292    1.4643   -1.7644 H       1  UNL1        0.0479
@<TRIPOS>BOND
     1     1     2    1
     2     2     3    1
     3     3     4    1
     4     4     5    1
     5     5     6    1
     6     6     7    1
     7     7     8   ar
     8     8     9    1
     9     9    10    2
    10    10    11    1
    11    11    12    1
    12    12    13    1
    13    12    14    2
    14    14    15    1
    15    15    16    2
    16     8    17   ar
    17    17    18   ar
    18    18    19   ar
    19    19    20   ar
    20    20    21    1
    21    21    22   ar
    22    22    23   ar
    23    23    24   ar
    24    24    25   ar
    25    25    26   ar
    26     6    27    1
    27    27     2    1
    28    20     7   ar
    29    26    21   ar
    30    15    10    1
    31     1    28    1
    32     1    29    1
    33     2    30    1
    34     3    31    1
    35     3    32    1
    36     4    33    1
    37     4    34    1
    38     5    35    1
    39     5    36    1
    40     9    37    1
    41    13    38    1
    42    17    39    1
    43    18    40    1
    44    19    41    1
    45    22    42    1
    46    23    43    1
    47    25    44    1
    48    26    45    1
    49    27    46    1
    50    27    47    1
