@<TRIPOS>MOLECULE
*****
 24 25 0 0 0
SMALL
GASTEIGER

@<TRIPOS>ATOM
      1 C          -0.0221   -1.5407    0.2091 C.3     1  UNL1        0.0754
      2 C          -1.3415   -0.8155    0.2618 C.2     1  UNL1        0.2854
      3 N          -2.3586   -1.1121   -0.4771 N.2     1  UNL1       -0.0837
      4 C          -3.4221   -0.2069   -0.1421 C.3     1  UNL1        0.1671
      5 C          -2.7231    0.9348    0.5354 C.3     1  UNL1        0.1194
      6 N          -1.5654    0.2898    1.1640 N.pl3   1  UNL1       -0.2335
      7 C           1.0927   -0.6652   -0.1490 C.ar    1  UNL1       -0.0359
      8 C           1.8168    0.0068    0.8441 C.ar    1  UNL1       -0.0580
      9 C           2.8824    0.8564    0.6539 C.ar    1  UNL1       -0.0615
     10 C           3.2767    1.0653   -0.6690 C.ar    1  UNL1       -0.0617
     11 C           2.5961    0.4265   -1.6883 C.ar    1  UNL1       -0.0615
     12 C           1.5316   -0.4171   -1.4372 C.ar    1  UNL1       -0.0580
     13 H          -0.1135   -2.4383   -0.4327 H       1  UNL1        0.0435
     14 H           0.1871   -1.9111    1.2561 H       1  UNL1        0.0435
     15 H          -3.9254    0.0942   -1.0859 H       1  UNL1        0.0829
     16 H          -4.1327   -0.7256    0.5451 H       1  UNL1        0.0829
     17 H          -2.3594    1.6178   -0.2866 H       1  UNL1        0.0765
     18 H          -3.3476    1.4767    1.2695 H       1  UNL1        0.0765
     19 H          -0.9847    0.4762    2.0116 H       1  UNL1        0.2912
     20 H           1.4928   -0.1705    1.8636 H       1  UNL1        0.0620
     21 H           3.3547    1.3111    1.4964 H       1  UNL1        0.0618
     22 H           4.1114    1.7321   -0.8038 H       1  UNL1        0.0618
     23 H           2.9435    0.6239   -2.6946 H       1  UNL1        0.0618
     24 H           1.0104   -0.9085   -2.2444 H       1  UNL1        0.0620
@<TRIPOS>BOND
     1     1     2    1
     2     2     3    2
     3     3     4    1
     4     4     5    1
     5     5     6    1
     6     1     7    1
     7     7     8   ar
     8     8     9   ar
     9     9    10   ar
    10    10    11   ar
    11    11    12   ar
    12     6     2    1
    13    12     7   ar
    14     1    13    1
    15     1    14    1
    16     4    15    1
    17     4    16    1
    18     5    17    1
    19     5    18    1
    20     6    19    1
    21     8    20    1
    22     9    21    1
    23    10    22    1
    24    11    23    1
    25    12    24    1
