
     RDKit          3D

 66 69  0  0  0  0  0  0  0  0999 V2000
    0.4498   -3.8417    1.1669 C   0  0  0  0  0  0  0  0  0  0  0  0
    0.4168   -2.3435    1.4134 C   0  0  1  0  0  0  0  0  0  0  0  0
    1.6737   -1.6889    1.0768 C   0  0  0  0  0  0  0  0  0  0  0  0
    2.7691   -2.4309    0.7138 C   0  0  0  0  0  0  0  0  0  0  0  0
    3.9727   -1.8123    0.3978 C   0  0  0  0  0  0  0  0  0  0  0  0
    4.0649   -0.4234    0.4510 C   0  0  0  0  0  0  0  0  0  0  0  0
    5.3207    0.2609    0.1258 C   0  0  0  0  0  0  0  0  0  0  0  0
    6.1345   -0.3223   -0.8178 C   0  0  0  0  0  0  0  0  0  0  0  0
    7.3379    0.3105   -1.1435 C   0  0  0  0  0  0  0  0  0  0  0  0
    7.6682    1.4938   -0.5108 C   0  0  0  0  0  0  0  0  0  0  0  0
    8.7584    2.0853   -0.7928 O   0  0  0  0  0  0  0  0  0  0  0  0
    6.8720    2.0592    0.4086 N   0  0  0  0  0  0  0  0  0  0  0  0
    7.1718    3.2881    1.0942 C   0  0  0  0  0  0  0  0  0  0  0  0
    6.6784    3.1765    2.3870 F   0  0  0  0  0  0  0  0  0  0  0  0
    8.5168    3.5802    1.1302 F   0  0  0  0  0  0  0  0  0  0  0  0
    5.7080    1.4389    0.7178 C   0  0  0  0  0  0  0  0  0  0  0  0
    2.9754    0.3259    0.8125 C   0  0  0  0  0  0  0  0  0  0  0  0
    1.7898   -0.3253    1.1214 C   0  0  0  0  0  0  0  0  0  0  0  0
   -0.7383   -1.7586    0.8021 N   0  0  0  0  0  0  0  0  0  0  0  0
   -1.8124   -1.1784    1.5871 C   0  0  0  0  0  0  0  0  0  0  0  0
   -2.2661    0.0805    0.8227 C   0  0  0  0  0  0  0  0  0  0  0  0
   -2.8920   -0.2478   -0.4749 C   0  0  2  0  0  0  0  0  0  0  0  0
   -2.7727    0.7712   -1.5499 C   0  0  0  0  0  0  0  0  0  0  0  0
   -3.3472    2.1090   -1.3551 C   0  0  0  0  0  0  0  0  0  0  0  0
   -2.8014    2.9120   -0.2039 C   0  0  0  0  0  0  0  0  0  0  0  0
   -2.9858    2.9241   -2.6154 C   0  0  0  0  0  0  0  0  0  0  0  0
   -4.7507    2.1190   -1.3566 O   0  0  0  0  0  0  0  0  0  0  0  0
   -4.3207   -0.7153   -0.3178 C   0  0  0  0  0  0  0  0  0  0  0  0
   -4.9705   -0.7403    0.8918 C   0  0  0  0  0  0  0  0  0  0  0  0
   -6.2771   -1.1793    1.0107 C   0  0  0  0  0  0  0  0  0  0  0  0
   -6.9531   -1.6050   -0.1104 C   0  0  0  0  0  0  0  0  0  0  0  0
   -6.3386   -1.5963   -1.3440 C   0  0  0  0  0  0  0  0  0  0  0  0
   -5.0359   -1.1509   -1.4164 C   0  0  0  0  0  0  0  0  0  0  0  0
   -2.2183   -1.4033   -1.0159 O   0  0  0  0  0  0  0  0  0  0  0  0
   -0.9306   -1.7033   -0.6089 C   0  0  0  0  0  0  0  0  0  0  0  0
    0.0384   -1.9212   -1.3882 O   0  0  0  0  0  0  0  0  0  0  0  0
    1.0368   -4.3854    1.9265 H   0  0  0  0  0  0  0  0  0  0  0  0
    0.8585   -3.9791    0.1435 H   0  0  0  0  0  0  0  0  0  0  0  0
   -0.5883   -4.2052    1.1444 H   0  0  0  0  0  0  0  0  0  0  0  0
    0.2855   -2.2437    2.5330 H   0  0  0  0  0  0  0  0  0  0  0  0
    2.7789   -3.5152    0.6486 H   0  0  0  0  0  0  0  0  0  0  0  0
    4.8605   -2.3438    0.1075 H   0  0  0  0  0  0  0  0  0  0  0  0
    5.8974   -1.2452   -1.3242 H   0  0  0  0  0  0  0  0  0  0  0  0
    7.9667   -0.1549   -1.8827 H   0  0  0  0  0  0  0  0  0  0  0  0
    6.6079    4.0943    0.5848 H   0  0  0  0  0  0  0  0  0  0  0  0
    5.0450    1.8703    1.4558 H   0  0  0  0  0  0  0  0  0  0  0  0
    3.0640    1.4088    0.8491 H   0  0  0  0  0  0  0  0  0  0  0  0
    0.9518    0.2944    1.4031 H   0  0  0  0  0  0  0  0  0  0  0  0
   -2.6516   -1.8944    1.6779 H   0  0  0  0  0  0  0  0  0  0  0  0
   -1.4693   -0.8246    2.5761 H   0  0  0  0  0  0  0  0  0  0  0  0
   -1.2863    0.6125    0.6286 H   0  0  0  0  0  0  0  0  0  0  0  0
   -2.8303    0.6562    1.5428 H   0  0  0  0  0  0  0  0  0  0  0  0
   -3.1774    0.3654   -2.5255 H   0  0  0  0  0  0  0  0  0  0  0  0
   -1.6793    0.9054   -1.7749 H   0  0  0  0  0  0  0  0  0  0  0  0
   -3.3907    2.7909    0.7371 H   0  0  0  0  0  0  0  0  0  0  0  0
   -2.9926    4.0063   -0.4663 H   0  0  0  0  0  0  0  0  0  0  0  0
   -1.7309    2.8111   -0.0465 H   0  0  0  0  0  0  0  0  0  0  0  0
   -3.6517    3.8187   -2.5766 H   0  0  0  0  0  0  0  0  0  0  0  0
   -3.1452    2.3304   -3.5273 H   0  0  0  0  0  0  0  0  0  0  0  0
   -1.9395    3.2772   -2.5109 H   0  0  0  0  0  0  0  0  0  0  0  0
   -5.0296    1.6611   -2.1864 H   0  0  0  0  0  0  0  0  0  0  0  0
   -4.5004   -0.4210    1.7853 H   0  0  0  0  0  0  0  0  0  0  0  0
   -6.7854   -1.1946    1.9830 H   0  0  0  0  0  0  0  0  0  0  0  0
   -7.9939   -1.9641   -0.0701 H   0  0  0  0  0  0  0  0  0  0  0  0
   -6.8817   -1.9375   -2.2397 H   0  0  0  0  0  0  0  0  0  0  0  0
   -4.5350   -1.1410   -2.3951 H   0  0  0  0  0  0  0  0  0  0  0  0
  1  2  1  0
  2  3  1  0
  3  4  2  0
  4  5  1  0
  5  6  2  0
  6  7  1  0
  7  8  1  0
  8  9  2  0
  9 10  1  0
 10 11  2  0
 10 12  1  0
 12 13  1  0
 13 14  1  0
 13 15  1  0
 12 16  1  0
  6 17  1  0
 17 18  2  0
  2 19  1  0
 19 20  1  0
 20 21  1  0
 21 22  1  0
 22 23  1  6
 23 24  1  0
 24 25  1  0
 24 26  1  0
 24 27  1  0
 22 28  1  0
 28 29  2  0
 29 30  1  0
 30 31  2  0
 31 32  1  0
 32 33  2  0
 22 34  1  0
 34 35  1  0
 35 36  2  0
 18  3  1  0
 35 19  1  0
 16  7  2  0
 33 28  1  0
  1 37  1  0
  1 38  1  0
  1 39  1  0
  2 40  1  1
  4 41  1  0
  5 42  1  0
  8 43  1  0
  9 44  1  0
 13 45  1  0
 16 46  1  0
 17 47  1  0
 18 48  1  0
 20 49  1  0
 20 50  1  0
 21 51  1  0
 21 52  1  0
 23 53  1  0
 23 54  1  0
 25 55  1  0
 25 56  1  0
 25 57  1  0
 26 58  1  0
 26 59  1  0
 26 60  1  0
 27 61  1  0
 29 62  1  0
 30 63  1  0
 31 64  1  0
 32 65  1  0
 33 66  1  0
M  END
$$$$
