@<TRIPOS>MOLECULE
*****
 66 69 0 0 0
SMALL
GASTEIGER

@<TRIPOS>ATOM
      1 C           0.4498   -3.8417    1.1669 C.3     1  UNL1       -0.0421
      2 C           0.4168   -2.3435    1.4134 C.3     1  UNL1        0.0515
      3 C           1.6737   -1.6889    1.0768 C.ar    1  UNL1       -0.0271
      4 C           2.7691   -2.4309    0.7138 C.ar    1  UNL1       -0.0562
      5 C           3.9727   -1.8123    0.3978 C.ar    1  UNL1       -0.0537
      6 C           4.0649   -0.4234    0.4510 C.ar    1  UNL1       -0.0165
      7 C           5.3207    0.2609    0.1258 C.ar    1  UNL1       -0.0013
      8 C           6.1345   -0.3223   -0.8178 C.ar    1  UNL1       -0.0475
      9 C           7.3379    0.3105   -1.1435 C.ar    1  UNL1        0.0037
     10 C           7.6682    1.4938   -0.5108 C.ar    1  UNL1        0.2554
     11 O           8.7584    2.0853   -0.7928 O.2     1  UNL1       -0.2675
     12 N           6.8720    2.0592    0.4086 N.ar    1  UNL1       -0.2578
     13 C           7.1718    3.2881    1.0942 C.3     1  UNL1        0.3223
     14 F           6.6784    3.1765    2.3870 F       1  UNL1       -0.1846
     15 F           8.5168    3.5802    1.1302 F       1  UNL1       -0.1846
     16 C           5.7080    1.4389    0.7178 C.ar    1  UNL1        0.0208
     17 C           2.9754    0.3259    0.8125 C.ar    1  UNL1       -0.0537
     18 C           1.7898   -0.3253    1.1214 C.ar    1  UNL1       -0.0562
     19 N          -0.7383   -1.7586    0.8021 N.am    1  UNL1       -0.2605
     20 C          -1.8124   -1.1784    1.5871 C.3     1  UNL1        0.0224
     21 C          -2.2661    0.0805    0.8227 C.3     1  UNL1        0.0076
     22 C          -2.8920   -0.2478   -0.4749 C.3     1  UNL1        0.1440
     23 C          -2.7727    0.7712   -1.5499 C.3     1  UNL1        0.0199
     24 C          -3.3472    2.1090   -1.3551 C.3     1  UNL1        0.0645
     25 C          -2.8014    2.9120   -0.2039 C.3     1  UNL1       -0.0362
     26 C          -2.9858    2.9241   -2.6154 C.3     1  UNL1       -0.0362
     27 O          -4.7507    2.1190   -1.3566 O.3     1  UNL1       -0.3890
     28 C          -4.3207   -0.7153   -0.3178 C.ar    1  UNL1       -0.0040
     29 C          -4.9705   -0.7403    0.8918 C.ar    1  UNL1       -0.0548
     30 C          -6.2771   -1.1793    1.0107 C.ar    1  UNL1       -0.0614
     31 C          -6.9531   -1.6050   -0.1104 C.ar    1  UNL1       -0.0617
     32 C          -6.3386   -1.5963   -1.3440 C.ar    1  UNL1       -0.0614
     33 C          -5.0359   -1.1509   -1.4164 C.ar    1  UNL1       -0.0548
     34 O          -2.2183   -1.4033   -1.0159 O.3     1  UNL1       -0.4387
     35 C          -0.9306   -1.7033   -0.6089 C.2     1  UNL1        0.4042
     36 O           0.0384   -1.9212   -1.3882 O.2     1  UNL1       -0.2262
     37 H           1.0368   -4.3854    1.9265 H       1  UNL1        0.0251
     38 H           0.8585   -3.9791    0.1435 H       1  UNL1        0.0251
     39 H          -0.5883   -4.2052    1.1444 H       1  UNL1        0.0251
     40 H           0.2855   -2.2437    2.5330 H       1  UNL1        0.0549
     41 H           2.7789   -3.5152    0.6486 H       1  UNL1        0.0621
     42 H           4.8605   -2.3438    0.1075 H       1  UNL1        0.0624
     43 H           5.8974   -1.2452   -1.3242 H       1  UNL1        0.0626
     44 H           7.9667   -0.1549   -1.8827 H       1  UNL1        0.0672
     45 H           6.6079    4.0943    0.5848 H       1  UNL1        0.1281
     46 H           5.0450    1.8703    1.4558 H       1  UNL1        0.0818
     47 H           3.0640    1.4088    0.8491 H       1  UNL1        0.0624
     48 H           0.9518    0.2944    1.4031 H       1  UNL1        0.0621
     49 H          -2.6516   -1.8944    1.6779 H       1  UNL1        0.0467
     50 H          -1.4693   -0.8246    2.5761 H       1  UNL1        0.0467
     51 H          -1.2863    0.6125    0.6286 H       1  UNL1        0.0322
     52 H          -2.8303    0.6562    1.5428 H       1  UNL1        0.0322
     53 H          -3.1774    0.3654   -2.5255 H       1  UNL1        0.0335
     54 H          -1.6793    0.9054   -1.7749 H       1  UNL1        0.0335
     55 H          -3.3907    2.7909    0.7371 H       1  UNL1        0.0257
     56 H          -2.9926    4.0063   -0.4663 H       1  UNL1        0.0257
     57 H          -1.7309    2.8111   -0.0465 H       1  UNL1        0.0257
     58 H          -3.6517    3.8187   -2.5766 H       1  UNL1        0.0257
     59 H          -3.1452    2.3304   -3.5273 H       1  UNL1        0.0257
     60 H          -1.9395    3.2772   -2.5109 H       1  UNL1        0.0257
     61 H          -5.0296    1.6611   -2.1864 H       1  UNL1        0.2101
     62 H          -4.5004   -0.4210    1.7853 H       1  UNL1        0.0622
     63 H          -6.7854   -1.1946    1.9830 H       1  UNL1        0.0618
     64 H          -7.9939   -1.9641   -0.0701 H       1  UNL1        0.0618
     65 H          -6.8817   -1.9375   -2.2397 H       1  UNL1        0.0618
     66 H          -4.5350   -1.1410   -2.3951 H       1  UNL1        0.0622
@<TRIPOS>BOND
     1     1     2    1
     2     2     3    1
     3     3     4   ar
     4     4     5   ar
     5     5     6   ar
     6     6     7    1
     7     7     8   ar
     8     8     9   ar
     9     9    10   ar
    10    10    11    2
    11    10    12   ar
    12    12    13    1
    13    13    14    1
    14    13    15    1
    15    12    16   ar
    16     6    17   ar
    17    17    18   ar
    18     2    19    1
    19    19    20    1
    20    20    21    1
    21    21    22    1
    22    22    23    1
    23    23    24    1
    24    24    25    1
    25    24    26    1
    26    24    27    1
    27    22    28    1
    28    28    29   ar
    29    29    30   ar
    30    30    31   ar
    31    31    32   ar
    32    32    33   ar
    33    22    34    1
    34    34    35    1
    35    35    36    2
    36    18     3   ar
    37    35    19   am
    38    16     7   ar
    39    33    28   ar
    40     1    37    1
    41     1    38    1
    42     1    39    1
    43     2    40    1
    44     4    41    1
    45     5    42    1
    46     8    43    1
    47     9    44    1
    48    13    45    1
    49    16    46    1
    50    17    47    1
    51    18    48    1
    52    20    49    1
    53    20    50    1
    54    21    51    1
    55    21    52    1
    56    23    53    1
    57    23    54    1
    58    25    55    1
    59    25    56    1
    60    25    57    1
    61    26    58    1
    62    26    59    1
    63    26    60    1
    64    27    61    1
    65    29    62    1
    66    30    63    1
    67    31    64    1
    68    32    65    1
    69    33    66    1
