@<TRIPOS>MOLECULE
*****
 77 83 0 0 0
SMALL
GASTEIGER

@<TRIPOS>ATOM
      1 C          -2.4456    7.9996   -0.3801 C.3     1  UNL1        0.0804
      2 O          -1.7596    6.7845   -0.2091 O.3     1  UNL1       -0.4795
      3 C          -2.3693    5.5616   -0.3822 C.ar    1  UNL1        0.2191
      4 C          -1.6352    4.3857   -0.1992 C.ar    1  UNL1        0.0404
      5 C          -2.1932    3.1569   -0.3590 C.ar    1  UNL1        0.1364
      6 N          -1.4740    1.9573   -0.1752 N.am    1  UNL1       -0.2240
      7 C          -0.0931    1.9041    0.2374 C.2     1  UNL1        0.3219
      8 O           0.5819    2.7501    0.8796 O.2     1  UNL1       -0.2512
      9 N           0.4445    0.6687   -0.2153 N.am    1  UNL1       -0.1920
     10 C           1.7753    0.2127   -0.0516 C.ar    1  UNL1        0.0455
     11 C           2.7595    0.4911   -0.9736 C.ar    1  UNL1       -0.0392
     12 C           4.0541    0.0398   -0.8359 C.ar    1  UNL1       -0.0523
     13 C           4.4016   -0.7239    0.2613 C.ar    1  UNL1       -0.0178
     14 C           5.7852   -1.1887    0.3611 C.ar    1  UNL1       -0.0178
     15 C           6.5203   -1.4708   -0.7935 C.ar    1  UNL1       -0.0534
     16 C           7.8258   -1.9090   -0.7377 C.ar    1  UNL1       -0.0519
     17 C           8.4712   -2.0901    0.4705 C.ar    1  UNL1        0.0021
     18 C           9.8587   -2.5469    0.5016 C.ar    1  UNL1        0.0925
     19 C          10.6485   -2.8274   -0.6010 C.ar    1  UNL1       -0.0165
     20 C          11.9085   -3.2279   -0.1917 C.ar    1  UNL1        0.0229
     21 N          11.8488   -3.1794    1.1576 N.ar    1  UNL1       -0.2842
     22 N          10.6537   -2.7823    1.5577 N.ar    1  UNL1       -0.1739
     23 C           7.7528   -1.8144    1.6117 C.ar    1  UNL1       -0.0519
     24 C           6.4245   -1.3684    1.5597 C.ar    1  UNL1       -0.0534
     25 C           3.4218   -1.0024    1.1824 C.ar    1  UNL1       -0.0523
     26 C           2.1170   -0.5397    1.0325 C.ar    1  UNL1       -0.0392
     27 C          -0.6273   -0.0131   -0.8957 C.2     1  UNL1        0.2516
     28 O          -0.4224   -0.9019   -1.7539 O.2     1  UNL1       -0.2724
     29 C          -1.8628    0.5812   -0.3437 C.3     1  UNL1        0.1240
     30 C          -2.1467    0.0098    1.0153 C.3     1  UNL1       -0.0095
     31 C          -3.5738   -0.5177    1.0495 C.3     1  UNL1        0.0017
     32 N          -3.6621   -1.5585    0.0844 N.3     1  UNL1       -0.2965
     33 C          -4.8027   -2.4038    0.1433 C.3     1  UNL1        0.0415
     34 C          -6.0987   -1.7493   -0.1719 C.ar    1  UNL1        0.0581
     35 N          -6.2179   -0.6541   -0.8944 N.ar    1  UNL1       -0.2583
     36 C          -7.4064   -0.1038   -1.1650 C.ar    1  UNL1        0.0279
     37 C          -8.5602   -0.6835   -0.6822 C.ar    1  UNL1       -0.0433
     38 C          -8.4683   -1.8275    0.0763 C.ar    1  UNL1       -0.0557
     39 C          -7.2377   -2.3633    0.3331 C.ar    1  UNL1       -0.0279
     40 C          -7.1413   -3.6130    1.1552 C.3     1  UNL1       -0.0380
     41 C          -3.3460   -1.1180   -1.2601 C.3     1  UNL1        0.0017
     42 C          -3.0355    0.3732   -1.2735 C.3     1  UNL1       -0.0095
     43 N          -3.4932    3.1415   -0.7033 N.ar    1  UNL1       -0.2200
     44 C          -4.2089    4.2655   -0.8817 C.ar    1  UNL1        0.1219
     45 N          -3.6562    5.4677   -0.7237 N.ar    1  UNL1       -0.2013
     46 H          -3.4936    7.9230   -0.0406 H       1  UNL1        0.0660
     47 H          -2.4389    8.2697   -1.4520 H       1  UNL1        0.0660
     48 H          -1.8930    8.7665    0.2345 H       1  UNL1        0.0660
     49 H          -0.6248    4.5101    0.0702 H       1  UNL1        0.0705
     50 H           2.4466    1.0990   -1.8272 H       1  UNL1        0.0636
     51 H           4.7583    0.3127   -1.6156 H       1  UNL1        0.0624
     52 H           6.0119   -1.3262   -1.7340 H       1  UNL1        0.0624
     53 H           8.3799   -2.1213   -1.6382 H       1  UNL1        0.0624
     54 H          10.3128   -2.7412   -1.6261 H       1  UNL1        0.0654
     55 H          12.7689   -3.5204   -0.7826 H       1  UNL1        0.0824
     56 H          12.6706   -3.4319    1.7660 H       1  UNL1        0.1882
     57 H           8.2514   -1.9530    2.5583 H       1  UNL1        0.0624
     58 H           5.8984   -1.1651    2.4903 H       1  UNL1        0.0624
     59 H           3.6740   -1.6072    2.0656 H       1  UNL1        0.0624
     60 H           1.4232   -0.8174    1.8193 H       1  UNL1        0.0636
     61 H          -2.0261    0.7366    1.8349 H       1  UNL1        0.0303
     62 H          -1.4733   -0.8480    1.2544 H       1  UNL1        0.0303
     63 H          -4.3377    0.2535    1.0317 H       1  UNL1        0.0427
     64 H          -3.6666   -1.0116    2.0613 H       1  UNL1        0.0427
     65 H          -4.8847   -2.7415    1.2195 H       1  UNL1        0.0491
     66 H          -4.6689   -3.3216   -0.4409 H       1  UNL1        0.0491
     67 H          -7.4820    0.8175   -1.7740 H       1  UNL1        0.0829
     68 H          -9.5412   -0.2428   -0.8992 H       1  UNL1        0.0633
     69 H          -9.3701   -2.3105    0.4723 H       1  UNL1        0.0621
     70 H          -7.1158   -3.3582    2.2268 H       1  UNL1        0.0278
     71 H          -8.0089   -4.2589    0.8755 H       1  UNL1        0.0278
     72 H          -6.2460   -4.2020    0.8978 H       1  UNL1        0.0278
     73 H          -4.2071   -1.2615   -1.9605 H       1  UNL1        0.0427
     74 H          -2.5487   -1.7507   -1.6348 H       1  UNL1        0.0427
     75 H          -2.7353    0.6959   -2.2726 H       1  UNL1        0.0303
     76 H          -3.9060    0.8588   -0.8474 H       1  UNL1        0.0303
     77 H          -5.2427    4.1751   -1.1585 H       1  UNL1        0.1049
@<TRIPOS>BOND
     1     1     2    1
     2     2     3    1
     3     3     4   ar
     4     4     5   ar
     5     5     6    1
     6     6     7   am
     7     7     8    2
     8     7     9   am
     9     9    10    1
    10    10    11   ar
    11    11    12   ar
    12    12    13   ar
    13    13    14    1
    14    14    15   ar
    15    15    16   ar
    16    16    17   ar
    17    17    18    1
    18    18    19   ar
    19    19    20   ar
    20    20    21   ar
    21    21    22   ar
    22    17    23   ar
    23    23    24   ar
    24    13    25   ar
    25    25    26   ar
    26     9    27   am
    27    27    28    2
    28    27    29    1
    29    29    30    1
    30    30    31    1
    31    31    32    1
    32    32    33    1
    33    33    34    1
    34    34    35   ar
    35    35    36   ar
    36    36    37   ar
    37    37    38   ar
    38    38    39   ar
    39    39    40    1
    40    32    41    1
    41    41    42    1
    42     5    43   ar
    43    43    44   ar
    44    44    45   ar
    45    45     3   ar
    46    29     6    1
    47    39    34   ar
    48    26    10   ar
    49    42    29    1
    50    24    14   ar
    51    22    18   ar
    52     1    46    1
    53     1    47    1
    54     1    48    1
    55     4    49    1
    56    11    50    1
    57    12    51    1
    58    15    52    1
    59    16    53    1
    60    19    54    1
    61    20    55    1
    62    21    56    1
    63    23    57    1
    64    24    58    1
    65    25    59    1
    66    26    60    1
    67    30    61    1
    68    30    62    1
    69    31    63    1
    70    31    64    1
    71    33    65    1
    72    33    66    1
    73    36    67    1
    74    37    68    1
    75    38    69    1
    76    40    70    1
    77    40    71    1
    78    40    72    1
    79    41    73    1
    80    41    74    1
    81    42    75    1
    82    42    76    1
    83    44    77    1
