@<TRIPOS>MOLECULE
*****
 63 67 0 0 0
SMALL
GASTEIGER

@<TRIPOS>ATOM
      1 C           7.7255   -0.4652    1.2996 C.3     1  UNL1       -0.0623
      2 C           6.7518   -1.6141    1.5074 C.3     1  UNL1       -0.0410
      3 C           6.2556   -1.6134    2.9127 C.3     1  UNL1       -0.0345
      4 C           5.3430   -0.4063    3.1572 C.3     1  UNL1        0.0149
      5 N           4.3139   -0.4158    2.1241 N.am    1  UNL1       -0.3003
      6 C           2.9478   -0.5414    2.4431 C.2     1  UNL1        0.2324
      7 O           2.6204   -0.6347    3.6529 O.2     1  UNL1       -0.2741
      8 C           1.9315   -0.5674    1.4176 C.3     1  UNL1        0.1054
      9 C           1.7815    0.6885    0.5579 C.3     1  UNL1       -0.0220
     10 C           0.6641    0.2007    1.4399 C.3     1  UNL1        0.0134
     11 C          -0.4752   -0.5322    0.8193 C.3     1  UNL1        0.0935
     12 C          -0.7271   -1.8441    1.5675 C.3     1  UNL1       -0.0351
     13 C          -1.7320    0.2744    0.7952 C.ar    1  UNL1        0.0158
     14 C          -2.4461    0.5055   -0.3695 C.ar    1  UNL1       -0.0463
     15 C          -3.6106    1.2298   -0.4468 C.ar    1  UNL1       -0.0217
     16 C          -4.2769    1.3918   -1.7336 C.2     1  UNL1       -0.0172
     17 C          -5.5981    1.3742   -1.8497 C.2     1  UNL1        0.1492
     18 F          -6.3227    1.1997   -0.7304 F       1  UNL1       -0.2032
     19 C          -6.2812    1.5269   -3.1266 C.ar    1  UNL1        0.0990
     20 C          -7.6563    1.5042   -3.1979 C.ar    1  UNL1       -0.0322
     21 C          -8.3351    1.6430   -4.3935 C.ar    1  UNL1       -0.0408
     22 C          -7.6196    1.8108   -5.5606 C.ar    1  UNL1        0.0699
     23 C          -8.3146    1.9630   -6.8626 C.1     1  UNL1        0.1007
     24 N          -8.8382    2.0672   -7.8239 N.1     1  UNL1       -0.1908
     25 C          -6.2508    1.8322   -5.4770 C.ar    1  UNL1        0.0457
     26 N          -5.6140    1.6922   -4.2792 N.ar    1  UNL1       -0.2514
     27 C          -4.0812    1.7569    0.7408 C.ar    1  UNL1       -0.0518
     28 C          -3.4230    1.5660    1.9263 C.ar    1  UNL1       -0.0255
     29 C          -2.2394    0.8182    1.9528 C.ar    1  UNL1        0.1289
     30 F          -1.6147    0.6346    3.1371 F       1  UNL1       -0.2051
     31 N          -0.2676   -0.9380   -0.5700 N.2     1  UNL1       -0.2521
     32 C           0.7015   -1.7041   -0.8792 C.2     1  UNL1        0.1485
     33 N           0.9541   -2.1286   -2.1695 N.pl3   1  UNL1       -0.3380
     34 S           1.7481   -2.1620    0.4849 S.3     1  UNL1       -0.0746
     35 C           4.7939   -0.3007    0.7639 C.3     1  UNL1        0.0149
     36 C           5.6554   -1.5372    0.4770 C.3     1  UNL1       -0.0345
     37 H           8.6950   -0.6713    1.7801 H       1  UNL1        0.0232
     38 H           7.8431   -0.2884    0.2123 H       1  UNL1        0.0232
     39 H           7.3243    0.4615    1.7524 H       1  UNL1        0.0232
     40 H           7.2605   -2.5975    1.3225 H       1  UNL1        0.0299
     41 H           7.1194   -1.5892    3.5951 H       1  UNL1        0.0283
     42 H           5.7158   -2.5572    3.1144 H       1  UNL1        0.0283
     43 H           4.8274   -0.6572    4.1295 H       1  UNL1        0.0464
     44 H           5.9044    0.5281    3.2015 H       1  UNL1        0.0464
     45 H           2.3699    1.5780    0.8507 H       1  UNL1        0.0287
     46 H           1.7185    0.5575   -0.5452 H       1  UNL1        0.0287
     47 H           0.4499    0.8683    2.3032 H       1  UNL1        0.0346
     48 H           0.0148   -2.0225    2.3649 H       1  UNL1        0.0256
     49 H          -0.7065   -2.7268    0.8996 H       1  UNL1        0.0256
     50 H          -1.7302   -1.8405    2.0542 H       1  UNL1        0.0256
     51 H          -2.0348    0.0716   -1.2840 H       1  UNL1        0.0628
     52 H          -3.7293    1.5351   -2.6739 H       1  UNL1        0.0653
     53 H          -8.2012    1.3697   -2.2655 H       1  UNL1        0.0640
     54 H          -9.4207    1.6254   -4.4554 H       1  UNL1        0.0631
     55 H          -5.6836    1.9629   -6.3833 H       1  UNL1        0.0843
     56 H          -4.9909    2.3360    0.7381 H       1  UNL1        0.0624
     57 H          -3.8070    1.9858    2.8448 H       1  UNL1        0.0646
     58 H           1.2662   -1.4118   -2.8890 H       1  UNL1        0.1442
     59 H           0.8515   -3.1133   -2.4580 H       1  UNL1        0.1442
     60 H           3.9270   -0.3715    0.0837 H       1  UNL1        0.0464
     61 H           5.3744    0.6216    0.5955 H       1  UNL1        0.0464
     62 H           6.1148   -1.4763   -0.5236 H       1  UNL1        0.0283
     63 H           5.0634   -2.4527    0.5332 H       1  UNL1        0.0283
@<TRIPOS>BOND
     1     1     2    1
     2     2     3    1
     3     3     4    1
     4     4     5    1
     5     5     6   am
     6     6     7    2
     7     8     6    1
     8     8     9    1
     9     9    10    1
    10    10    11    1
    11    11    12    1
    12    11    13    1
    13    13    14   ar
    14    14    15   ar
    15    15    16    1
    16    16    17    2
    17    17    18    1
    18    17    19    1
    19    19    20   ar
    20    20    21   ar
    21    21    22   ar
    22    22    23    1
    23    23    24    3
    24    22    25   ar
    25    25    26   ar
    26    15    27   ar
    27    27    28   ar
    28    28    29   ar
    29    29    30    1
    30    11    31    1
    31    31    32    2
    32    32    33    1
    33    32    34    1
    34     5    35    1
    35    35    36    1
    36    36     2    1
    37    10     8    1
    38    29    13   ar
    39    34     8    1
    40    26    19   ar
    41     1    37    1
    42     1    38    1
    43     1    39    1
    44     2    40    1
    45     3    41    1
    46     3    42    1
    47     4    43    1
    48     4    44    1
    49     9    45    1
    50     9    46    1
    51    10    47    1
    52    12    48    1
    53    12    49    1
    54    12    50    1
    55    14    51    1
    56    16    52    1
    57    20    53    1
    58    21    54    1
    59    25    55    1
    60    27    56    1
    61    28    57    1
    62    33    58    1
    63    33    59    1
    64    35    60    1
    65    35    61    1
    66    36    62    1
    67    36    63    1
