
     RDKit          3D

 63 67  0  0  0  0  0  0  0  0999 V2000
    7.7255   -0.4652    1.2996 C   0  0  0  0  0  0  0  0  0  0  0  0
    6.7518   -1.6141    1.5074 C   0  0  0  0  0  0  0  0  0  0  0  0
    6.2556   -1.6134    2.9127 C   0  0  0  0  0  0  0  0  0  0  0  0
    5.3430   -0.4063    3.1572 C   0  0  0  0  0  0  0  0  0  0  0  0
    4.3139   -0.4158    2.1241 N   0  0  0  0  0  0  0  0  0  0  0  0
    2.9478   -0.5414    2.4431 C   0  0  0  0  0  0  0  0  0  0  0  0
    2.6204   -0.6347    3.6529 O   0  0  0  0  0  0  0  0  0  0  0  0
    1.9315   -0.5674    1.4176 C   0  0  2  0  0  0  0  0  0  0  0  0
    1.7815    0.6885    0.5579 C   0  0  0  0  0  0  0  0  0  0  0  0
    0.6641    0.2007    1.4399 C   0  0  1  0  0  0  0  0  0  0  0  0
   -0.4752   -0.5322    0.8193 C   0  0  1  0  0  0  0  0  0  0  0  0
   -0.7271   -1.8441    1.5675 C   0  0  0  0  0  0  0  0  0  0  0  0
   -1.7320    0.2744    0.7952 C   0  0  0  0  0  0  0  0  0  0  0  0
   -2.4461    0.5055   -0.3695 C   0  0  0  0  0  0  0  0  0  0  0  0
   -3.6106    1.2298   -0.4468 C   0  0  0  0  0  0  0  0  0  0  0  0
   -4.2769    1.3918   -1.7336 C   0  0  0  0  0  0  0  0  0  0  0  0
   -5.5981    1.3742   -1.8497 C   0  0  0  0  0  0  0  0  0  0  0  0
   -6.3227    1.1997   -0.7304 F   0  0  0  0  0  0  0  0  0  0  0  0
   -6.2812    1.5269   -3.1266 C   0  0  0  0  0  0  0  0  0  0  0  0
   -7.6563    1.5042   -3.1979 C   0  0  0  0  0  0  0  0  0  0  0  0
   -8.3351    1.6430   -4.3935 C   0  0  0  0  0  0  0  0  0  0  0  0
   -7.6196    1.8108   -5.5606 C   0  0  0  0  0  0  0  0  0  0  0  0
   -8.3146    1.9630   -6.8626 C   0  0  0  0  0  0  0  0  0  0  0  0
   -8.8382    2.0672   -7.8239 N   0  0  0  0  0  0  0  0  0  0  0  0
   -6.2508    1.8322   -5.4770 C   0  0  0  0  0  0  0  0  0  0  0  0
   -5.6140    1.6922   -4.2792 N   0  0  0  0  0  0  0  0  0  0  0  0
   -4.0812    1.7569    0.7408 C   0  0  0  0  0  0  0  0  0  0  0  0
   -3.4230    1.5660    1.9263 C   0  0  0  0  0  0  0  0  0  0  0  0
   -2.2394    0.8182    1.9528 C   0  0  0  0  0  0  0  0  0  0  0  0
   -1.6147    0.6346    3.1371 F   0  0  0  0  0  0  0  0  0  0  0  0
   -0.2676   -0.9380   -0.5700 N   0  0  0  0  0  0  0  0  0  0  0  0
    0.7015   -1.7041   -0.8792 C   0  0  0  0  0  0  0  0  0  0  0  0
    0.9541   -2.1286   -2.1695 N   0  0  0  0  0  0  0  0  0  0  0  0
    1.7481   -2.1620    0.4849 S   0  0  0  0  0  0  0  0  0  0  0  0
    4.7939   -0.3007    0.7639 C   0  0  0  0  0  0  0  0  0  0  0  0
    5.6554   -1.5372    0.4770 C   0  0  0  0  0  0  0  0  0  0  0  0
    8.6950   -0.6713    1.7801 H   0  0  0  0  0  0  0  0  0  0  0  0
    7.8431   -0.2884    0.2123 H   0  0  0  0  0  0  0  0  0  0  0  0
    7.3243    0.4615    1.7524 H   0  0  0  0  0  0  0  0  0  0  0  0
    7.2605   -2.5975    1.3225 H   0  0  0  0  0  0  0  0  0  0  0  0
    7.1194   -1.5892    3.5951 H   0  0  0  0  0  0  0  0  0  0  0  0
    5.7158   -2.5572    3.1144 H   0  0  0  0  0  0  0  0  0  0  0  0
    4.8274   -0.6572    4.1295 H   0  0  0  0  0  0  0  0  0  0  0  0
    5.9044    0.5281    3.2015 H   0  0  0  0  0  0  0  0  0  0  0  0
    2.3699    1.5780    0.8507 H   0  0  0  0  0  0  0  0  0  0  0  0
    1.7185    0.5575   -0.5452 H   0  0  0  0  0  0  0  0  0  0  0  0
    0.4499    0.8683    2.3032 H   0  0  0  0  0  0  0  0  0  0  0  0
    0.0148   -2.0225    2.3649 H   0  0  0  0  0  0  0  0  0  0  0  0
   -0.7065   -2.7268    0.8996 H   0  0  0  0  0  0  0  0  0  0  0  0
   -1.7302   -1.8405    2.0542 H   0  0  0  0  0  0  0  0  0  0  0  0
   -2.0348    0.0716   -1.2840 H   0  0  0  0  0  0  0  0  0  0  0  0
   -3.7293    1.5351   -2.6739 H   0  0  0  0  0  0  0  0  0  0  0  0
   -8.2012    1.3697   -2.2655 H   0  0  0  0  0  0  0  0  0  0  0  0
   -9.4207    1.6254   -4.4554 H   0  0  0  0  0  0  0  0  0  0  0  0
   -5.6836    1.9629   -6.3833 H   0  0  0  0  0  0  0  0  0  0  0  0
   -4.9909    2.3360    0.7381 H   0  0  0  0  0  0  0  0  0  0  0  0
   -3.8070    1.9858    2.8448 H   0  0  0  0  0  0  0  0  0  0  0  0
    1.2662   -1.4118   -2.8890 H   0  0  0  0  0  0  0  0  0  0  0  0
    0.8515   -3.1133   -2.4580 H   0  0  0  0  0  0  0  0  0  0  0  0
    3.9270   -0.3715    0.0837 H   0  0  0  0  0  0  0  0  0  0  0  0
    5.3744    0.6216    0.5955 H   0  0  0  0  0  0  0  0  0  0  0  0
    6.1148   -1.4763   -0.5236 H   0  0  0  0  0  0  0  0  0  0  0  0
    5.0634   -2.4527    0.5332 H   0  0  0  0  0  0  0  0  0  0  0  0
  1  2  1  0
  2  3  1  0
  3  4  1  0
  4  5  1  0
  5  6  1  0
  6  7  2  0
  8  6  1  1
  8  9  1  0
  9 10  1  0
 10 11  1  0
 11 12  1  1
 11 13  1  0
 13 14  2  0
 14 15  1  0
 15 16  1  0
 16 17  2  0
 17 18  1  0
 17 19  1  0
 19 20  2  0
 20 21  1  0
 21 22  2  0
 22 23  1  0
 23 24  3  0
 22 25  1  0
 25 26  2  0
 15 27  2  0
 27 28  1  0
 28 29  2  0
 29 30  1  0
 11 31  1  0
 31 32  2  0
 32 33  1  0
 32 34  1  0
  5 35  1  0
 35 36  1  0
 36  2  1  0
 10  8  1  0
 29 13  1  0
 34  8  1  0
 26 19  1  0
  1 37  1  0
  1 38  1  0
  1 39  1  0
  2 40  1  0
  3 41  1  0
  3 42  1  0
  4 43  1  0
  4 44  1  0
  9 45  1  0
  9 46  1  0
 10 47  1  1
 12 48  1  0
 12 49  1  0
 12 50  1  0
 14 51  1  0
 16 52  1  0
 20 53  1  0
 21 54  1  0
 25 55  1  0
 27 56  1  0
 28 57  1  0
 33 58  1  0
 33 59  1  0
 35 60  1  0
 35 61  1  0
 36 62  1  0
 36 63  1  0
M  END
$$$$
