@<TRIPOS>MOLECULE
*****
 40 43 0 0 0
SMALL
GASTEIGER

@<TRIPOS>ATOM
      1 C           7.2766   -0.4828    0.5441 C.3     1  UNL1        0.0004
      2 N           5.9487   -0.2181   -0.0337 N.am    1  UNL1       -0.3144
      3 C           4.7641   -0.5355    0.6678 C.2     1  UNL1        0.2439
      4 O           4.9215   -1.0576    1.8142 O.2     1  UNL1       -0.2702
      5 C           3.4124   -0.2943    0.1436 C.ar    1  UNL1        0.0373
      6 C           3.1974    0.2819   -1.0874 C.ar    1  UNL1       -0.0490
      7 C           1.9005    0.4837   -1.5292 C.ar    1  UNL1       -0.0533
      8 C           0.8006    0.1277   -0.7799 C.ar    1  UNL1       -0.0175
      9 C          -0.4926    0.3296   -1.2245 C.ar    1  UNL1       -0.0477
     10 C          -1.5890   -0.0391   -0.4506 C.ar    1  UNL1       -0.0096
     11 C          -2.9879    0.1677   -0.9063 C.3     1  UNL1        0.1337
     12 O          -3.0085    0.5727   -2.2408 O.3     1  UNL1       -0.3777
     13 C          -3.7162   -1.1335   -0.7891 C.3     1  UNL1        0.0039
     14 C          -4.7707   -0.9291    0.2539 C.3     1  UNL1        0.0278
     15 N          -4.6942    0.4801    0.6202 N.ar    1  UNL1       -0.3312
     16 C          -5.3139    1.3589    1.4079 C.ar    1  UNL1        0.0962
     17 N          -4.7091    2.5568    1.2670 N.ar    1  UNL1       -0.2437
     18 C          -3.7082    2.4077    0.3828 C.ar    1  UNL1        0.0518
     19 C          -3.7025    1.0934   -0.0236 C.ar    1  UNL1        0.0745
     20 C          -1.3937   -0.6165    0.7826 C.ar    1  UNL1       -0.0549
     21 C          -0.0947   -0.8084    1.2060 C.ar    1  UNL1       -0.0537
     22 C           1.0039   -0.4513    0.4567 C.ar    1  UNL1       -0.0171
     23 C           2.2972   -0.6470    0.8859 C.ar    1  UNL1       -0.0419
     24 H           7.9385    0.3150    0.1511 H       1  UNL1        0.0426
     25 H           7.6117   -1.4792    0.2555 H       1  UNL1        0.0426
     26 H           7.1832   -0.3479    1.6419 H       1  UNL1        0.0426
     27 H           5.8900    0.2120   -0.9799 H       1  UNL1        0.1487
     28 H           4.0429    0.5679   -1.6897 H       1  UNL1        0.0625
     29 H           1.7782    0.9406   -2.5054 H       1  UNL1        0.0624
     30 H          -0.6585    0.7878   -2.2036 H       1  UNL1        0.0627
     31 H          -2.6116    1.4756   -2.3500 H       1  UNL1        0.2111
     32 H          -3.0428   -1.9536   -0.4281 H       1  UNL1        0.0317
     33 H          -4.1550   -1.4724   -1.7515 H       1  UNL1        0.0317
     34 H          -5.7702   -1.1805   -0.1709 H       1  UNL1        0.0493
     35 H          -4.6380   -1.5961    1.1312 H       1  UNL1        0.0493
     36 H          -6.1583    1.1640    2.0565 H       1  UNL1        0.1029
     37 H          -3.0273    3.1909    0.0510 H       1  UNL1        0.0849
     38 H          -2.2503   -0.9083    1.3960 H       1  UNL1        0.0621
     39 H           0.0738   -1.2626    2.1762 H       1  UNL1        0.0624
     40 H           2.4521   -1.0999    1.8521 H       1  UNL1        0.0631
@<TRIPOS>BOND
     1     1     2    1
     2     2     3   am
     3     3     4    2
     4     3     5    1
     5     5     6   ar
     6     6     7   ar
     7     7     8   ar
     8     8     9   ar
     9     9    10   ar
    10    10    11    1
    11    11    12    1
    12    11    13    1
    13    13    14    1
    14    14    15    1
    15    15    16   ar
    16    16    17   ar
    17    17    18   ar
    18    18    19   ar
    19    10    20   ar
    20    20    21   ar
    21    21    22   ar
    22    22    23   ar
    23    23     5   ar
    24    22     8   ar
    25    19    11    1
    26    19    15   ar
    27     1    24    1
    28     1    25    1
    29     1    26    1
    30     2    27    1
    31     6    28    1
    32     7    29    1
    33     9    30    1
    34    12    31    1
    35    13    32    1
    36    13    33    1
    37    14    34    1
    38    14    35    1
    39    16    36    1
    40    18    37    1
    41    20    38    1
    42    21    39    1
    43    23    40    1
