@<TRIPOS>MOLECULE
*****
 53 56 0 0 0
SMALL
GASTEIGER

@<TRIPOS>ATOM
      1 C           5.0191   -1.0285   -0.4979 C.3     1  UNL1       -0.0058
      2 C           4.4371   -0.4440    0.7509 C.2     1  UNL1        0.1339
      3 O           5.0171   -0.6702    1.8281 O.2     1  UNL1       -0.2974
      4 C           3.2240    0.3894    0.8088 C.3     1  UNL1        0.0229
      5 C           3.3770    1.4952   -0.2550 C.3     1  UNL1       -0.0427
      6 C           2.2490    1.1729   -1.2563 C.3     1  UNL1       -0.0488
      7 C           1.2129    0.7489   -0.3067 C.3     1  UNL1       -0.0319
      8 C          -0.0549    0.1838   -0.8074 C.3     1  UNL1       -0.0338
      9 C          -0.6322    0.8485   -1.9900 C.3     1  UNL1       -0.0459
     10 C          -1.9780    1.4510   -1.8599 C.3     1  UNL1       -0.0305
     11 C          -2.8494    0.8610   -0.8538 C.2     1  UNL1       -0.0601
     12 C          -4.1040    1.2642   -0.7788 C.2     1  UNL1       -0.0194
     13 C          -5.0550    0.7529    0.1740 C.2     1  UNL1        0.1561
     14 O          -6.2084    1.2384    0.2619 O.2     1  UNL1       -0.2927
     15 C          -4.6666   -0.3593    1.0607 C.3     1  UNL1        0.0107
     16 C          -3.1840   -0.2309    1.3483 C.3     1  UNL1       -0.0367
     17 C          -2.3667   -0.1791    0.0893 C.3     1  UNL1       -0.0072
     18 C          -2.4779   -1.5085   -0.6222 C.3     1  UNL1       -0.0556
     19 C          -0.9605    0.1456    0.4208 C.3     1  UNL1       -0.0288
     20 C          -0.3386   -0.7473    1.4396 C.3     1  UNL1       -0.0486
     21 C           1.0515   -0.3715    1.8060 C.3     1  UNL1       -0.0464
     22 C           1.9231   -0.2622    0.5686 C.3     1  UNL1       -0.0195
     23 C           2.0597   -1.6063   -0.0288 C.3     1  UNL1       -0.0587
     24 H           5.9983   -0.5462   -0.7392 H       1  UNL1        0.0306
     25 H           4.3322   -1.0265   -1.3514 H       1  UNL1        0.0306
     26 H           5.2829   -2.0852   -0.2774 H       1  UNL1        0.0306
     27 H           3.2153    0.9065    1.8325 H       1  UNL1        0.0383
     28 H           4.3573    1.4887   -0.7207 H       1  UNL1        0.0272
     29 H           3.1031    2.4559    0.2220 H       1  UNL1        0.0272
     30 H           2.5735    0.4560   -2.0080 H       1  UNL1        0.0268
     31 H           2.0382    2.1439   -1.7674 H       1  UNL1        0.0268
     32 H           0.9738    1.6074    0.3587 H       1  UNL1        0.0309
     33 H           0.1327   -0.9056   -1.0450 H       1  UNL1        0.0307
     34 H          -0.6066    0.1577   -2.8849 H       1  UNL1        0.0271
     35 H           0.0775    1.6761   -2.2941 H       1  UNL1        0.0271
     36 H          -2.4987    1.3754   -2.8488 H       1  UNL1        0.0310
     37 H          -1.9005    2.5616   -1.6791 H       1  UNL1        0.0310
     38 H          -4.4808    2.0359   -1.4699 H       1  UNL1        0.0652
     39 H          -4.8981   -1.3536    0.6234 H       1  UNL1        0.0345
     40 H          -5.1783   -0.3141    2.0503 H       1  UNL1        0.0345
     41 H          -3.0577    0.6868    1.9609 H       1  UNL1        0.0278
     42 H          -2.8903   -1.1346    1.9120 H       1  UNL1        0.0278
     43 H          -1.7494   -1.5911   -1.4320 H       1  UNL1        0.0238
     44 H          -2.4080   -2.3733    0.0501 H       1  UNL1        0.0238
     45 H          -3.5148   -1.5356   -1.0577 H       1  UNL1        0.0238
     46 H          -0.9371    1.1910    0.8340 H       1  UNL1        0.0312
     47 H          -0.4911   -1.7959    1.1251 H       1  UNL1        0.0268
     48 H          -0.9589   -0.6522    2.3798 H       1  UNL1        0.0268
     49 H           1.0175    0.6045    2.3296 H       1  UNL1        0.0271
     50 H           1.4455   -1.1309    2.5125 H       1  UNL1        0.0271
     51 H           1.2597   -2.3242    0.2860 H       1  UNL1        0.0235
     52 H           2.0755   -1.6500   -1.1303 H       1  UNL1        0.0235
     53 H           2.9928   -2.0725    0.3410 H       1  UNL1        0.0235
@<TRIPOS>BOND
     1     1     2    1
     2     2     3    2
     3     2     4    1
     4     4     5    1
     5     5     6    1
     6     6     7    1
     7     7     8    1
     8     8     9    1
     9     9    10    1
    10    10    11    1
    11    11    12    2
    12    12    13    1
    13    13    14    2
    14    13    15    1
    15    15    16    1
    16    16    17    1
    17    17    18    1
    18    17    19    1
    19    19    20    1
    20    20    21    1
    21    21    22    1
    22    22    23    1
    23    22     4    1
    24    22     7    1
    25    19     8    1
    26    17    11    1
    27     1    24    1
    28     1    25    1
    29     1    26    1
    30     4    27    1
    31     5    28    1
    32     5    29    1
    33     6    30    1
    34     6    31    1
    35     7    32    1
    36     8    33    1
    37     9    34    1
    38     9    35    1
    39    10    36    1
    40    10    37    1
    41    12    38    1
    42    15    39    1
    43    15    40    1
    44    16    41    1
    45    16    42    1
    46    18    43    1
    47    18    44    1
    48    18    45    1
    49    19    46    1
    50    20    47    1
    51    20    48    1
    52    21    49    1
    53    21    50    1
    54    23    51    1
    55    23    52    1
    56    23    53    1
