@<TRIPOS>MOLECULE
*****
 63 67 0 0 0
SMALL
GASTEIGER

@<TRIPOS>ATOM
      1 O           0.7773   -1.3245    2.5408 O.2     1  UNL1       -0.2734
      2 C           0.1363   -0.8619    1.5639 C.2     1  UNL1        0.2378
      3 N           0.8590   -0.2596    0.5068 N.am    1  UNL1       -0.2840
      4 C           2.2782   -0.1883    0.5672 C.ar    1  UNL1        0.0337
      5 C           2.9617    0.8720    1.1281 C.ar    1  UNL1       -0.0370
      6 C           4.3407    0.9077    1.1682 C.ar    1  UNL1       -0.0176
      7 C           5.0988   -0.1228    0.6454 C.ar    1  UNL1        0.1286
      8 O           6.4798   -0.1196    0.6685 O.3     1  UNL1       -0.4560
      9 C           7.1426    0.4588   -0.4265 C.ar    1  UNL1        0.1286
     10 C           8.5188    0.5051   -0.4740 C.ar    1  UNL1       -0.0166
     11 C           9.1205    1.0803   -1.5644 C.ar    1  UNL1       -0.0230
     12 C           8.4241    1.6192   -2.6240 C.ar    1  UNL1        0.1236
     13 F           9.0368    2.1835   -3.6923 F       1  UNL1       -0.2055
     14 C           7.0474    1.5540   -2.5405 C.ar    1  UNL1       -0.0230
     15 C           6.4067    0.9851   -1.4635 C.ar    1  UNL1       -0.0166
     16 C           4.4289   -1.1870    0.0826 C.ar    1  UNL1       -0.0176
     17 C           3.0396   -1.2130    0.0474 C.ar    1  UNL1       -0.0370
     18 C          -1.3454   -0.9742    1.5751 C.3     1  UNL1        0.1028
     19 C          -1.8062   -2.4012    1.6331 C.3     1  UNL1       -0.0212
     20 C          -2.8624   -2.4570    0.5513 C.3     1  UNL1       -0.0191
     21 C          -4.1648   -2.0289    1.1653 C.3     1  UNL1       -0.0233
     22 C          -5.2834   -2.0416    0.1998 C.ar    1  UNL1       -0.0470
     23 C          -5.5364   -0.8930   -0.5208 C.ar    1  UNL1       -0.0586
     24 C          -6.5774   -0.9013   -1.4215 C.ar    1  UNL1       -0.0615
     25 C          -7.3729   -2.0245   -1.6227 C.ar    1  UNL1       -0.0617
     26 C          -7.1187   -3.1743   -0.9005 C.ar    1  UNL1       -0.0615
     27 C          -6.0716   -3.1553    0.0007 C.ar    1  UNL1       -0.0586
     28 C          -2.3193   -1.4758   -0.4471 C.3     1  UNL1        0.0187
     29 N          -1.9347   -0.3808    0.3924 N.am    1  UNL1       -0.2881
     30 C          -2.0974    1.0040    0.1226 C.2     1  UNL1        0.2377
     31 O          -2.6288    1.3746   -0.9540 O.2     1  UNL1       -0.2736
     32 C          -1.6618    2.0595    1.0694 C.3     1  UNL1        0.1195
     33 N          -1.9395    3.3680    0.5587 N.ar    1  UNL1       -0.2432
     34 C          -3.0845    4.0568    0.7641 C.ar    1  UNL1        0.1148
     35 N          -2.9856    5.2386    0.1374 N.ar    1  UNL1       -0.2228
     36 C          -1.7934    5.3033   -0.4601 C.ar    1  UNL1        0.1380
     37 N          -1.1663    4.1482   -0.1909 N.ar    1  UNL1       -0.1580
     38 H           0.3213    0.1170   -0.2914 H       1  UNL1        0.1549
     39 H           2.3504    1.6788    1.5373 H       1  UNL1        0.0637
     40 H           4.8694    1.7283    1.6023 H       1  UNL1        0.0655
     41 H           9.0537    0.0775    0.3660 H       1  UNL1        0.0655
     42 H          10.2007    1.1168   -1.6016 H       1  UNL1        0.0647
     43 H           6.4323    1.9605   -3.3430 H       1  UNL1        0.0647
     44 H           5.3149    0.9398   -1.4099 H       1  UNL1        0.0655
     45 H           5.0198   -1.9964   -0.3282 H       1  UNL1        0.0655
     46 H           2.5618   -2.0662   -0.4028 H       1  UNL1        0.0637
     47 H          -1.7415   -0.4475    2.4616 H       1  UNL1        0.0597
     48 H          -0.9457   -3.0852    1.4136 H       1  UNL1        0.0291
     49 H          -2.2104   -2.6878    2.6257 H       1  UNL1        0.0291
     50 H          -2.9480   -3.4882    0.1332 H       1  UNL1        0.0320
     51 H          -4.3991   -2.7893    1.9599 H       1  UNL1        0.0316
     52 H          -4.0495   -1.0734    1.6897 H       1  UNL1        0.0316
     53 H          -4.9608    0.0168   -0.4174 H       1  UNL1        0.0620
     54 H          -6.7734    0.0108   -1.9899 H       1  UNL1        0.0618
     55 H          -8.1881   -1.9996   -2.3417 H       1  UNL1        0.0618
     56 H          -7.7487   -4.0355   -1.0719 H       1  UNL1        0.0618
     57 H          -5.8939   -4.0745    0.5560 H       1  UNL1        0.0620
     58 H          -1.3946   -1.9176   -0.8699 H       1  UNL1        0.0467
     59 H          -2.9905   -1.2277   -1.2638 H       1  UNL1        0.0467
     60 H          -2.2816    1.9011    1.9998 H       1  UNL1        0.0606
     61 H          -0.6093    1.9486    1.3932 H       1  UNL1        0.0606
     62 H          -3.9236    3.7112    1.3319 H       1  UNL1        0.1044
     63 H          -1.4123    6.1480   -1.0551 H       1  UNL1        0.1065
@<TRIPOS>BOND
     1     1     2    2
     2     2     3   am
     3     3     4    1
     4     4     5   ar
     5     5     6   ar
     6     6     7   ar
     7     7     8    1
     8     8     9    1
     9     9    10   ar
    10    10    11   ar
    11    11    12   ar
    12    12    13    1
    13    12    14   ar
    14    14    15   ar
    15     7    16   ar
    16    16    17   ar
    17     2    18    1
    18    18    19    1
    19    19    20    1
    20    20    21    1
    21    21    22    1
    22    22    23   ar
    23    23    24   ar
    24    24    25   ar
    25    25    26   ar
    26    26    27   ar
    27    20    28    1
    28    28    29    1
    29    29    30   am
    30    30    31    2
    31    30    32    1
    32    32    33    1
    33    33    34   ar
    34    34    35   ar
    35    35    36   ar
    36    36    37   ar
    37    17     4   ar
    38    29    18    1
    39    37    33   ar
    40    15     9   ar
    41    27    22   ar
    42     3    38    1
    43     5    39    1
    44     6    40    1
    45    10    41    1
    46    11    42    1
    47    14    43    1
    48    15    44    1
    49    16    45    1
    50    17    46    1
    51    18    47    1
    52    19    48    1
    53    19    49    1
    54    20    50    1
    55    21    51    1
    56    21    52    1
    57    23    53    1
    58    24    54    1
    59    25    55    1
    60    26    56    1
    61    27    57    1
    62    28    58    1
    63    28    59    1
    64    32    60    1
    65    32    61    1
    66    34    62    1
    67    36    63    1
