
     RDKit          3D

 63 67  0  0  0  0  0  0  0  0999 V2000
    0.7773   -1.3245    2.5408 O   0  0  0  0  0  0  0  0  0  0  0  0
    0.1363   -0.8619    1.5639 C   0  0  0  0  0  0  0  0  0  0  0  0
    0.8590   -0.2596    0.5068 N   0  0  0  0  0  0  0  0  0  0  0  0
    2.2782   -0.1883    0.5672 C   0  0  0  0  0  0  0  0  0  0  0  0
    2.9617    0.8720    1.1281 C   0  0  0  0  0  0  0  0  0  0  0  0
    4.3407    0.9077    1.1682 C   0  0  0  0  0  0  0  0  0  0  0  0
    5.0988   -0.1228    0.6454 C   0  0  0  0  0  0  0  0  0  0  0  0
    6.4798   -0.1196    0.6685 O   0  0  0  0  0  0  0  0  0  0  0  0
    7.1426    0.4588   -0.4265 C   0  0  0  0  0  0  0  0  0  0  0  0
    8.5188    0.5051   -0.4740 C   0  0  0  0  0  0  0  0  0  0  0  0
    9.1205    1.0803   -1.5644 C   0  0  0  0  0  0  0  0  0  0  0  0
    8.4241    1.6192   -2.6240 C   0  0  0  0  0  0  0  0  0  0  0  0
    9.0368    2.1835   -3.6923 F   0  0  0  0  0  0  0  0  0  0  0  0
    7.0474    1.5540   -2.5405 C   0  0  0  0  0  0  0  0  0  0  0  0
    6.4067    0.9851   -1.4635 C   0  0  0  0  0  0  0  0  0  0  0  0
    4.4289   -1.1870    0.0826 C   0  0  0  0  0  0  0  0  0  0  0  0
    3.0396   -1.2130    0.0474 C   0  0  0  0  0  0  0  0  0  0  0  0
   -1.3454   -0.9742    1.5751 C   0  0  2  0  0  0  0  0  0  0  0  0
   -1.8062   -2.4012    1.6331 C   0  0  0  0  0  0  0  0  0  0  0  0
   -2.8624   -2.4570    0.5513 C   0  0  1  0  0  0  0  0  0  0  0  0
   -4.1648   -2.0289    1.1653 C   0  0  0  0  0  0  0  0  0  0  0  0
   -5.2834   -2.0416    0.1998 C   0  0  0  0  0  0  0  0  0  0  0  0
   -5.5364   -0.8930   -0.5208 C   0  0  0  0  0  0  0  0  0  0  0  0
   -6.5774   -0.9013   -1.4215 C   0  0  0  0  0  0  0  0  0  0  0  0
   -7.3729   -2.0245   -1.6227 C   0  0  0  0  0  0  0  0  0  0  0  0
   -7.1187   -3.1743   -0.9005 C   0  0  0  0  0  0  0  0  0  0  0  0
   -6.0716   -3.1553    0.0007 C   0  0  0  0  0  0  0  0  0  0  0  0
   -2.3193   -1.4758   -0.4471 C   0  0  0  0  0  0  0  0  0  0  0  0
   -1.9347   -0.3808    0.3924 N   0  0  0  0  0  0  0  0  0  0  0  0
   -2.0974    1.0040    0.1226 C   0  0  0  0  0  0  0  0  0  0  0  0
   -2.6288    1.3746   -0.9540 O   0  0  0  0  0  0  0  0  0  0  0  0
   -1.6618    2.0595    1.0694 C   0  0  0  0  0  0  0  0  0  0  0  0
   -1.9395    3.3680    0.5587 N   0  0  0  0  0  0  0  0  0  0  0  0
   -3.0845    4.0568    0.7641 C   0  0  0  0  0  0  0  0  0  0  0  0
   -2.9856    5.2386    0.1374 N   0  0  0  0  0  0  0  0  0  0  0  0
   -1.7934    5.3033   -0.4601 C   0  0  0  0  0  0  0  0  0  0  0  0
   -1.1663    4.1482   -0.1909 N   0  0  0  0  0  0  0  0  0  0  0  0
    0.3213    0.1170   -0.2914 H   0  0  0  0  0  0  0  0  0  0  0  0
    2.3504    1.6788    1.5373 H   0  0  0  0  0  0  0  0  0  0  0  0
    4.8694    1.7283    1.6023 H   0  0  0  0  0  0  0  0  0  0  0  0
    9.0537    0.0775    0.3660 H   0  0  0  0  0  0  0  0  0  0  0  0
   10.2007    1.1168   -1.6016 H   0  0  0  0  0  0  0  0  0  0  0  0
    6.4323    1.9605   -3.3430 H   0  0  0  0  0  0  0  0  0  0  0  0
    5.3149    0.9398   -1.4099 H   0  0  0  0  0  0  0  0  0  0  0  0
    5.0198   -1.9964   -0.3282 H   0  0  0  0  0  0  0  0  0  0  0  0
    2.5618   -2.0662   -0.4028 H   0  0  0  0  0  0  0  0  0  0  0  0
   -1.7415   -0.4475    2.4616 H   0  0  0  0  0  0  0  0  0  0  0  0
   -0.9457   -3.0852    1.4136 H   0  0  0  0  0  0  0  0  0  0  0  0
   -2.2104   -2.6878    2.6257 H   0  0  0  0  0  0  0  0  0  0  0  0
   -2.9480   -3.4882    0.1332 H   0  0  0  0  0  0  0  0  0  0  0  0
   -4.3991   -2.7893    1.9599 H   0  0  0  0  0  0  0  0  0  0  0  0
   -4.0495   -1.0734    1.6897 H   0  0  0  0  0  0  0  0  0  0  0  0
   -4.9608    0.0168   -0.4174 H   0  0  0  0  0  0  0  0  0  0  0  0
   -6.7734    0.0108   -1.9899 H   0  0  0  0  0  0  0  0  0  0  0  0
   -8.1881   -1.9996   -2.3417 H   0  0  0  0  0  0  0  0  0  0  0  0
   -7.7487   -4.0355   -1.0719 H   0  0  0  0  0  0  0  0  0  0  0  0
   -5.8939   -4.0745    0.5560 H   0  0  0  0  0  0  0  0  0  0  0  0
   -1.3946   -1.9176   -0.8699 H   0  0  0  0  0  0  0  0  0  0  0  0
   -2.9905   -1.2277   -1.2638 H   0  0  0  0  0  0  0  0  0  0  0  0
   -2.2816    1.9011    1.9998 H   0  0  0  0  0  0  0  0  0  0  0  0
   -0.6093    1.9486    1.3932 H   0  0  0  0  0  0  0  0  0  0  0  0
   -3.9236    3.7112    1.3319 H   0  0  0  0  0  0  0  0  0  0  0  0
   -1.4123    6.1480   -1.0551 H   0  0  0  0  0  0  0  0  0  0  0  0
  1  2  2  0
  2  3  1  0
  3  4  1  0
  4  5  2  0
  5  6  1  0
  6  7  2  0
  7  8  1  0
  8  9  1  0
  9 10  2  0
 10 11  1  0
 11 12  2  0
 12 13  1  0
 12 14  1  0
 14 15  2  0
  7 16  1  0
 16 17  2  0
  2 18  1  0
 18 19  1  0
 19 20  1  0
 20 21  1  0
 21 22  1  0
 22 23  2  0
 23 24  1  0
 24 25  2  0
 25 26  1  0
 26 27  2  0
 20 28  1  0
 28 29  1  0
 29 30  1  0
 30 31  2  0
 30 32  1  0
 32 33  1  0
 33 34  1  0
 34 35  2  0
 35 36  1  0
 36 37  2  0
 17  4  1  0
 29 18  1  0
 37 33  1  0
 15  9  1  0
 27 22  1  0
  3 38  1  0
  5 39  1  0
  6 40  1  0
 10 41  1  0
 11 42  1  0
 14 43  1  0
 15 44  1  0
 16 45  1  0
 17 46  1  0
 18 47  1  1
 19 48  1  0
 19 49  1  0
 20 50  1  6
 21 51  1  0
 21 52  1  0
 23 53  1  0
 24 54  1  0
 25 55  1  0
 26 56  1  0
 27 57  1  0
 28 58  1  0
 28 59  1  0
 32 60  1  0
 32 61  1  0
 34 62  1  0
 36 63  1  0
M  END
$$$$
