@<TRIPOS>MOLECULE
*****
 39 39 0 0 0
SMALL
GASTEIGER

@<TRIPOS>ATOM
      1 O           7.7563    0.1627   -0.3644 O.3     1  UNL1       -0.2952
      2 N           6.5593    0.4530    0.1996 N.am    1  UNL1       -0.1975
      3 C           5.2525   -0.0838    0.0572 C.2     1  UNL1        0.2354
      4 O           5.2700   -1.0192   -0.7780 O.2     1  UNL1       -0.2737
      5 C           4.3505    0.6890    0.9742 C.3     1  UNL1        0.0259
      6 C           2.9742    0.1278    0.8282 C.3     1  UNL1       -0.0447
      7 C           2.4404    0.2361   -0.5915 C.3     1  UNL1       -0.0526
      8 C           1.0527   -0.3732   -0.5565 C.3     1  UNL1       -0.0526
      9 C           0.3732   -0.3511   -1.8796 C.3     1  UNL1       -0.0448
     10 C          -0.9934   -0.9717   -1.7740 C.3     1  UNL1        0.0243
     11 C          -1.8697   -0.2377   -0.8648 C.2     1  UNL1        0.2172
     12 O          -1.5789    0.8354   -0.2974 O.2     1  UNL1       -0.2755
     13 N          -3.1541   -0.7603   -0.5871 N.am    1  UNL1       -0.2855
     14 C          -4.1728   -0.2730    0.2288 C.ar    1  UNL1        0.0334
     15 C          -4.1724    0.8752    0.9864 C.ar    1  UNL1       -0.0405
     16 C          -5.1843    1.3391    1.7837 C.ar    1  UNL1       -0.0600
     17 C          -6.3466    0.6044    1.8630 C.ar    1  UNL1       -0.0616
     18 C          -6.4191   -0.5573    1.1314 C.ar    1  UNL1       -0.0600
     19 C          -5.3618   -0.9620    0.3511 C.ar    1  UNL1       -0.0405
     20 H           7.8038    0.7220   -1.1785 H       1  UNL1        0.2414
     21 H           6.9493    1.2298    0.7897 H       1  UNL1        0.1822
     22 H           4.3500    1.7597    0.6941 H       1  UNL1        0.0359
     23 H           4.6494    0.5596    2.0242 H       1  UNL1        0.0359
     24 H           2.2870    0.6737    1.4890 H       1  UNL1        0.0270
     25 H           2.9809   -0.9711    1.0424 H       1  UNL1        0.0270
     26 H           2.3435    1.2985   -0.8945 H       1  UNL1        0.0265
     27 H           3.1207   -0.2589   -1.3011 H       1  UNL1        0.0265
     28 H           1.1073   -1.4516   -0.2478 H       1  UNL1        0.0265
     29 H           0.4853    0.1247    0.2368 H       1  UNL1        0.0265
     30 H           1.0095   -0.8928   -2.6290 H       1  UNL1        0.0270
     31 H           0.3042    0.6852   -2.2997 H       1  UNL1        0.0270
     32 H          -1.4635   -1.1197   -2.7792 H       1  UNL1        0.0358
     33 H          -0.8864   -2.0134   -1.3491 H       1  UNL1        0.0358
     34 H          -3.3699   -1.6766   -1.0875 H       1  UNL1        0.1548
     35 H          -3.2989    1.5088    0.9806 H       1  UNL1        0.0636
     36 H          -5.1141    2.2547    2.3540 H       1  UNL1        0.0618
     37 H          -7.1816    0.8861    2.4542 H       1  UNL1        0.0618
     38 H          -7.3295   -1.1458    1.1849 H       1  UNL1        0.0618
     39 H          -5.5229   -1.9062   -0.1938 H       1  UNL1        0.0636
@<TRIPOS>BOND
     1     1     2    1
     2     2     3   am
     3     3     4    2
     4     3     5    1
     5     5     6    1
     6     6     7    1
     7     7     8    1
     8     8     9    1
     9     9    10    1
    10    10    11    1
    11    11    12    2
    12    11    13   am
    13    13    14    1
    14    14    15   ar
    15    15    16   ar
    16    16    17   ar
    17    17    18   ar
    18    18    19   ar
    19    19    14   ar
    20     1    20    1
    21     2    21    1
    22     5    22    1
    23     5    23    1
    24     6    24    1
    25     6    25    1
    26     7    26    1
    27     7    27    1
    28     8    28    1
    29     8    29    1
    30     9    30    1
    31     9    31    1
    32    10    32    1
    33    10    33    1
    34    13    34    1
    35    15    35    1
    36    16    36    1
    37    17    37    1
    38    18    38    1
    39    19    39    1
