@<TRIPOS>MOLECULE
*****
 95 98 0 0 0
SMALL
GASTEIGER

@<TRIPOS>ATOM
      1 C           2.7161   -5.4606    2.9530 C.3     1  UNL1       -0.0221
      2 C           1.9516   -4.2491    2.5597 C.ar    1  UNL1        0.0451
      3 C           2.5861   -3.2883    1.7548 C.ar    1  UNL1       -0.0007
      4 C           1.9082   -2.1684    1.3869 C.ar    1  UNL1        0.1242
      5 N           2.5129   -1.1456    0.6060 N.pl3   1  UNL1       -0.3260
      6 C           3.8798   -1.2037    0.2342 C.3     1  UNL1        0.0248
      7 C           4.8304   -1.0376    1.4003 C.3     1  UNL1       -0.0186
      8 C           6.1976   -1.4489    0.8929 C.3     1  UNL1        0.0163
      9 N           6.5824   -0.3903   -0.0506 N.am    1  UNL1       -0.3013
     10 C           7.8034    0.2902    0.1917 C.2     1  UNL1        0.2168
     11 O           8.5169   -0.0120    1.1782 O.2     1  UNL1       -0.2756
     12 C           8.2854    1.3811   -0.7056 C.3     1  UNL1        0.0367
     13 C           9.6172    1.8795   -0.1817 C.3     1  UNL1        0.0046
     14 N          10.1920    2.9355   -0.9611 N.3     1  UNL1       -0.3062
     15 C          10.6294    2.5410   -2.2770 C.3     1  UNL1        0.0943
     16 C          11.7926    1.6288   -2.2337 C.2     1  UNL1        0.3187
     17 O          12.3580    1.2328   -1.1857 O.2     1  UNL1       -0.2496
     18 O          12.3292    1.1504   -3.4457 O.3     1  UNL1       -0.4797
     19 C           5.6871   -0.1289   -1.1462 C.3     1  UNL1        0.0163
     20 C           4.2296   -0.0844   -0.7383 C.3     1  UNL1       -0.0186
     21 N           0.6184   -2.0290    1.8238 N.ar    1  UNL1       -0.1997
     22 C          -0.0059   -2.9251    2.5869 C.ar    1  UNL1        0.2174
     23 N          -1.3512   -2.7476    3.0467 N.pl3   1  UNL1       -0.3077
     24 C          -2.1789   -1.6338    2.7046 C.3     1  UNL1        0.0574
     25 C          -2.5511   -1.6860    1.2753 C.ar    1  UNL1        0.0998
     26 C          -1.9381   -1.1440    0.1804 C.ar    1  UNL1        0.0502
     27 N          -2.6689   -1.4649   -0.8986 N.ar    1  UNL1       -0.2514
     28 C          -2.4452   -1.1251   -2.2976 C.3     1  UNL1        0.0443
     29 C          -3.1089    0.1429   -2.7054 C.3     1  UNL1       -0.0207
     30 C          -2.6646    1.3632   -1.9908 C.3     1  UNL1       -0.0024
     31 N          -2.8081    1.4235   -0.5960 N.3     1  UNL1       -0.3159
     32 C          -4.0869    1.4814   -0.0130 C.3     1  UNL1       -0.0030
     33 C          -4.8701    2.7530   -0.2697 C.3     1  UNL1       -0.0278
     34 C          -6.1949    2.6078    0.4926 C.3     1  UNL1       -0.0027
     35 N          -6.8827    1.4406   -0.0056 N.3     1  UNL1       -0.3132
     36 C          -8.0776    1.2384    0.7589 C.3     1  UNL1        0.0076
     37 C          -9.0901    2.3294    0.6767 C.3     1  UNL1       -0.0375
     38 C          -9.8642    2.3708   -0.6112 C.3     1  UNL1       -0.0516
     39 C         -10.5311    1.0226   -0.8246 C.3     1  UNL1       -0.0530
     40 C          -9.5023   -0.0916   -0.8089 C.3     1  UNL1       -0.0516
     41 C          -8.6910   -0.0904    0.4468 C.3     1  UNL1       -0.0375
     42 N          -3.7234   -2.1969   -0.4873 N.ar    1  UNL1       -0.0654
     43 N          -3.6532   -2.3301    0.8200 N.ar    1  UNL1       -0.1329
     44 N           0.6930   -4.0204    2.9334 N.ar    1  UNL1       -0.2197
     45 H           2.3365   -5.9225    3.8707 H       1  UNL1        0.0293
     46 H           2.7038   -6.1759    2.1034 H       1  UNL1        0.0293
     47 H           3.7879   -5.1868    3.1076 H       1  UNL1        0.0293
     48 H           3.5866   -3.4914    1.4534 H       1  UNL1        0.0670
     49 H           1.8942   -0.3434    0.3181 H       1  UNL1        0.1477
     50 H           4.1478   -2.1608   -0.2966 H       1  UNL1        0.0499
     51 H           4.8340    0.0537    1.6678 H       1  UNL1        0.0298
     52 H           4.6017   -1.5927    2.2932 H       1  UNL1        0.0298
     53 H           6.9238   -1.5414    1.7246 H       1  UNL1        0.0465
     54 H           6.0647   -2.4122    0.3503 H       1  UNL1        0.0465
     55 H           7.5274    2.1934   -0.7255 H       1  UNL1        0.0371
     56 H           8.3686    1.0229   -1.7505 H       1  UNL1        0.0371
     57 H           9.4446    2.2517    0.8727 H       1  UNL1        0.0429
     58 H          10.3323    1.0275   -0.0476 H       1  UNL1        0.0429
     59 H           9.4614    3.6727   -1.0643 H       1  UNL1        0.1225
     60 H          10.9071    3.4876   -2.8230 H       1  UNL1        0.0539
     61 H           9.7616    2.0562   -2.7855 H       1  UNL1        0.0539
     62 H          12.8964    0.3199   -3.4940 H       1  UNL1        0.2951
     63 H           5.9244    0.8506   -1.6042 H       1  UNL1        0.0465
     64 H           5.8887   -0.9056   -1.9150 H       1  UNL1        0.0465
     65 H           3.6112   -0.1157   -1.6425 H       1  UNL1        0.0298
     66 H           4.0994    0.9143   -0.2396 H       1  UNL1        0.0298
     67 H          -1.7794   -3.4864    3.6864 H       1  UNL1        0.1493
     68 H          -1.5637   -0.6961    2.8795 H       1  UNL1        0.0528
     69 H          -3.0723   -1.5820    3.3638 H       1  UNL1        0.0528
     70 H          -1.0212   -0.5546    0.1462 H       1  UNL1        0.0846
     71 H          -1.3407   -1.0547   -2.4437 H       1  UNL1        0.0510
     72 H          -2.7863   -1.9392   -2.9782 H       1  UNL1        0.0510
     73 H          -2.8342    0.2984   -3.7958 H       1  UNL1        0.0295
     74 H          -4.2090    0.0084   -2.7389 H       1  UNL1        0.0295
     75 H          -3.0593    2.2910   -2.4934 H       1  UNL1        0.0425
     76 H          -1.5482    1.4490   -2.1988 H       1  UNL1        0.0425
     77 H          -2.1305    2.0137   -0.1133 H       1  UNL1        0.1219
     78 H          -3.9370    1.4397    1.1071 H       1  UNL1        0.0424
     79 H          -4.7267    0.5779   -0.2148 H       1  UNL1        0.0424
     80 H          -4.3785    3.6411    0.1706 H       1  UNL1        0.0290
     81 H          -5.0743    2.9533   -1.3182 H       1  UNL1        0.0290
     82 H          -6.8163    3.5337    0.3101 H       1  UNL1        0.0424
     83 H          -6.0375    2.5814    1.5813 H       1  UNL1        0.0424
     84 H          -7.1167    1.5230   -1.0070 H       1  UNL1        0.1222
     85 H          -7.7834    1.1891    1.8612 H       1  UNL1        0.0460
     86 H          -8.7144    3.3269    0.9455 H       1  UNL1        0.0280
     87 H          -9.8567    2.0975    1.4786 H       1  UNL1        0.0280
     88 H          -9.3049    2.7245   -1.4793 H       1  UNL1        0.0266
     89 H         -10.7018    3.1089   -0.4456 H       1  UNL1        0.0266
     90 H         -11.2165    0.8349    0.0137 H       1  UNL1        0.0265
     91 H         -11.0207    1.0172   -1.8018 H       1  UNL1        0.0265
     92 H         -10.0636   -1.0547   -0.8639 H       1  UNL1        0.0266
     93 H          -8.8646   -0.0609   -1.7310 H       1  UNL1        0.0266
     94 H          -9.3127   -0.4515    1.2917 H       1  UNL1        0.0280
     95 H          -7.8618   -0.8413    0.3025 H       1  UNL1        0.0280
@<TRIPOS>BOND
     1     1     2    1
     2     2     3   ar
     3     3     4   ar
     4     4     5    1
     5     5     6    1
     6     6     7    1
     7     7     8    1
     8     8     9    1
     9     9    10   am
    10    10    11    2
    11    10    12    1
    12    12    13    1
    13    13    14    1
    14    14    15    1
    15    15    16    1
    16    16    17    2
    17    16    18    1
    18     9    19    1
    19    19    20    1
    20     4    21   ar
    21    21    22   ar
    22    22    23    1
    23    23    24    1
    24    24    25    1
    25    25    26   ar
    26    26    27   ar
    27    27    28    1
    28    28    29    1
    29    29    30    1
    30    30    31    1
    31    31    32    1
    32    32    33    1
    33    33    34    1
    34    34    35    1
    35    35    36    1
    36    36    37    1
    37    37    38    1
    38    38    39    1
    39    39    40    1
    40    40    41    1
    41    27    42   ar
    42    42    43   ar
    43    22    44   ar
    44    44     2   ar
    45    20     6    1
    46    43    25   ar
    47    41    36    1
    48     1    45    1
    49     1    46    1
    50     1    47    1
    51     3    48    1
    52     5    49    1
    53     6    50    1
    54     7    51    1
    55     7    52    1
    56     8    53    1
    57     8    54    1
    58    12    55    1
    59    12    56    1
    60    13    57    1
    61    13    58    1
    62    14    59    1
    63    15    60    1
    64    15    61    1
    65    18    62    1
    66    19    63    1
    67    19    64    1
    68    20    65    1
    69    20    66    1
    70    23    67    1
    71    24    68    1
    72    24    69    1
    73    26    70    1
    74    28    71    1
    75    28    72    1
    76    29    73    1
    77    29    74    1
    78    30    75    1
    79    30    76    1
    80    31    77    1
    81    32    78    1
    82    32    79    1
    83    33    80    1
    84    33    81    1
    85    34    82    1
    86    34    83    1
    87    35    84    1
    88    36    85    1
    89    37    86    1
    90    37    87    1
    91    38    88    1
    92    38    89    1
    93    39    90    1
    94    39    91    1
    95    40    92    1
    96    40    93    1
    97    41    94    1
    98    41    95    1
