@<TRIPOS>MOLECULE
*****
 48 52 0 0 0
SMALL
GASTEIGER

@<TRIPOS>ATOM
      1 C           2.9615   -0.3306   -1.6872 C.3     1  UNL1       -0.0393
      2 C           2.3785   -0.7045   -0.3254 C.3     1  UNL1        0.0834
      3 C           0.9270   -0.9655   -0.5748 C.ar    1  UNL1        0.1542
      4 N           0.2719   -2.0611   -1.0212 N.ar    1  UNL1       -0.1320
      5 N          -1.0476   -1.8164   -1.0882 N.ar    1  UNL1       -0.1275
      6 C          -1.2356   -0.5584   -0.6817 C.ar    1  UNL1        0.1833
      7 C          -2.5377    0.1767   -0.5688 C.ar    1  UNL1        0.1158
      8 C          -2.6396    1.5488   -0.9176 C.ar    1  UNL1        0.0067
      9 S          -4.3253    1.9279   -0.5976 S.2     1  UNL1       -0.0749
     10 C          -4.7363    0.1561   -0.0118 C.ar    1  UNL1        0.1090
     11 C          -6.0976   -0.1049    0.4082 C.ar    1  UNL1        0.0071
     12 C          -7.1017    0.8366    0.4543 C.ar    1  UNL1       -0.0521
     13 C          -8.3783    0.5096    0.8604 C.ar    1  UNL1       -0.0611
     14 C          -8.6851   -0.7759    1.2329 C.ar    1  UNL1       -0.0617
     15 C          -7.6910   -1.7240    1.1916 C.ar    1  UNL1       -0.0611
     16 C          -6.3954   -1.3923    0.7796 C.ar    1  UNL1       -0.0521
     17 N          -3.6523   -0.3302   -0.1510 N.ar    1  UNL1       -0.2359
     18 N          -0.0352   -0.0564   -0.3753 N.ar    1  UNL1       -0.3066
     19 C           0.3190    1.2656    0.1213 C.3     1  UNL1        0.0423
     20 C           1.4027    1.0663    1.1883 C.3     1  UNL1        0.0338
     21 N           2.5718    0.4000    0.5702 N.am    1  UNL1       -0.2860
     22 C           3.8730    0.8744    0.8843 C.2     1  UNL1        0.2472
     23 O           3.9445    1.8705    1.6940 O.2     1  UNL1       -0.2700
     24 C           5.1230    0.3443    0.3781 C.ar    1  UNL1        0.0371
     25 C           5.5294   -0.9628    0.6710 C.ar    1  UNL1       -0.0469
     26 C           6.7092   -1.4786    0.2080 C.ar    1  UNL1       -0.0257
     27 C           7.5227   -0.6935   -0.5672 C.ar    1  UNL1        0.1234
     28 F           8.6803   -1.2195   -1.0148 F       1  UNL1       -0.2055
     29 C           7.1213    0.6136   -0.8620 C.ar    1  UNL1       -0.0257
     30 C           5.9449    1.1290   -0.4010 C.ar    1  UNL1       -0.0469
     31 H           2.7156    0.7375   -1.8510 H       1  UNL1        0.0252
     32 H           2.5002   -0.9850   -2.4737 H       1  UNL1        0.0252
     33 H           4.0370   -0.4624   -1.7629 H       1  UNL1        0.0252
     34 H           2.8511   -1.6329    0.0616 H       1  UNL1        0.0579
     35 H          -1.8127    2.2193   -1.3081 H       1  UNL1        0.0716
     36 H          -6.8395    1.8545    0.1547 H       1  UNL1        0.0624
     37 H          -9.1457    1.2545    0.8919 H       1  UNL1        0.0618
     38 H          -9.7020   -1.0528    1.5609 H       1  UNL1        0.0618
     39 H          -7.9248   -2.7374    1.4819 H       1  UNL1        0.0618
     40 H          -5.6044   -2.1458    0.7465 H       1  UNL1        0.0624
     41 H          -0.5101    1.7738    0.6499 H       1  UNL1        0.0508
     42 H           0.7133    1.9200   -0.6564 H       1  UNL1        0.0508
     43 H           1.0103    0.3909    1.9840 H       1  UNL1        0.0482
     44 H           1.7149    2.0539    1.5756 H       1  UNL1        0.0482
     45 H           4.8427   -1.5338    1.2994 H       1  UNL1        0.0626
     46 H           6.9822   -2.4961    0.4589 H       1  UNL1        0.0646
     47 H           7.8078    1.1684   -1.4720 H       1  UNL1        0.0646
     48 H           5.6421    2.1287   -0.6277 H       1  UNL1        0.0626
@<TRIPOS>BOND
     1     1     2    1
     2     2     3    1
     3     3     4   ar
     4     4     5   ar
     5     5     6   ar
     6     6     7    1
     7     7     8   ar
     8     8     9   ar
     9     9    10   ar
    10    10    11    1
    11    11    12   ar
    12    12    13   ar
    13    13    14   ar
    14    14    15   ar
    15    15    16   ar
    16    10    17   ar
    17     6    18   ar
    18    18    19    1
    19    19    20    1
    20    20    21    1
    21    21    22   am
    22    22    23    2
    23    22    24    1
    24    24    25   ar
    25    25    26   ar
    26    26    27   ar
    27    27    28    1
    28    27    29   ar
    29    29    30   ar
    30    21     2    1
    31    30    24   ar
    32    18     3   ar
    33    17     7   ar
    34    16    11   ar
    35     1    31    1
    36     1    32    1
    37     1    33    1
    38     2    34    1
    39     8    35    1
    40    12    36    1
    41    13    37    1
    42    14    38    1
    43    15    39    1
    44    16    40    1
    45    19    41    1
    46    19    42    1
    47    20    43    1
    48    20    44    1
    49    25    45    1
    50    26    46    1
    51    29    47    1
    52    30    48    1
