
     RDKit          3D

 34 37  0  0  0  0  0  0  0  0999 V2000
    2.6338    1.5947   -1.0673 C   0  0  0  0  0  0  0  0  0  0  0  0
    2.8272    0.2715   -0.4209 C   0  0  0  0  0  0  0  0  0  0  0  0
    4.0812   -0.2999   -0.3823 C   0  0  0  0  0  0  0  0  0  0  0  0
    5.1078    0.3756   -0.9437 F   0  0  0  0  0  0  0  0  0  0  0  0
    4.3493   -1.5088    0.1893 C   0  0  0  0  0  0  0  0  0  0  0  0
    3.3183   -2.1756    0.7477 N   0  0  0  0  0  0  0  0  0  0  0  0
    2.0693   -1.6372    0.7260 C   0  0  0  0  0  0  0  0  0  0  0  0
    1.7696   -0.4258    0.1580 C   0  0  0  0  0  0  0  0  0  0  0  0
    0.4711    0.1980    0.1559 C   0  0  0  0  0  0  0  0  0  0  0  0
    0.2170    1.4704   -0.2232 N   0  0  0  0  0  0  0  0  0  0  0  0
   -1.0637    1.7762   -0.1314 C   0  0  0  0  0  0  0  0  0  0  0  0
   -1.7407    2.9399   -0.4097 C   0  0  0  0  0  0  0  0  0  0  0  0
   -3.1075    2.9817   -0.2182 C   0  0  0  0  0  0  0  0  0  0  0  0
   -3.7432    1.8447    0.2485 C   0  0  0  0  0  0  0  0  0  0  0  0
   -5.0763    1.7971    0.4642 F   0  0  0  0  0  0  0  0  0  0  0  0
   -2.9909    0.7107    0.5059 C   0  0  0  0  0  0  0  0  0  0  0  0
   -1.6689    0.6654    0.3222 N   0  0  0  0  0  0  0  0  0  0  0  0
   -0.7277   -0.3195    0.5019 C   0  0  0  0  0  0  0  0  0  0  0  0
   -1.1665   -1.6695    0.9252 C   0  0  0  0  0  0  0  0  0  0  0  0
   -2.3228   -2.1872    0.0094 C   0  0  0  0  0  0  0  0  0  0  0  0
   -1.0070   -2.8676    0.0554 C   0  0  0  0  0  0  0  0  0  0  0  0
    2.4114    2.3494   -0.3051 H   0  0  0  0  0  0  0  0  0  0  0  0
    1.8832    1.5539   -1.8992 H   0  0  0  0  0  0  0  0  0  0  0  0
    3.5932    1.8354   -1.6116 H   0  0  0  0  0  0  0  0  0  0  0  0
    5.3680   -1.8941    0.1789 H   0  0  0  0  0  0  0  0  0  0  0  0
    1.3270   -2.2364    1.2257 H   0  0  0  0  0  0  0  0  0  0  0  0
   -1.2638    3.8347   -0.7730 H   0  0  0  0  0  0  0  0  0  0  0  0
   -3.6773    3.8774   -0.4251 H   0  0  0  0  0  0  0  0  0  0  0  0
   -3.5350   -0.1663    0.8743 H   0  0  0  0  0  0  0  0  0  0  0  0
   -1.3131   -1.7806    2.0145 H   0  0  0  0  0  0  0  0  0  0  0  0
   -2.5228   -1.6329   -0.9221 H   0  0  0  0  0  0  0  0  0  0  0  0
   -3.1858   -2.5762    0.5896 H   0  0  0  0  0  0  0  0  0  0  0  0
   -0.9924   -3.8348    0.6355 H   0  0  0  0  0  0  0  0  0  0  0  0
   -0.3220   -2.8642   -0.7951 H   0  0  0  0  0  0  0  0  0  0  0  0
  1  2  1  0
  2  3  2  0
  3  4  1  0
  3  5  1  0
  5  6  2  0
  6  7  1  0
  7  8  2  0
  8  9  1  0
  9 10  1  0
 10 11  2  0
 11 12  1  0
 12 13  2  0
 13 14  1  0
 14 15  1  0
 14 16  2  0
 16 17  1  0
 17 18  1  0
 18 19  1  0
 19 20  1  0
 20 21  1  0
  8  2  1  0
 18  9  2  0
 21 19  1  0
 17 11  1  0
  1 22  1  0
  1 23  1  0
  1 24  1  0
  5 25  1  0
  7 26  1  0
 12 27  1  0
 13 28  1  0
 16 29  1  0
 19 30  1  0
 20 31  1  0
 20 32  1  0
 21 33  1  0
 21 34  1  0
M  END
$$$$
