@<TRIPOS>MOLECULE
*****
 34 37 0 0 0
SMALL
GASTEIGER

@<TRIPOS>ATOM
      1 C           2.6338    1.5947   -1.0673 C.3     1  UNL1       -0.0363
      2 C           2.8272    0.2715   -0.4209 C.ar    1  UNL1       -0.0031
      3 C           4.0812   -0.2999   -0.3823 C.ar    1  UNL1        0.1449
      4 F           5.1078    0.3756   -0.9437 F       1  UNL1       -0.2036
      5 C           4.3493   -1.5088    0.1893 C.ar    1  UNL1        0.0630
      6 N           3.3183   -2.1756    0.7477 N.ar    1  UNL1       -0.2597
      7 C           2.0693   -1.6372    0.7260 C.ar    1  UNL1        0.0372
      8 C           1.7696   -0.4258    0.1580 C.ar    1  UNL1        0.0258
      9 C           0.4711    0.1980    0.1559 C.ar    1  UNL1        0.0950
     10 N           0.2170    1.4704   -0.2232 N.ar    1  UNL1       -0.2275
     11 C          -1.0637    1.7762   -0.1314 C.ar    1  UNL1        0.1386
     12 C          -1.7407    2.9399   -0.4097 C.ar    1  UNL1       -0.0161
     13 C          -3.1075    2.9817   -0.2182 C.ar    1  UNL1       -0.0215
     14 C          -3.7432    1.8447    0.2485 C.ar    1  UNL1        0.1399
     15 F          -5.0763    1.7971    0.4642 F       1  UNL1       -0.2040
     16 C          -2.9909    0.7107    0.5059 C.ar    1  UNL1        0.0467
     17 N          -1.6689    0.6654    0.3222 N.ar    1  UNL1       -0.3000
     18 C          -0.7277   -0.3195    0.5019 C.ar    1  UNL1        0.0542
     19 C          -1.1665   -1.6695    0.9252 C.3     1  UNL1        0.0019
     20 C          -2.3228   -2.1872    0.0094 C.3     1  UNL1       -0.0442
     21 C          -1.0070   -2.8676    0.0554 C.3     1  UNL1       -0.0442
     22 H           2.4114    2.3494   -0.3051 H       1  UNL1        0.0279
     23 H           1.8832    1.5539   -1.8992 H       1  UNL1        0.0279
     24 H           3.5932    1.8354   -1.6116 H       1  UNL1        0.0279
     25 H           5.3680   -1.8941    0.1789 H       1  UNL1        0.0859
     26 H           1.3270   -2.2364    1.2257 H       1  UNL1        0.0836
     27 H          -1.2638    3.8347   -0.7730 H       1  UNL1        0.0655
     28 H          -3.6773    3.8774   -0.4251 H       1  UNL1        0.0648
     29 H          -3.5350   -0.1663    0.8743 H       1  UNL1        0.0842
     30 H          -1.3131   -1.7806    2.0145 H       1  UNL1        0.0364
     31 H          -2.5228   -1.6329   -0.9221 H       1  UNL1        0.0272
     32 H          -3.1858   -2.5762    0.5896 H       1  UNL1        0.0272
     33 H          -0.9924   -3.8348    0.6355 H       1  UNL1        0.0272
     34 H          -0.3220   -2.8642   -0.7951 H       1  UNL1        0.0272
@<TRIPOS>BOND
     1     1     2    1
     2     2     3   ar
     3     3     4    1
     4     3     5   ar
     5     5     6   ar
     6     6     7   ar
     7     7     8   ar
     8     8     9    1
     9     9    10   ar
    10    10    11   ar
    11    11    12   ar
    12    12    13   ar
    13    13    14   ar
    14    14    15    1
    15    14    16   ar
    16    16    17   ar
    17    17    18   ar
    18    18    19    1
    19    19    20    1
    20    20    21    1
    21     8     2   ar
    22    18     9   ar
    23    21    19    1
    24    17    11   ar
    25     1    22    1
    26     1    23    1
    27     1    24    1
    28     5    25    1
    29     7    26    1
    30    12    27    1
    31    13    28    1
    32    16    29    1
    33    19    30    1
    34    20    31    1
    35    20    32    1
    36    21    33    1
    37    21    34    1
