@<TRIPOS>MOLECULE
*****
 62 65 0 0 0
SMALL
GASTEIGER

@<TRIPOS>ATOM
      1 C           7.7486    0.0172    1.6274 C.3     1  UNL1       -0.0253
      2 C           7.7863    0.1058    0.1192 C.3     1  UNL1        0.1068
      3 C           8.0443   -1.3017   -0.4166 C.3     1  UNL1       -0.0253
      4 C           8.9122    0.9681   -0.3738 C.3     1  UNL1       -0.0253
      5 O           6.5721    0.6228   -0.3881 O.3     1  UNL1       -0.4447
      6 C           5.3459   -0.0025   -0.1709 C.2     1  UNL1        0.4010
      7 O           5.3433   -1.0503    0.4964 O.2     1  UNL1       -0.2265
      8 N           4.1263    0.5047   -0.6746 N.am    1  UNL1       -0.2767
      9 C           2.8372   -0.1567   -0.4421 C.3     1  UNL1        0.0435
     10 C           2.2779   -0.4735   -1.8332 C.3     1  UNL1       -0.0170
     11 C           0.8061   -0.5746   -1.6003 C.3     1  UNL1        0.0196
     12 N           0.5660    0.2579   -0.4137 N.am    1  UNL1       -0.2656
     13 C          -0.7369    0.4755    0.1060 C.2     1  UNL1        0.4032
     14 O          -0.8350    1.2108    1.1328 O.2     1  UNL1       -0.2262
     15 O          -1.8753   -0.0764   -0.4598 O.3     1  UNL1       -0.4464
     16 C          -3.1209    0.1816    0.1030 C.3     1  UNL1        0.1103
     17 C          -4.0562    0.9104   -0.8379 C.3     1  UNL1       -0.0023
     18 C          -4.6475    0.0251   -1.8941 C.3     1  UNL1       -0.0439
     19 C          -5.4016   -1.1349   -1.2407 C.3     1  UNL1       -0.0394
     20 C          -4.3803   -1.9201   -0.4662 C.3     1  UNL1       -0.0439
     21 C          -3.8188   -1.0621    0.6273 C.3     1  UNL1       -0.0023
     22 C          -4.9638   -0.5813    1.5034 C.3     1  UNL1       -0.0328
     23 C          -5.8970    0.2716    0.6911 C.3     1  UNL1        0.0477
     24 C          -6.9107    0.8319    1.6020 C.2     1  UNL1        0.2167
     25 N          -6.4997    1.6505    2.6743 N.am    1  UNL1       -0.3289
     26 O          -8.1200    0.5927    1.4375 O.2     1  UNL1       -0.2754
     27 C          -6.5097   -0.6135   -0.3733 C.3     1  UNL1       -0.0362
     28 C          -5.2017    1.4336    0.0175 C.3     1  UNL1       -0.0328
     29 C           1.8146    0.7830    0.0954 C.3     1  UNL1        0.0364
     30 H           7.3966   -0.9994    1.8932 H       1  UNL1        0.0268
     31 H           8.7733    0.1234    2.0359 H       1  UNL1        0.0268
     32 H           7.0381    0.7295    2.0836 H       1  UNL1        0.0268
     33 H           7.4864   -1.3719   -1.3828 H       1  UNL1        0.0268
     34 H           7.6258   -2.0765    0.2503 H       1  UNL1        0.0268
     35 H           9.1102   -1.4687   -0.6562 H       1  UNL1        0.0268
     36 H           8.5740    1.4867   -1.2932 H       1  UNL1        0.0268
     37 H           9.8265    0.3622   -0.6381 H       1  UNL1        0.0268
     38 H           9.1553    1.6935    0.4518 H       1  UNL1        0.0268
     39 H           4.1443    1.3747   -1.2272 H       1  UNL1        0.1523
     40 H           2.9320   -1.0518    0.1693 H       1  UNL1        0.0515
     41 H           2.4641    0.4289   -2.4580 H       1  UNL1        0.0299
     42 H           2.7335   -1.3826   -2.2584 H       1  UNL1        0.0299
     43 H           0.2111   -0.1046   -2.4287 H       1  UNL1        0.0466
     44 H           0.5153   -1.6293   -1.4183 H       1  UNL1        0.0466
     45 H          -2.9989    0.8421    0.9859 H       1  UNL1        0.0740
     46 H          -3.5372    1.7480   -1.3260 H       1  UNL1        0.0337
     47 H          -3.8980   -0.3928   -2.5895 H       1  UNL1        0.0272
     48 H          -5.3770    0.6350   -2.4595 H       1  UNL1        0.0272
     49 H          -5.8509   -1.7508   -2.0466 H       1  UNL1        0.0301
     50 H          -3.5359   -2.1339   -1.1826 H       1  UNL1        0.0272
     51 H          -4.7803   -2.8352   -0.0104 H       1  UNL1        0.0272
     52 H          -3.1020   -1.6502    1.2388 H       1  UNL1        0.0337
     53 H          -4.6232   -0.1278    2.4319 H       1  UNL1        0.0279
     54 H          -5.5523   -1.4935    1.7954 H       1  UNL1        0.0279
     55 H          -5.5807    1.5071    3.1859 H       1  UNL1        0.1449
     56 H          -7.0638    2.4515    3.0414 H       1  UNL1        0.1449
     57 H          -7.2000   -0.0234   -1.0071 H       1  UNL1        0.0278
     58 H          -6.9979   -1.4871    0.1116 H       1  UNL1        0.0278
     59 H          -5.9496    1.8605   -0.7112 H       1  UNL1        0.0279
     60 H          -4.8906    2.2113    0.7197 H       1  UNL1        0.0279
     61 H           1.9677    1.8388   -0.2617 H       1  UNL1        0.0484
     62 H           1.7782    0.7906    1.2054 H       1  UNL1        0.0484
@<TRIPOS>BOND
     1     1     2    1
     2     2     3    1
     3     2     4    1
     4     2     5    1
     5     5     6    1
     6     6     7    2
     7     6     8   am
     8     8     9    1
     9     9    10    1
    10    10    11    1
    11    11    12    1
    12    12    13   am
    13    13    14    2
    14    13    15    1
    15    15    16    1
    16    16    17    1
    17    17    18    1
    18    18    19    1
    19    19    20    1
    20    20    21    1
    21    21    22    1
    22    22    23    1
    23    23    24    1
    24    24    25   am
    25    24    26    2
    26    23    27    1
    27    23    28    1
    28    12    29    1
    29    29     9    1
    30    21    16    1
    31    28    17    1
    32    27    19    1
    33     1    30    1
    34     1    31    1
    35     1    32    1
    36     3    33    1
    37     3    34    1
    38     3    35    1
    39     4    36    1
    40     4    37    1
    41     4    38    1
    42     8    39    1
    43     9    40    1
    44    10    41    1
    45    10    42    1
    46    11    43    1
    47    11    44    1
    48    16    45    1
    49    17    46    1
    50    18    47    1
    51    18    48    1
    52    19    49    1
    53    20    50    1
    54    20    51    1
    55    21    52    1
    56    22    53    1
    57    22    54    1
    58    25    55    1
    59    25    56    1
    60    27    57    1
    61    27    58    1
    62    28    59    1
    63    28    60    1
    64    29    61    1
    65    29    62    1
