
     RDKit          3D

 62 65  0  0  0  0  0  0  0  0999 V2000
    7.7486    0.0172    1.6274 C   0  0  0  0  0  0  0  0  0  0  0  0
    7.7863    0.1058    0.1192 C   0  0  0  0  0  0  0  0  0  0  0  0
    8.0443   -1.3017   -0.4166 C   0  0  0  0  0  0  0  0  0  0  0  0
    8.9122    0.9681   -0.3738 C   0  0  0  0  0  0  0  0  0  0  0  0
    6.5721    0.6228   -0.3881 O   0  0  0  0  0  0  0  0  0  0  0  0
    5.3459   -0.0025   -0.1709 C   0  0  0  0  0  0  0  0  0  0  0  0
    5.3433   -1.0503    0.4964 O   0  0  0  0  0  0  0  0  0  0  0  0
    4.1263    0.5047   -0.6746 N   0  0  0  0  0  0  0  0  0  0  0  0
    2.8372   -0.1567   -0.4421 C   0  0  2  0  0  0  0  0  0  0  0  0
    2.2779   -0.4735   -1.8332 C   0  0  0  0  0  0  0  0  0  0  0  0
    0.8061   -0.5746   -1.6003 C   0  0  0  0  0  0  0  0  0  0  0  0
    0.5660    0.2579   -0.4137 N   0  0  0  0  0  0  0  0  0  0  0  0
   -0.7369    0.4755    0.1060 C   0  0  0  0  0  0  0  0  0  0  0  0
   -0.8350    1.2108    1.1328 O   0  0  0  0  0  0  0  0  0  0  0  0
   -1.8753   -0.0764   -0.4598 O   0  0  0  0  0  0  0  0  0  0  0  0
   -3.1209    0.1816    0.1030 C   0  0  1  0  0  0  0  0  0  0  0  0
   -4.0562    0.9104   -0.8379 C   0  0  0  0  0  0  0  0  0  0  0  0
   -4.6475    0.0251   -1.8941 C   0  0  0  0  0  0  0  0  0  0  0  0
   -5.4016   -1.1349   -1.2407 C   0  0  0  0  0  0  0  0  0  0  0  0
   -4.3803   -1.9201   -0.4662 C   0  0  0  0  0  0  0  0  0  0  0  0
   -3.8188   -1.0621    0.6273 C   0  0  0  0  0  0  0  0  0  0  0  0
   -4.9638   -0.5813    1.5034 C   0  0  0  0  0  0  0  0  0  0  0  0
   -5.8970    0.2716    0.6911 C   0  0  2  0  0  0  0  0  0  0  0  0
   -6.9107    0.8319    1.6020 C   0  0  0  0  0  0  0  0  0  0  0  0
   -6.4997    1.6505    2.6743 N   0  0  0  0  0  0  0  0  0  0  0  0
   -8.1200    0.5927    1.4375 O   0  0  0  0  0  0  0  0  0  0  0  0
   -6.5097   -0.6135   -0.3733 C   0  0  0  0  0  0  0  0  0  0  0  0
   -5.2017    1.4336    0.0175 C   0  0  0  0  0  0  0  0  0  0  0  0
    1.8146    0.7830    0.0954 C   0  0  0  0  0  0  0  0  0  0  0  0
    7.3966   -0.9994    1.8932 H   0  0  0  0  0  0  0  0  0  0  0  0
    8.7733    0.1234    2.0359 H   0  0  0  0  0  0  0  0  0  0  0  0
    7.0381    0.7295    2.0836 H   0  0  0  0  0  0  0  0  0  0  0  0
    7.4864   -1.3719   -1.3828 H   0  0  0  0  0  0  0  0  0  0  0  0
    7.6258   -2.0765    0.2503 H   0  0  0  0  0  0  0  0  0  0  0  0
    9.1102   -1.4687   -0.6562 H   0  0  0  0  0  0  0  0  0  0  0  0
    8.5740    1.4867   -1.2932 H   0  0  0  0  0  0  0  0  0  0  0  0
    9.8265    0.3622   -0.6381 H   0  0  0  0  0  0  0  0  0  0  0  0
    9.1553    1.6935    0.4518 H   0  0  0  0  0  0  0  0  0  0  0  0
    4.1443    1.3747   -1.2272 H   0  0  0  0  0  0  0  0  0  0  0  0
    2.9320   -1.0518    0.1693 H   0  0  0  0  0  0  0  0  0  0  0  0
    2.4641    0.4289   -2.4580 H   0  0  0  0  0  0  0  0  0  0  0  0
    2.7335   -1.3826   -2.2584 H   0  0  0  0  0  0  0  0  0  0  0  0
    0.2111   -0.1046   -2.4287 H   0  0  0  0  0  0  0  0  0  0  0  0
    0.5153   -1.6293   -1.4183 H   0  0  0  0  0  0  0  0  0  0  0  0
   -2.9989    0.8421    0.9859 H   0  0  0  0  0  0  0  0  0  0  0  0
   -3.5372    1.7480   -1.3260 H   0  0  0  0  0  0  0  0  0  0  0  0
   -3.8980   -0.3928   -2.5895 H   0  0  0  0  0  0  0  0  0  0  0  0
   -5.3770    0.6350   -2.4595 H   0  0  0  0  0  0  0  0  0  0  0  0
   -5.8509   -1.7508   -2.0466 H   0  0  0  0  0  0  0  0  0  0  0  0
   -3.5359   -2.1339   -1.1826 H   0  0  0  0  0  0  0  0  0  0  0  0
   -4.7803   -2.8352   -0.0104 H   0  0  0  0  0  0  0  0  0  0  0  0
   -3.1020   -1.6502    1.2388 H   0  0  0  0  0  0  0  0  0  0  0  0
   -4.6232   -0.1278    2.4319 H   0  0  0  0  0  0  0  0  0  0  0  0
   -5.5523   -1.4935    1.7954 H   0  0  0  0  0  0  0  0  0  0  0  0
   -5.5807    1.5071    3.1859 H   0  0  0  0  0  0  0  0  0  0  0  0
   -7.0638    2.4515    3.0414 H   0  0  0  0  0  0  0  0  0  0  0  0
   -7.2000   -0.0234   -1.0071 H   0  0  0  0  0  0  0  0  0  0  0  0
   -6.9979   -1.4871    0.1116 H   0  0  0  0  0  0  0  0  0  0  0  0
   -5.9496    1.8605   -0.7112 H   0  0  0  0  0  0  0  0  0  0  0  0
   -4.8906    2.2113    0.7197 H   0  0  0  0  0  0  0  0  0  0  0  0
    1.9677    1.8388   -0.2617 H   0  0  0  0  0  0  0  0  0  0  0  0
    1.7782    0.7906    1.2054 H   0  0  0  0  0  0  0  0  0  0  0  0
  1  2  1  0
  2  3  1  0
  2  4  1  0
  2  5  1  0
  5  6  1  0
  6  7  2  0
  6  8  1  0
  8  9  1  0
  9 10  1  0
 10 11  1  0
 11 12  1  0
 12 13  1  0
 13 14  2  0
 13 15  1  0
 15 16  1  0
 16 17  1  0
 17 18  1  0
 18 19  1  0
 19 20  1  0
 20 21  1  0
 21 22  1  0
 22 23  1  0
 23 24  1  1
 24 25  1  0
 24 26  2  0
 23 27  1  0
 23 28  1  0
 12 29  1  0
 29  9  1  0
 21 16  1  0
 28 17  1  0
 27 19  1  0
  1 30  1  0
  1 31  1  0
  1 32  1  0
  3 33  1  0
  3 34  1  0
  3 35  1  0
  4 36  1  0
  4 37  1  0
  4 38  1  0
  8 39  1  0
  9 40  1  1
 10 41  1  0
 10 42  1  0
 11 43  1  0
 11 44  1  0
 16 45  1  1
 17 46  1  0
 18 47  1  0
 18 48  1  0
 19 49  1  0
 20 50  1  0
 20 51  1  0
 21 52  1  0
 22 53  1  0
 22 54  1  0
 25 55  1  0
 25 56  1  0
 27 57  1  0
 27 58  1  0
 28 59  1  0
 28 60  1  0
 29 61  1  0
 29 62  1  0
M  END
$$$$
