@<TRIPOS>MOLECULE
*****
 35 38 0 0 0
SMALL
GASTEIGER

@<TRIPOS>ATOM
      1 C          -4.3952    3.3498   -1.0881 C.3     1  UNL1        0.0790
      2 O          -4.4682    2.0043   -0.6669 O.3     1  UNL1       -0.4915
      3 C          -3.3085    1.2705   -0.4314 C.ar    1  UNL1        0.1615
      4 C          -2.0540    1.8449   -0.6054 C.ar    1  UNL1       -0.0157
      5 C          -0.9135    1.1153   -0.3713 C.ar    1  UNL1       -0.0483
      6 C          -0.9644   -0.1943    0.0388 C.ar    1  UNL1        0.0126
      7 C           0.3148   -0.9178    0.2716 C.ar    1  UNL1        0.1325
      8 N           1.4603   -0.8377    0.2519 N.ar    1  UNL1       -0.1553
      9 N           2.3956   -1.6838    0.5214 N.ar    1  UNL1       -0.1849
     10 C           3.7479   -1.7367    0.5444 C.ar    1  UNL1        0.1924
     11 C           4.6971   -0.6463    0.2072 C.ar    1  UNL1        0.0581
     12 C           4.8464    0.0569   -0.9153 C.ar    1  UNL1       -0.0439
     13 C           5.7865    1.0119   -0.9982 C.ar    1  UNL1       -0.0540
     14 C           6.5691    1.2015    0.1505 C.ar    1  UNL1       -0.0236
     15 S           5.8851   -0.0150    1.2599 S.2     1  UNL1       -0.0935
     16 N           4.0957   -2.9660    0.9313 N.ar    1  UNL1       -0.1259
     17 N           3.0126   -3.7293    1.1653 N.ar    1  UNL1       -0.1199
     18 C           1.9353   -2.9070    0.9026 C.ar    1  UNL1        0.2186
     19 S           0.1671   -2.7272    0.8379 S.2     1  UNL1       -0.0262
     20 C          -2.1991   -0.7590    0.2098 C.ar    1  UNL1       -0.0066
     21 C          -3.3612   -0.0339   -0.0230 C.ar    1  UNL1        0.1621
     22 O          -4.5767   -0.6431    0.1621 O.3     1  UNL1       -0.4914
     23 C          -4.7094   -1.9937    0.5845 C.3     1  UNL1        0.0790
     24 H          -3.8368    3.3835   -2.0683 H       1  UNL1        0.0660
     25 H          -3.8651    3.9401   -0.3236 H       1  UNL1        0.0660
     26 H          -5.4155    3.7516   -1.2079 H       1  UNL1        0.0660
     27 H          -2.0443    2.8745   -0.9279 H       1  UNL1        0.0655
     28 H           0.0632    1.5519   -0.5035 H       1  UNL1        0.0625
     29 H           4.1701   -0.1649   -1.7914 H       1  UNL1        0.0630
     30 H           5.9674    1.6419   -1.9117 H       1  UNL1        0.0623
     31 H           7.4067    1.9225    0.3378 H       1  UNL1        0.0693
     32 H          -2.2397   -1.7962    0.5347 H       1  UNL1        0.0662
     33 H          -5.7092   -2.3913    0.4198 H       1  UNL1        0.0660
     34 H          -4.4504   -2.1284    1.6535 H       1  UNL1        0.0660
     35 H          -4.0099   -2.6496   -0.0092 H       1  UNL1        0.0660
@<TRIPOS>BOND
     1     1     2    1
     2     2     3    1
     3     3     4   ar
     4     4     5   ar
     5     5     6   ar
     6     6     7    1
     7     7     8   ar
     8     8     9   ar
     9     9    10   ar
    10    10    11    1
    11    11    12   ar
    12    12    13   ar
    13    13    14   ar
    14    14    15   ar
    15    10    16   ar
    16    16    17   ar
    17    17    18   ar
    18    18    19   ar
    19     6    20   ar
    20    20    21   ar
    21    21    22    1
    22    22    23    1
    23    21     3   ar
    24    19     7   ar
    25    18     9   ar
    26    15    11   ar
    27     1    24    1
    28     1    25    1
    29     1    26    1
    30     4    27    1
    31     5    28    1
    32    12    29    1
    33    13    30    1
    34    14    31    1
    35    20    32    1
    36    23    33    1
    37    23    34    1
    38    23    35    1
