
     RDKit          3D

 35 38  0  0  0  0  0  0  0  0999 V2000
   -4.3952    3.3498   -1.0881 C   0  0  0  0  0  0  0  0  0  0  0  0
   -4.4682    2.0043   -0.6669 O   0  0  0  0  0  0  0  0  0  0  0  0
   -3.3085    1.2705   -0.4314 C   0  0  0  0  0  0  0  0  0  0  0  0
   -2.0540    1.8449   -0.6054 C   0  0  0  0  0  0  0  0  0  0  0  0
   -0.9135    1.1153   -0.3713 C   0  0  0  0  0  0  0  0  0  0  0  0
   -0.9644   -0.1943    0.0388 C   0  0  0  0  0  0  0  0  0  0  0  0
    0.3148   -0.9178    0.2716 C   0  0  0  0  0  0  0  0  0  0  0  0
    1.4603   -0.8377    0.2519 N   0  0  0  0  0  0  0  0  0  0  0  0
    2.3956   -1.6838    0.5214 N   0  0  0  0  0  0  0  0  0  0  0  0
    3.7479   -1.7367    0.5444 C   0  0  0  0  0  0  0  0  0  0  0  0
    4.6971   -0.6463    0.2072 C   0  0  0  0  0  0  0  0  0  0  0  0
    4.8464    0.0569   -0.9153 C   0  0  0  0  0  0  0  0  0  0  0  0
    5.7865    1.0119   -0.9982 C   0  0  0  0  0  0  0  0  0  0  0  0
    6.5691    1.2015    0.1505 C   0  0  0  0  0  0  0  0  0  0  0  0
    5.8851   -0.0150    1.2599 S   0  0  0  0  0  0  0  0  0  0  0  0
    4.0957   -2.9660    0.9313 N   0  0  0  0  0  0  0  0  0  0  0  0
    3.0126   -3.7293    1.1653 N   0  0  0  0  0  0  0  0  0  0  0  0
    1.9353   -2.9070    0.9026 C   0  0  0  0  0  0  0  0  0  0  0  0
    0.1671   -2.7272    0.8379 S   0  0  0  0  0  0  0  0  0  0  0  0
   -2.1991   -0.7590    0.2098 C   0  0  0  0  0  0  0  0  0  0  0  0
   -3.3612   -0.0339   -0.0230 C   0  0  0  0  0  0  0  0  0  0  0  0
   -4.5767   -0.6431    0.1621 O   0  0  0  0  0  0  0  0  0  0  0  0
   -4.7094   -1.9937    0.5845 C   0  0  0  0  0  0  0  0  0  0  0  0
   -3.8368    3.3835   -2.0683 H   0  0  0  0  0  0  0  0  0  0  0  0
   -3.8651    3.9401   -0.3236 H   0  0  0  0  0  0  0  0  0  0  0  0
   -5.4155    3.7516   -1.2079 H   0  0  0  0  0  0  0  0  0  0  0  0
   -2.0443    2.8745   -0.9279 H   0  0  0  0  0  0  0  0  0  0  0  0
    0.0632    1.5519   -0.5035 H   0  0  0  0  0  0  0  0  0  0  0  0
    4.1701   -0.1649   -1.7914 H   0  0  0  0  0  0  0  0  0  0  0  0
    5.9674    1.6419   -1.9117 H   0  0  0  0  0  0  0  0  0  0  0  0
    7.4067    1.9225    0.3378 H   0  0  0  0  0  0  0  0  0  0  0  0
   -2.2397   -1.7962    0.5347 H   0  0  0  0  0  0  0  0  0  0  0  0
   -5.7092   -2.3913    0.4198 H   0  0  0  0  0  0  0  0  0  0  0  0
   -4.4504   -2.1284    1.6535 H   0  0  0  0  0  0  0  0  0  0  0  0
   -4.0099   -2.6496   -0.0092 H   0  0  0  0  0  0  0  0  0  0  0  0
  1  2  1  0
  2  3  1  0
  3  4  2  0
  4  5  1  0
  5  6  2  0
  6  7  1  0
  7  8  2  0
  8  9  1  0
  9 10  1  0
 10 11  1  0
 11 12  2  0
 12 13  1  0
 13 14  2  0
 14 15  1  0
 10 16  2  0
 16 17  1  0
 17 18  2  0
 18 19  1  0
  6 20  1  0
 20 21  2  0
 21 22  1  0
 22 23  1  0
 21  3  1  0
 19  7  1  0
 18  9  1  0
 15 11  1  0
  1 24  1  0
  1 25  1  0
  1 26  1  0
  4 27  1  0
  5 28  1  0
 12 29  1  0
 13 30  1  0
 14 31  1  0
 20 32  1  0
 23 33  1  0
 23 34  1  0
 23 35  1  0
M  END
$$$$
