@<TRIPOS>MOLECULE
*****
 69 71 0 0 0
SMALL
GASTEIGER

@<TRIPOS>ATOM
      1 C          -7.9731    2.0308   -0.5272 C.3     1  UNL1       -0.0130
      2 N          -7.8548    0.6661   -0.9986 N.3     1  UNL1       -0.3069
      3 C          -8.3459   -0.2499    0.0098 C.3     1  UNL1       -0.0130
      4 C          -6.4586    0.3722   -1.3378 C.3     1  UNL1        0.0141
      5 C          -5.7002    0.3734   -0.0384 C.3     1  UNL1        0.0275
      6 N          -4.2905    0.0959   -0.1896 N.am    1  UNL1       -0.2987
      7 C          -3.4782    1.2725   -0.3904 C.3     1  UNL1        0.0305
      8 C          -2.2164    1.0176   -1.1298 C.3     1  UNL1        0.0308
      9 N          -1.2588    0.1772   -0.3462 N.am    1  UNL1       -0.2955
     10 C           0.0692    0.3488   -0.7099 C.2     1  UNL1        0.2490
     11 O           0.3537    1.2430   -1.5955 O.2     1  UNL1       -0.2699
     12 C           1.2349   -0.4058   -0.1696 C.ar    1  UNL1        0.0657
     13 C           1.1414   -1.6623    0.2586 C.ar    1  UNL1       -0.0370
     14 C           2.2565   -2.3394    0.6706 C.ar    1  UNL1       -0.0023
     15 C           2.4655   -3.6997    1.1871 C.3     1  UNL1       -0.0064
     16 C           2.7389   -4.7049    0.1061 C.3     1  UNL1       -0.0556
     17 C           1.2769   -4.1579    1.9995 C.3     1  UNL1       -0.0556
     18 C           3.6646   -3.7144    2.1465 C.3     1  UNL1       -0.0556
     19 S           3.5712   -1.1122    0.4387 S.2     1  UNL1       -0.0771
     20 C           2.4631    0.2169   -0.2015 C.ar    1  UNL1        0.0853
     21 N           2.9259    1.4673   -0.5680 N.am    1  UNL1       -0.2629
     22 C           4.3134    1.7842   -0.4871 C.2     1  UNL1        0.3085
     23 O           5.0928    0.8992   -0.0770 O.2     1  UNL1       -0.2521
     24 N           4.8187    3.0622   -0.8565 N.am    1  UNL1       -0.2678
     25 C           6.2116    3.3086   -0.7514 C.ar    1  UNL1        0.0546
     26 C           7.0773    3.0583   -1.8051 C.ar    1  UNL1       -0.0389
     27 C           8.4247    3.3230   -1.6265 C.ar    1  UNL1       -0.0585
     28 C           8.9204    3.8238   -0.4393 C.ar    1  UNL1       -0.0419
     29 C           8.0568    4.0694    0.6004 C.ar    1  UNL1        0.0610
     30 CL          8.6424    4.7024    2.1183 Cl      1  UNL1       -0.0820
     31 C           6.7183    3.8080    0.4274 C.ar    1  UNL1        0.0804
     32 CL          5.6045    4.1149    1.7403 Cl      1  UNL1       -0.0801
     33 C          -1.6471   -0.6486    0.7209 C.3     1  UNL1        0.0233
     34 C          -2.5220   -1.7889    0.1830 C.3     1  UNL1        0.0399
     35 C          -3.8896   -1.2398   -0.1259 C.2     1  UNL1        0.2171
     36 O          -4.7451   -2.1281   -0.3469 O.2     1  UNL1       -0.2755
     37 H          -7.8046    1.9974    0.5818 H       1  UNL1        0.0391
     38 H          -8.9813    2.4521   -0.6640 H       1  UNL1        0.0391
     39 H          -7.2336    2.6865   -0.9877 H       1  UNL1        0.0391
     40 H          -9.4626   -0.1551    0.0197 H       1  UNL1        0.0391
     41 H          -8.0582   -1.2849   -0.1671 H       1  UNL1        0.0391
     42 H          -8.0271    0.1339    1.0180 H       1  UNL1        0.0391
     43 H          -6.3608   -0.5386   -1.9248 H       1  UNL1        0.0442
     44 H          -6.1148    1.2184   -1.9670 H       1  UNL1        0.0442
     45 H          -6.0983   -0.4145    0.6486 H       1  UNL1        0.0477
     46 H          -5.8793    1.3342    0.4668 H       1  UNL1        0.0477
     47 H          -4.0698    2.0527   -0.9234 H       1  UNL1        0.0480
     48 H          -3.2388    1.6850    0.6166 H       1  UNL1        0.0480
     49 H          -1.7065    1.9650   -1.3165 H       1  UNL1        0.0480
     50 H          -2.4139    0.5194   -2.1104 H       1  UNL1        0.0480
     51 H           0.1912   -2.2786    0.2736 H       1  UNL1        0.0634
     52 H           1.8382   -5.2980   -0.1736 H       1  UNL1        0.0238
     53 H           3.0972   -4.2419   -0.8360 H       1  UNL1        0.0238
     54 H           3.5050   -5.4497    0.4163 H       1  UNL1        0.0238
     55 H           0.9991   -3.3762    2.7496 H       1  UNL1        0.0238
     56 H           1.5628   -5.0676    2.5617 H       1  UNL1        0.0238
     57 H           0.4055   -4.4287    1.3652 H       1  UNL1        0.0238
     58 H           4.5728   -4.0313    1.6304 H       1  UNL1        0.0238
     59 H           3.4818   -4.3778    3.0109 H       1  UNL1        0.0238
     60 H           3.8455   -2.6578    2.4925 H       1  UNL1        0.0238
     61 H           2.2820    2.2057   -0.9050 H       1  UNL1        0.1569
     62 H           4.1744    3.8043   -1.1987 H       1  UNL1        0.1564
     63 H           6.6870    2.6645   -2.7388 H       1  UNL1        0.0637
     64 H           9.0946    3.1204   -2.4669 H       1  UNL1        0.0619
     65 H           9.9990    4.0121   -0.3622 H       1  UNL1        0.0633
     66 H          -0.9392   -0.9289    1.4843 H       1  UNL1        0.0469
     67 H          -2.4288   -0.0154    1.3162 H       1  UNL1        0.0469
     68 H          -2.0197   -2.1335   -0.7502 H       1  UNL1        0.0374
     69 H          -2.5614   -2.5573    0.9509 H       1  UNL1        0.0374
@<TRIPOS>BOND
     1     1     2    1
     2     2     3    1
     3     2     4    1
     4     4     5    1
     5     5     6    1
     6     6     7    1
     7     7     8    1
     8     8     9    1
     9     9    10   am
    10    10    11    2
    11    10    12    1
    12    12    13   ar
    13    13    14   ar
    14    14    15    1
    15    15    16    1
    16    15    17    1
    17    15    18    1
    18    14    19   ar
    19    19    20   ar
    20    20    21    1
    21    21    22   am
    22    22    23    2
    23    22    24   am
    24    24    25    1
    25    25    26   ar
    26    26    27   ar
    27    27    28   ar
    28    28    29   ar
    29    29    30    1
    30    29    31   ar
    31    31    32    1
    32     9    33    1
    33    33    34    1
    34    34    35    1
    35    35    36    2
    36    35     6   am
    37    20    12   ar
    38    31    25   ar
    39     1    37    1
    40     1    38    1
    41     1    39    1
    42     3    40    1
    43     3    41    1
    44     3    42    1
    45     4    43    1
    46     4    44    1
    47     5    45    1
    48     5    46    1
    49     7    47    1
    50     7    48    1
    51     8    49    1
    52     8    50    1
    53    13    51    1
    54    16    52    1
    55    16    53    1
    56    16    54    1
    57    17    55    1
    58    17    56    1
    59    17    57    1
    60    18    58    1
    61    18    59    1
    62    18    60    1
    63    21    61    1
    64    24    62    1
    65    26    63    1
    66    27    64    1
    67    28    65    1
    68    33    66    1
    69    33    67    1
    70    34    68    1
    71    34    69    1
