
     RDKit          3D

 69 71  0  0  0  0  0  0  0  0999 V2000
   -7.9731    2.0308   -0.5272 C   0  0  0  0  0  0  0  0  0  0  0  0
   -7.8548    0.6661   -0.9986 N   0  0  0  0  0  0  0  0  0  0  0  0
   -8.3459   -0.2499    0.0098 C   0  0  0  0  0  0  0  0  0  0  0  0
   -6.4586    0.3722   -1.3378 C   0  0  0  0  0  0  0  0  0  0  0  0
   -5.7002    0.3734   -0.0384 C   0  0  0  0  0  0  0  0  0  0  0  0
   -4.2905    0.0959   -0.1896 N   0  0  0  0  0  0  0  0  0  0  0  0
   -3.4782    1.2725   -0.3904 C   0  0  0  0  0  0  0  0  0  0  0  0
   -2.2164    1.0176   -1.1298 C   0  0  0  0  0  0  0  0  0  0  0  0
   -1.2588    0.1772   -0.3462 N   0  0  0  0  0  0  0  0  0  0  0  0
    0.0692    0.3488   -0.7099 C   0  0  0  0  0  0  0  0  0  0  0  0
    0.3537    1.2430   -1.5955 O   0  0  0  0  0  0  0  0  0  0  0  0
    1.2349   -0.4058   -0.1696 C   0  0  0  0  0  0  0  0  0  0  0  0
    1.1414   -1.6623    0.2586 C   0  0  0  0  0  0  0  0  0  0  0  0
    2.2565   -2.3394    0.6706 C   0  0  0  0  0  0  0  0  0  0  0  0
    2.4655   -3.6997    1.1871 C   0  0  0  0  0  0  0  0  0  0  0  0
    2.7389   -4.7049    0.1061 C   0  0  0  0  0  0  0  0  0  0  0  0
    1.2769   -4.1579    1.9995 C   0  0  0  0  0  0  0  0  0  0  0  0
    3.6646   -3.7144    2.1465 C   0  0  0  0  0  0  0  0  0  0  0  0
    3.5712   -1.1122    0.4387 S   0  0  0  0  0  0  0  0  0  0  0  0
    2.4631    0.2169   -0.2015 C   0  0  0  0  0  0  0  0  0  0  0  0
    2.9259    1.4673   -0.5680 N   0  0  0  0  0  0  0  0  0  0  0  0
    4.3134    1.7842   -0.4871 C   0  0  0  0  0  0  0  0  0  0  0  0
    5.0928    0.8992   -0.0770 O   0  0  0  0  0  0  0  0  0  0  0  0
    4.8187    3.0622   -0.8565 N   0  0  0  0  0  0  0  0  0  0  0  0
    6.2116    3.3086   -0.7514 C   0  0  0  0  0  0  0  0  0  0  0  0
    7.0773    3.0583   -1.8051 C   0  0  0  0  0  0  0  0  0  0  0  0
    8.4247    3.3230   -1.6265 C   0  0  0  0  0  0  0  0  0  0  0  0
    8.9204    3.8238   -0.4393 C   0  0  0  0  0  0  0  0  0  0  0  0
    8.0568    4.0694    0.6004 C   0  0  0  0  0  0  0  0  0  0  0  0
    8.6424    4.7024    2.1183 Cl  0  0  0  0  0  0  0  0  0  0  0  0
    6.7183    3.8080    0.4274 C   0  0  0  0  0  0  0  0  0  0  0  0
    5.6045    4.1149    1.7403 Cl  0  0  0  0  0  0  0  0  0  0  0  0
   -1.6471   -0.6486    0.7209 C   0  0  0  0  0  0  0  0  0  0  0  0
   -2.5220   -1.7889    0.1830 C   0  0  0  0  0  0  0  0  0  0  0  0
   -3.8896   -1.2398   -0.1259 C   0  0  0  0  0  0  0  0  0  0  0  0
   -4.7451   -2.1281   -0.3469 O   0  0  0  0  0  0  0  0  0  0  0  0
   -7.8046    1.9974    0.5818 H   0  0  0  0  0  0  0  0  0  0  0  0
   -8.9813    2.4521   -0.6640 H   0  0  0  0  0  0  0  0  0  0  0  0
   -7.2336    2.6865   -0.9877 H   0  0  0  0  0  0  0  0  0  0  0  0
   -9.4626   -0.1551    0.0197 H   0  0  0  0  0  0  0  0  0  0  0  0
   -8.0582   -1.2849   -0.1671 H   0  0  0  0  0  0  0  0  0  0  0  0
   -8.0271    0.1339    1.0180 H   0  0  0  0  0  0  0  0  0  0  0  0
   -6.3608   -0.5386   -1.9248 H   0  0  0  0  0  0  0  0  0  0  0  0
   -6.1148    1.2184   -1.9670 H   0  0  0  0  0  0  0  0  0  0  0  0
   -6.0983   -0.4145    0.6486 H   0  0  0  0  0  0  0  0  0  0  0  0
   -5.8793    1.3342    0.4668 H   0  0  0  0  0  0  0  0  0  0  0  0
   -4.0698    2.0527   -0.9234 H   0  0  0  0  0  0  0  0  0  0  0  0
   -3.2388    1.6850    0.6166 H   0  0  0  0  0  0  0  0  0  0  0  0
   -1.7065    1.9650   -1.3165 H   0  0  0  0  0  0  0  0  0  0  0  0
   -2.4139    0.5194   -2.1104 H   0  0  0  0  0  0  0  0  0  0  0  0
    0.1912   -2.2786    0.2736 H   0  0  0  0  0  0  0  0  0  0  0  0
    1.8382   -5.2980   -0.1736 H   0  0  0  0  0  0  0  0  0  0  0  0
    3.0972   -4.2419   -0.8360 H   0  0  0  0  0  0  0  0  0  0  0  0
    3.5050   -5.4497    0.4163 H   0  0  0  0  0  0  0  0  0  0  0  0
    0.9991   -3.3762    2.7496 H   0  0  0  0  0  0  0  0  0  0  0  0
    1.5628   -5.0676    2.5617 H   0  0  0  0  0  0  0  0  0  0  0  0
    0.4055   -4.4287    1.3652 H   0  0  0  0  0  0  0  0  0  0  0  0
    4.5728   -4.0313    1.6304 H   0  0  0  0  0  0  0  0  0  0  0  0
    3.4818   -4.3778    3.0109 H   0  0  0  0  0  0  0  0  0  0  0  0
    3.8455   -2.6578    2.4925 H   0  0  0  0  0  0  0  0  0  0  0  0
    2.2820    2.2057   -0.9050 H   0  0  0  0  0  0  0  0  0  0  0  0
    4.1744    3.8043   -1.1987 H   0  0  0  0  0  0  0  0  0  0  0  0
    6.6870    2.6645   -2.7388 H   0  0  0  0  0  0  0  0  0  0  0  0
    9.0946    3.1204   -2.4669 H   0  0  0  0  0  0  0  0  0  0  0  0
    9.9990    4.0121   -0.3622 H   0  0  0  0  0  0  0  0  0  0  0  0
   -0.9392   -0.9289    1.4843 H   0  0  0  0  0  0  0  0  0  0  0  0
   -2.4288   -0.0154    1.3162 H   0  0  0  0  0  0  0  0  0  0  0  0
   -2.0197   -2.1335   -0.7502 H   0  0  0  0  0  0  0  0  0  0  0  0
   -2.5614   -2.5573    0.9509 H   0  0  0  0  0  0  0  0  0  0  0  0
  1  2  1  0
  2  3  1  0
  2  4  1  0
  4  5  1  0
  5  6  1  0
  6  7  1  0
  7  8  1  0
  8  9  1  0
  9 10  1  0
 10 11  2  0
 10 12  1  0
 12 13  1  0
 13 14  2  0
 14 15  1  0
 15 16  1  0
 15 17  1  0
 15 18  1  0
 14 19  1  0
 19 20  1  0
 20 21  1  0
 21 22  1  0
 22 23  2  0
 22 24  1  0
 24 25  1  0
 25 26  2  0
 26 27  1  0
 27 28  2  0
 28 29  1  0
 29 30  1  0
 29 31  2  0
 31 32  1  0
  9 33  1  0
 33 34  1  0
 34 35  1  0
 35 36  2  0
 35  6  1  0
 20 12  2  0
 31 25  1  0
  1 37  1  0
  1 38  1  0
  1 39  1  0
  3 40  1  0
  3 41  1  0
  3 42  1  0
  4 43  1  0
  4 44  1  0
  5 45  1  0
  5 46  1  0
  7 47  1  0
  7 48  1  0
  8 49  1  0
  8 50  1  0
 13 51  1  0
 16 52  1  0
 16 53  1  0
 16 54  1  0
 17 55  1  0
 17 56  1  0
 17 57  1  0
 18 58  1  0
 18 59  1  0
 18 60  1  0
 21 61  1  0
 24 62  1  0
 26 63  1  0
 27 64  1  0
 28 65  1  0
 33 66  1  0
 33 67  1  0
 34 68  1  0
 34 69  1  0
M  END
$$$$
