@<TRIPOS>MOLECULE
*****
 34 36 0 0 0
SMALL
GASTEIGER

@<TRIPOS>ATOM
      1 C          -0.3849    0.8784   -1.0368 C.3     1  UNL1       -0.0216
      2 C          -0.3299   -0.3105   -0.1525 C.ar    1  UNL1        0.0512
      3 C          -1.4029   -0.8857    0.4920 C.ar    1  UNL1        0.0230
      4 C          -2.8150   -0.4637    0.4525 C.ar    1  UNL1       -0.0147
      5 C          -3.1859    0.8598    0.5783 C.ar    1  UNL1       -0.0539
      6 C          -4.5147    1.2568    0.5411 C.ar    1  UNL1       -0.0612
      7 C          -5.5014    0.3178    0.3750 C.ar    1  UNL1       -0.0617
      8 C          -5.1638   -1.0187    0.2457 C.ar    1  UNL1       -0.0612
      9 C          -3.8380   -1.3799    0.2867 C.ar    1  UNL1       -0.0539
     10 C          -0.8684   -1.9511    1.1887 C.ar    1  UNL1        0.0578
     11 N           0.4532   -2.0063    0.9699 N.ar    1  UNL1       -0.1726
     12 N           0.7503   -1.0159    0.1657 N.ar    1  UNL1       -0.2184
     13 C           2.0764   -0.7454   -0.2993 C.ar    1  UNL1        0.1549
     14 C           2.8517    0.2688    0.2340 C.ar    1  UNL1       -0.0034
     15 C           4.1257    0.5203   -0.2205 C.ar    1  UNL1        0.0638
     16 C           4.9203    1.5970    0.3610 C.2     1  UNL1        0.3370
     17 O           6.0788    1.7806   -0.0947 O.2     1  UNL1       -0.2451
     18 O           4.3815    2.3663    1.3769 O.3     1  UNL1       -0.4771
     19 C           4.6101   -0.2820   -1.2379 C.ar    1  UNL1       -0.0295
     20 C           3.8298   -1.2894   -1.7621 C.ar    1  UNL1        0.0307
     21 N           2.5814   -1.5061   -1.2887 N.ar    1  UNL1       -0.2361
     22 H          -1.3075    0.9445   -1.6210 H       1  UNL1        0.0293
     23 H          -0.2082    1.8133   -0.4563 H       1  UNL1        0.0293
     24 H           0.4567    0.7949   -1.7591 H       1  UNL1        0.0293
     25 H          -2.4296    1.6184    0.7100 H       1  UNL1        0.0624
     26 H          -4.8219    2.2875    0.6380 H       1  UNL1        0.0618
     27 H          -6.5588    0.6198    0.3438 H       1  UNL1        0.0618
     28 H          -5.9804   -1.7169    0.1170 H       1  UNL1        0.0618
     29 H          -3.5992   -2.4359    0.1828 H       1  UNL1        0.0624
     30 H          -1.4376   -2.6315    1.8132 H       1  UNL1        0.0854
     31 H           2.4079    0.8674    1.0378 H       1  UNL1        0.0663
     32 H           5.0192    2.8823    1.9954 H       1  UNL1        0.2954
     33 H           5.6008   -0.1093   -1.6129 H       1  UNL1        0.0641
     34 H           4.2042   -1.9258   -2.5637 H       1  UNL1        0.0830
@<TRIPOS>BOND
     1     1     2    1
     2     2     3   ar
     3     3     4    1
     4     4     5   ar
     5     5     6   ar
     6     6     7   ar
     7     7     8   ar
     8     8     9   ar
     9     3    10   ar
    10    10    11   ar
    11    11    12   ar
    12    12    13    1
    13    13    14   ar
    14    14    15   ar
    15    15    16    1
    16    16    17    2
    17    16    18    1
    18    15    19   ar
    19    19    20   ar
    20    20    21   ar
    21    12     2   ar
    22    21    13   ar
    23     9     4   ar
    24     1    22    1
    25     1    23    1
    26     1    24    1
    27     5    25    1
    28     6    26    1
    29     7    27    1
    30     8    28    1
    31     9    29    1
    32    10    30    1
    33    14    31    1
    34    18    32    1
    35    19    33    1
    36    20    34    1
