
     RDKit          3D

 34 36  0  0  0  0  0  0  0  0999 V2000
   -0.3849    0.8784   -1.0368 C   0  0  0  0  0  0  0  0  0  0  0  0
   -0.3299   -0.3105   -0.1525 C   0  0  0  0  0  0  0  0  0  0  0  0
   -1.4029   -0.8857    0.4920 C   0  0  0  0  0  0  0  0  0  0  0  0
   -2.8150   -0.4637    0.4525 C   0  0  0  0  0  0  0  0  0  0  0  0
   -3.1859    0.8598    0.5783 C   0  0  0  0  0  0  0  0  0  0  0  0
   -4.5147    1.2568    0.5411 C   0  0  0  0  0  0  0  0  0  0  0  0
   -5.5014    0.3178    0.3750 C   0  0  0  0  0  0  0  0  0  0  0  0
   -5.1638   -1.0187    0.2457 C   0  0  0  0  0  0  0  0  0  0  0  0
   -3.8380   -1.3799    0.2867 C   0  0  0  0  0  0  0  0  0  0  0  0
   -0.8684   -1.9511    1.1887 C   0  0  0  0  0  0  0  0  0  0  0  0
    0.4532   -2.0063    0.9699 N   0  0  0  0  0  0  0  0  0  0  0  0
    0.7503   -1.0159    0.1657 N   0  0  0  0  0  0  0  0  0  0  0  0
    2.0764   -0.7454   -0.2993 C   0  0  0  0  0  0  0  0  0  0  0  0
    2.8517    0.2688    0.2340 C   0  0  0  0  0  0  0  0  0  0  0  0
    4.1257    0.5203   -0.2205 C   0  0  0  0  0  0  0  0  0  0  0  0
    4.9203    1.5970    0.3610 C   0  0  0  0  0  0  0  0  0  0  0  0
    6.0788    1.7806   -0.0947 O   0  0  0  0  0  0  0  0  0  0  0  0
    4.3815    2.3663    1.3769 O   0  0  0  0  0  0  0  0  0  0  0  0
    4.6101   -0.2820   -1.2379 C   0  0  0  0  0  0  0  0  0  0  0  0
    3.8298   -1.2894   -1.7621 C   0  0  0  0  0  0  0  0  0  0  0  0
    2.5814   -1.5061   -1.2887 N   0  0  0  0  0  0  0  0  0  0  0  0
   -1.3075    0.9445   -1.6210 H   0  0  0  0  0  0  0  0  0  0  0  0
   -0.2082    1.8133   -0.4563 H   0  0  0  0  0  0  0  0  0  0  0  0
    0.4567    0.7949   -1.7591 H   0  0  0  0  0  0  0  0  0  0  0  0
   -2.4296    1.6184    0.7100 H   0  0  0  0  0  0  0  0  0  0  0  0
   -4.8219    2.2875    0.6380 H   0  0  0  0  0  0  0  0  0  0  0  0
   -6.5588    0.6198    0.3438 H   0  0  0  0  0  0  0  0  0  0  0  0
   -5.9804   -1.7169    0.1170 H   0  0  0  0  0  0  0  0  0  0  0  0
   -3.5992   -2.4359    0.1828 H   0  0  0  0  0  0  0  0  0  0  0  0
   -1.4376   -2.6315    1.8132 H   0  0  0  0  0  0  0  0  0  0  0  0
    2.4079    0.8674    1.0378 H   0  0  0  0  0  0  0  0  0  0  0  0
    5.0192    2.8823    1.9954 H   0  0  0  0  0  0  0  0  0  0  0  0
    5.6008   -0.1093   -1.6129 H   0  0  0  0  0  0  0  0  0  0  0  0
    4.2042   -1.9258   -2.5637 H   0  0  0  0  0  0  0  0  0  0  0  0
  1  2  1  0
  2  3  2  0
  3  4  1  0
  4  5  2  0
  5  6  1  0
  6  7  2  0
  7  8  1  0
  8  9  2  0
  3 10  1  0
 10 11  2  0
 11 12  1  0
 12 13  1  0
 13 14  2  0
 14 15  1  0
 15 16  1  0
 16 17  2  0
 16 18  1  0
 15 19  2  0
 19 20  1  0
 20 21  2  0
 12  2  1  0
 21 13  1  0
  9  4  1  0
  1 22  1  0
  1 23  1  0
  1 24  1  0
  5 25  1  0
  6 26  1  0
  7 27  1  0
  8 28  1  0
  9 29  1  0
 10 30  1  0
 14 31  1  0
 18 32  1  0
 19 33  1  0
 20 34  1  0
M  END
$$$$
