@<TRIPOS>MOLECULE
*****
 47 50 0 0 0
SMALL
GASTEIGER

@<TRIPOS>ATOM
      1 C           2.7017   -2.9799   -0.4195 C.3     1  UNL1       -0.0584
      2 C           2.3024   -1.7547   -1.1963 C.3     1  UNL1       -0.0197
      3 C           0.9409   -1.9881   -1.7733 C.3     1  UNL1       -0.0584
      4 C           3.2626   -1.6511   -2.3839 C.3     1  UNL1       -0.0584
      5 C           2.4542   -0.4898   -0.4233 C.3     1  UNL1        0.0296
      6 N           1.6603   -0.4352    0.7960 N.ar    1  UNL1       -0.3279
      7 C           2.0892   -0.8450    1.9940 C.ar    1  UNL1        0.0971
      8 N           1.0745   -0.6219    2.8504 N.ar    1  UNL1       -0.2351
      9 C           0.0315   -0.0849    2.2067 C.ar    1  UNL1        0.0982
     10 C          -1.2366    0.2895    2.8023 C.ar    1  UNL1        0.0027
     11 C          -2.0666   -0.7119    3.3193 C.ar    1  UNL1       -0.0498
     12 C          -3.2768   -0.4215    3.8964 C.ar    1  UNL1       -0.0258
     13 C          -3.7323    0.8708    3.9944 C.ar    1  UNL1        0.1234
     14 F          -4.9238    1.1672    4.5622 F       1  UNL1       -0.2055
     15 C          -2.9187    1.8722    3.4861 C.ar    1  UNL1       -0.0258
     16 C          -1.7031    1.5764    2.9068 C.ar    1  UNL1       -0.0498
     17 C           0.4093    0.0383    0.8644 C.ar    1  UNL1        0.0966
     18 C          -0.4169    0.5809   -0.2119 C.ar    1  UNL1        0.1103
     19 C          -1.6574    0.0685   -0.4460 C.ar    1  UNL1       -0.0290
     20 C          -2.4819    0.5261   -1.4562 C.ar    1  UNL1       -0.0153
     21 C          -1.9570    1.5659   -2.2392 C.ar    1  UNL1        0.1555
     22 N          -2.4905    2.2192   -3.2832 N.ar    1  UNL1       -0.2333
     23 C          -1.5876    3.1410   -3.7070 C.ar    1  UNL1        0.0659
     24 C          -0.4974    3.0302   -2.8964 C.ar    1  UNL1        0.1618
     25 C           0.6947    3.7996   -2.9980 C.1     1  UNL1        0.1208
     26 N           1.6671    4.4495   -3.0736 N.1     1  UNL1       -0.1892
     27 N          -0.7379    2.0546   -1.9933 N.ar    1  UNL1       -0.2023
     28 N           0.0177    1.5740   -1.0009 N.ar    1  UNL1       -0.1623
     29 H           1.8276   -3.4719    0.0719 H       1  UNL1        0.0235
     30 H           3.5165   -2.7719    0.3128 H       1  UNL1        0.0235
     31 H           3.1031   -3.7191   -1.1461 H       1  UNL1        0.0235
     32 H           0.5464   -1.1193   -2.3490 H       1  UNL1        0.0235
     33 H           0.2331   -2.3511   -0.9988 H       1  UNL1        0.0235
     34 H           1.0450   -2.8070   -2.5366 H       1  UNL1        0.0235
     35 H           2.9151   -2.2792   -3.2270 H       1  UNL1        0.0235
     36 H           3.3514   -0.5914   -2.7411 H       1  UNL1        0.0235
     37 H           4.2783   -2.0080   -2.1113 H       1  UNL1        0.0235
     38 H           2.1266    0.3503   -1.0941 H       1  UNL1        0.0497
     39 H           3.5288   -0.3389   -0.2264 H       1  UNL1        0.0497
     40 H           3.0740   -1.2790    2.2386 H       1  UNL1        0.1029
     41 H          -1.7086   -1.7299    3.2426 H       1  UNL1        0.0625
     42 H          -3.9200   -1.2191    4.2987 H       1  UNL1        0.0646
     43 H          -3.2925    2.8957    3.5712 H       1  UNL1        0.0646
     44 H          -1.0710    2.3766    2.5100 H       1  UNL1        0.0625
     45 H          -1.9893   -0.7303    0.2007 H       1  UNL1        0.0641
     46 H          -3.4644    0.1227   -1.6430 H       1  UNL1        0.0655
     47 H          -1.7218    3.8311   -4.5379 H       1  UNL1        0.0859
@<TRIPOS>BOND
     1     1     2    1
     2     2     3    1
     3     2     4    1
     4     2     5    1
     5     5     6    1
     6     6     7   ar
     7     7     8   ar
     8     8     9   ar
     9     9    10    1
    10    10    11   ar
    11    11    12   ar
    12    12    13   ar
    13    13    14    1
    14    13    15   ar
    15    15    16   ar
    16     9    17   ar
    17    17    18    1
    18    18    19   ar
    19    19    20   ar
    20    20    21   ar
    21    21    22   ar
    22    22    23   ar
    23    23    24   ar
    24    24    25    1
    25    25    26    3
    26    24    27   ar
    27    27    28   ar
    28    17     6   ar
    29    28    18   ar
    30    16    10   ar
    31    27    21   ar
    32     1    29    1
    33     1    30    1
    34     1    31    1
    35     3    32    1
    36     3    33    1
    37     3    34    1
    38     4    35    1
    39     4    36    1
    40     4    37    1
    41     5    38    1
    42     5    39    1
    43     7    40    1
    44    11    41    1
    45    12    42    1
    46    15    43    1
    47    16    44    1
    48    19    45    1
    49    20    46    1
    50    23    47    1
