
     RDKit          3D

 37 39  0  0  0  0  0  0  0  0999 V2000
   -5.7525    2.6136   -0.2923 O   0  0  0  0  0  0  0  0  0  0  0  0
   -4.7324    2.1884    0.2949 C   0  0  0  0  0  0  0  0  0  0  0  0
   -4.2615    2.9013    1.3807 O   0  0  0  0  0  0  0  0  0  0  0  0
   -4.1052    0.9738   -0.1982 C   0  0  0  0  0  0  0  0  0  0  0  0
   -4.6136    0.2981   -1.2863 C   0  0  0  0  0  0  0  0  0  0  0  0
   -4.0474   -0.8554   -1.7823 C   0  0  0  0  0  0  0  0  0  0  0  0
   -2.9211   -1.3916   -1.1936 C   0  0  0  0  0  0  0  0  0  0  0  0
   -2.4033   -0.7233   -0.1032 C   0  0  0  0  0  0  0  0  0  0  0  0
   -0.9783   -1.3756    0.6650 S   0  0  0  0  0  6  0  0  0  0  0  0
   -1.0231   -2.8698    0.5105 O   0  0  0  0  0  0  0  0  0  0  0  0
   -1.0237   -1.0333    2.1397 O   0  0  0  0  0  0  0  0  0  0  0  0
    0.4743   -0.7451   -0.0249 N   0  0  0  0  0  0  0  0  0  0  0  0
    0.5845    0.6474    0.1168 C   0  0  0  0  0  0  0  0  0  0  0  0
    1.9139    1.2621   -0.0479 C   0  0  0  0  0  0  0  0  0  0  0  0
    3.0690    0.3821    0.1328 C   0  0  0  0  0  0  0  0  0  0  0  0
    4.3276    0.9336    0.0953 C   0  0  0  0  0  0  0  0  0  0  0  0
    5.4693    0.1416    0.2618 C   0  0  0  0  0  0  0  0  0  0  0  0
    7.3891    1.0009    0.2019 I   0  0  0  0  0  0  0  0  0  0  0  0
    5.2836   -1.2104    0.4645 C   0  0  0  0  0  0  0  0  0  0  0  0
    3.9943   -1.7452    0.4981 C   0  0  0  0  0  0  0  0  0  0  0  0
    2.8798   -0.9448    0.3314 C   0  0  0  0  0  0  0  0  0  0  0  0
    1.5565   -1.5537    0.3754 C   0  0  0  0  0  0  0  0  0  0  0  0
   -2.9712    0.4330    0.3938 C   0  0  0  0  0  0  0  0  0  0  0  0
   -4.7253    3.7242    1.7550 H   0  0  0  0  0  0  0  0  0  0  0  0
   -5.5001    0.7150   -1.7542 H   0  0  0  0  0  0  0  0  0  0  0  0
   -4.4534   -1.3889   -2.6458 H   0  0  0  0  0  0  0  0  0  0  0  0
   -2.4796   -2.3009   -1.5892 H   0  0  0  0  0  0  0  0  0  0  0  0
   -0.1622    1.1489   -0.5681 H   0  0  0  0  0  0  0  0  0  0  0  0
    0.2054    0.9196    1.1481 H   0  0  0  0  0  0  0  0  0  0  0  0
    1.9783    1.6721   -1.0990 H   0  0  0  0  0  0  0  0  0  0  0  0
    2.0724    2.1728    0.5977 H   0  0  0  0  0  0  0  0  0  0  0  0
    4.4929    1.9898   -0.0622 H   0  0  0  0  0  0  0  0  0  0  0  0
    6.1707   -1.8150    0.5921 H   0  0  0  0  0  0  0  0  0  0  0  0
    3.9055   -2.7937    0.6574 H   0  0  0  0  0  0  0  0  0  0  0  0
    1.5822   -2.4616   -0.2917 H   0  0  0  0  0  0  0  0  0  0  0  0
    1.3748   -1.8770    1.4422 H   0  0  0  0  0  0  0  0  0  0  0  0
   -2.5702    0.9673    1.2532 H   0  0  0  0  0  0  0  0  0  0  0  0
  1  2  2  0
  2  3  1  0
  2  4  1  0
  4  5  2  0
  5  6  1  0
  6  7  2  0
  7  8  1  0
  8  9  1  0
  9 10  2  0
  9 11  2  0
  9 12  1  0
 12 13  1  0
 13 14  1  0
 14 15  1  0
 15 16  2  0
 16 17  1  0
 17 18  1  0
 17 19  2  0
 19 20  1  0
 20 21  2  0
 21 22  1  0
  8 23  2  0
 23  4  1  0
 22 12  1  0
 21 15  1  0
  3 24  1  0
  5 25  1  0
  6 26  1  0
  7 27  1  0
 13 28  1  0
 13 29  1  0
 14 30  1  0
 14 31  1  0
 16 32  1  0
 19 33  1  0
 20 34  1  0
 22 35  1  0
 22 36  1  0
 23 37  1  0
M  END
$$$$
