@<TRIPOS>MOLECULE
*****
 37 39 0 0 0
SMALL
GASTEIGER

@<TRIPOS>ATOM
      1 O          -5.7525    2.6136   -0.2923 O.2     1  UNL1       -0.2451
      2 C          -4.7324    2.1884    0.2949 C.2     1  UNL1        0.3369
      3 O          -4.2615    2.9013    1.3807 O.3     1  UNL1       -0.4771
      4 C          -4.1052    0.9738   -0.1982 C.ar    1  UNL1        0.0607
      5 C          -4.6136    0.2981   -1.2863 C.ar    1  UNL1       -0.0477
      6 C          -4.0474   -0.8554   -1.7823 C.ar    1  UNL1       -0.0591
      7 C          -2.9211   -1.3916   -1.1936 C.ar    1  UNL1       -0.0353
      8 C          -2.4033   -0.7233   -0.1032 C.ar    1  UNL1        0.1063
      9 S          -0.9783   -1.3756    0.6650 S.O2    1  UNL1        0.0612
     10 O          -1.0231   -2.8698    0.5105 O.2     1  UNL1       -0.1528
     11 O          -1.0237   -1.0333    2.1397 O.2     1  UNL1       -0.1528
     12 N           0.4743   -0.7451   -0.0249 N.3     1  UNL1       -0.1720
     13 C           0.5845    0.6474    0.1168 C.3     1  UNL1        0.0248
     14 C           1.9139    1.2621   -0.0479 C.3     1  UNL1       -0.0129
     15 C           3.0690    0.3821    0.1328 C.ar    1  UNL1       -0.0407
     16 C           4.3276    0.9336    0.0953 C.ar    1  UNL1       -0.0451
     17 C           5.4693    0.1416    0.2618 C.ar    1  UNL1        0.0137
     18 I           7.3891    1.0009    0.2019 I       1  UNL1       -0.0438
     19 C           5.2836   -1.2104    0.4645 C.ar    1  UNL1       -0.0483
     20 C           3.9943   -1.7452    0.4981 C.ar    1  UNL1       -0.0561
     21 C           2.8798   -0.9448    0.3314 C.ar    1  UNL1       -0.0284
     22 C           1.5565   -1.5537    0.3754 C.3     1  UNL1        0.0458
     23 C          -2.9712    0.4330    0.3938 C.ar    1  UNL1       -0.0214
     24 H          -4.7253    3.7242    1.7550 H       1  UNL1        0.2954
     25 H          -5.5001    0.7150   -1.7542 H       1  UNL1        0.0626
     26 H          -4.4534   -1.3889   -2.6458 H       1  UNL1        0.0618
     27 H          -2.4796   -2.3009   -1.5892 H       1  UNL1        0.0637
     28 H          -0.1622    1.1489   -0.5681 H       1  UNL1        0.0447
     29 H           0.2054    0.9196    1.1481 H       1  UNL1        0.0447
     30 H           1.9783    1.6721   -1.0990 H       1  UNL1        0.0326
     31 H           2.0724    2.1728    0.5977 H       1  UNL1        0.0326
     32 H           4.4929    1.9898   -0.0622 H       1  UNL1        0.0631
     33 H           6.1707   -1.8150    0.5921 H       1  UNL1        0.0628
     34 H           3.9055   -2.7937    0.6574 H       1  UNL1        0.0621
     35 H           1.5822   -2.4616   -0.2917 H       1  UNL1        0.0493
     36 H           1.3748   -1.8770    1.4422 H       1  UNL1        0.0493
     37 H          -2.5702    0.9673    1.2532 H       1  UNL1        0.0645
@<TRIPOS>BOND
     1     1     2    2
     2     2     3    1
     3     2     4    1
     4     4     5   ar
     5     5     6   ar
     6     6     7   ar
     7     7     8   ar
     8     8     9    1
     9     9    10    2
    10     9    11    2
    11     9    12    1
    12    12    13    1
    13    13    14    1
    14    14    15    1
    15    15    16   ar
    16    16    17   ar
    17    17    18    1
    18    17    19   ar
    19    19    20   ar
    20    20    21   ar
    21    21    22    1
    22     8    23   ar
    23    23     4   ar
    24    22    12    1
    25    21    15   ar
    26     3    24    1
    27     5    25    1
    28     6    26    1
    29     7    27    1
    30    13    28    1
    31    13    29    1
    32    14    30    1
    33    14    31    1
    34    16    32    1
    35    19    33    1
    36    20    34    1
    37    22    35    1
    38    22    36    1
    39    23    37    1
