@<TRIPOS>MOLECULE
*****
 37 40 0 0 0
SMALL
GASTEIGER

@<TRIPOS>ATOM
      1 C           5.9972   -1.1712   -2.7554 C.3     1  UNL1        0.0302
      2 N           5.2903   -0.5747   -1.6080 N.ar    1  UNL1       -0.2738
      3 C           3.9620   -0.5592   -1.4055 C.ar    1  UNL1        0.0343
      4 C           3.6630    0.0822   -0.2308 C.ar    1  UNL1        0.0357
      5 C           2.3871    0.3527    0.4157 C.ar    1  UNL1        0.0505
      6 C           2.1450    1.0070    1.6054 C.ar    1  UNL1       -0.0271
      7 C           0.7871    1.0458    1.8521 C.ar    1  UNL1        0.0185
      8 C           0.0052    1.5725    2.8851 C.ar    1  UNL1        0.0389
      9 N          -1.3154    1.4193    2.7855 N.ar    1  UNL1       -0.2395
     10 C          -1.9344    0.7972    1.7660 C.ar    1  UNL1        0.1249
     11 N          -3.3567    0.6942    1.7964 N.pl3   1  UNL1       -0.2982
     12 C          -4.1073    0.1437    0.7295 C.ar    1  UNL1        0.0509
     13 C          -4.8853   -0.9828    0.8496 C.ar    1  UNL1       -0.0391
     14 C          -5.6200   -1.4932   -0.2081 C.ar    1  UNL1       -0.0599
     15 C          -5.5724   -0.8513   -1.4282 C.ar    1  UNL1       -0.0603
     16 C          -4.8049    0.2771   -1.5826 C.ar    1  UNL1       -0.0416
     17 C          -4.0746    0.7706   -0.5006 C.ar    1  UNL1        0.0621
     18 CL         -3.1365    2.2225   -0.7734 Cl      1  UNL1       -0.0816
     19 C          -1.1758    0.2856    0.7631 C.ar    1  UNL1        0.0023
     20 C           0.1972    0.4002    0.7870 C.ar    1  UNL1        0.0516
     21 N           1.1770   -0.0079   -0.0634 N.ar    1  UNL1       -0.3539
     22 C           4.8858    0.4583    0.2729 C.ar    1  UNL1        0.0585
     23 N           5.8340    0.0466   -0.5804 N.ar    1  UNL1       -0.1792
     24 H           5.2466   -1.4567   -3.4874 H       1  UNL1        0.0473
     25 H           6.4869   -2.0914   -2.3300 H       1  UNL1        0.0473
     26 H           6.7966   -0.5193   -3.1242 H       1  UNL1        0.0473
     27 H           3.2080   -0.9851   -2.0605 H       1  UNL1        0.0833
     28 H           2.9037    1.4282    2.2491 H       1  UNL1        0.0645
     29 H           0.5073    2.0720    3.7065 H       1  UNL1        0.0837
     30 H          -3.8959    1.0282    2.6216 H       1  UNL1        0.1536
     31 H          -4.9331   -1.4921    1.7970 H       1  UNL1        0.0636
     32 H          -6.2333   -2.3861   -0.1082 H       1  UNL1        0.0618
     33 H          -6.1286   -1.2187   -2.2655 H       1  UNL1        0.0618
     34 H          -4.7823    0.7642   -2.5473 H       1  UNL1        0.0633
     35 H          -1.6511   -0.2253   -0.0596 H       1  UNL1        0.0673
     36 H           1.0121   -0.5238   -0.9542 H       1  UNL1        0.1659
     37 H           5.1154    0.9939    1.1907 H       1  UNL1        0.0854
@<TRIPOS>BOND
     1     1     2    1
     2     2     3   ar
     3     3     4   ar
     4     4     5    1
     5     5     6   ar
     6     6     7   ar
     7     7     8   ar
     8     8     9   ar
     9     9    10   ar
    10    10    11    1
    11    11    12    1
    12    12    13   ar
    13    13    14   ar
    14    14    15   ar
    15    15    16   ar
    16    16    17   ar
    17    17    18    1
    18    10    19   ar
    19    19    20   ar
    20    20    21   ar
    21     4    22   ar
    22    22    23   ar
    23    23     2   ar
    24    21     5   ar
    25    20     7   ar
    26    17    12   ar
    27     1    24    1
    28     1    25    1
    29     1    26    1
    30     3    27    1
    31     6    28    1
    32     8    29    1
    33    11    30    1
    34    13    31    1
    35    14    32    1
    36    15    33    1
    37    16    34    1
    38    19    35    1
    39    21    36    1
    40    22    37    1
