@<TRIPOS>MOLECULE
*****
 9 8 0 0 0
SMALL
GASTEIGER

@<TRIPOS>ATOM
      1 N          -1.4789   -0.3259   -0.1315 N.am    1  UNL1       -0.3200
      2 C          -0.2451   -0.4086    0.5863 C.2     1  UNL1        0.3187
      3 O          -0.8031   -0.9068    1.5925 O.2     1  UNL1       -0.2633
      4 C           0.8778    0.1038   -0.2204 C.2     1  UNL1        0.3920
      5 O           2.1593    0.1303    0.2458 O.3     1  UNL1       -0.4740
      6 O           0.8722    0.5646   -1.3677 O.2     1  UNL1       -0.2400
      7 H          -2.2862   -0.7512   -0.6780 H       1  UNL1        0.1455
      8 H          -1.8634    0.6580   -0.2019 H       1  UNL1        0.1455
      9 H           2.7675    0.9358    0.1750 H       1  UNL1        0.2956
@<TRIPOS>BOND
     1     1     2   am
     2     2     3    2
     3     2     4    1
     4     4     5    1
     5     4     6    2
     6     1     7    1
     7     1     8    1
     8     5     9    1
