
     RDKit          3D

 63 66  0  0  0  0  0  0  0  0999 V2000
    0.0901   -0.6224   -2.8234 C   0  0  0  0  0  0  0  0  0  0  0  0
    0.3117   -0.9792   -1.3969 C   0  0  1  0  0  0  0  0  0  0  0  0
    1.7626   -0.9490   -1.0947 C   0  0  0  0  0  0  0  0  0  0  0  0
    2.5520   -2.0541   -1.4562 C   0  0  0  0  0  0  0  0  0  0  0  0
    3.8837   -2.1169   -1.2105 C   0  0  0  0  0  0  0  0  0  0  0  0
    4.5128   -1.0657   -0.5813 C   0  0  0  0  0  0  0  0  0  0  0  0
    5.9452   -1.1467   -0.3367 C   0  0  0  0  0  0  0  0  0  0  0  0
    6.6352   -0.1231    0.2719 C   0  0  0  0  0  0  0  0  0  0  0  0
    8.0193   -0.1937    0.4920 C   0  0  0  0  0  0  0  0  0  0  0  0
    8.6785   -1.3075    0.0885 C   0  0  0  0  0  0  0  0  0  0  0  0
   10.1124   -1.4499    0.2602 C   0  0  0  0  0  0  0  0  0  0  0  0
   11.2340   -1.5688    0.3761 N   0  0  0  0  0  0  0  0  0  0  0  0
    7.9572   -2.3291   -0.5230 C   0  0  0  0  0  0  0  0  0  0  0  0
    6.6451   -2.2394   -0.7214 N   0  0  0  0  0  0  0  0  0  0  0  0
    3.7719    0.0205   -0.2175 C   0  0  0  0  0  0  0  0  0  0  0  0
    2.3900    0.0874   -0.4718 C   0  0  0  0  0  0  0  0  0  0  0  0
   -0.5298   -0.3119   -0.4466 N   0  0  0  0  0  0  0  0  0  0  0  0
   -0.6979    1.1184   -0.2991 C   0  0  0  0  0  0  0  0  0  0  0  0
   -2.2064    1.3300   -0.5345 C   0  0  0  0  0  0  0  0  0  0  0  0
   -3.0008    0.8240    0.6064 C   0  0  2  0  0  0  0  0  0  0  0  0
   -4.4379    0.5191    0.3234 C   0  0  0  0  0  0  0  0  0  0  0  0
   -4.7551   -0.5058   -0.6914 C   0  0  0  0  0  0  0  0  0  0  0  0
   -6.3018   -0.5675   -0.7350 C   0  0  0  0  0  0  0  0  0  0  0  0
   -4.3318   -1.9101   -0.3508 C   0  0  0  0  0  0  0  0  0  0  0  0
   -4.4220   -0.1874   -2.0029 O   0  0  0  0  0  0  0  0  0  0  0  0
   -2.9814    1.7924    1.7421 C   0  0  0  0  0  0  0  0  0  0  0  0
   -3.8222    2.8723    1.8487 C   0  0  0  0  0  0  0  0  0  0  0  0
   -3.8066    3.7582    2.9120 C   0  0  0  0  0  0  0  0  0  0  0  0
   -2.9106    3.5653    3.9237 C   0  0  0  0  0  0  0  0  0  0  0  0
   -2.0464    2.4946    3.8605 C   0  0  0  0  0  0  0  0  0  0  0  0
   -2.0883    1.6234    2.7788 C   0  0  0  0  0  0  0  0  0  0  0  0
   -2.3500   -0.3494    1.1267 O   0  0  0  0  0  0  0  0  0  0  0  0
   -1.3875   -1.0580    0.4471 C   0  0  0  0  0  0  0  0  0  0  0  0
   -1.2252   -2.2993    0.5674 O   0  0  0  0  0  0  0  0  0  0  0  0
    0.3100    0.4142   -3.0810 H   0  0  0  0  0  0  0  0  0  0  0  0
    0.8042   -1.2520   -3.4236 H   0  0  0  0  0  0  0  0  0  0  0  0
   -0.9248   -0.9436   -3.2014 H   0  0  0  0  0  0  0  0  0  0  0  0
    0.0569   -2.1153   -1.3230 H   0  0  0  0  0  0  0  0  0  0  0  0
    2.0600   -2.8848   -1.9552 H   0  0  0  0  0  0  0  0  0  0  0  0
    4.4813   -2.9814   -1.5011 H   0  0  0  0  0  0  0  0  0  0  0  0
    6.1607    0.7727    0.6080 H   0  0  0  0  0  0  0  0  0  0  0  0
    8.5394    0.6447    0.9782 H   0  0  0  0  0  0  0  0  0  0  0  0
    8.5203   -3.2012   -0.8268 H   0  0  0  0  0  0  0  0  0  0  0  0
    4.1855    0.8709    0.2751 H   0  0  0  0  0  0  0  0  0  0  0  0
    1.8457    0.9670   -0.1580 H   0  0  0  0  0  0  0  0  0  0  0  0
   -0.3927    1.3826    0.7250 H   0  0  0  0  0  0  0  0  0  0  0  0
   -0.1311    1.7146   -1.0535 H   0  0  0  0  0  0  0  0  0  0  0  0
   -2.4094    2.3856   -0.8029 H   0  0  0  0  0  0  0  0  0  0  0  0
   -2.4061    0.7525   -1.4544 H   0  0  0  0  0  0  0  0  0  0  0  0
   -4.9522    1.4551    0.0221 H   0  0  0  0  0  0  0  0  0  0  0  0
   -4.9091    0.2239    1.2802 H   0  0  0  0  0  0  0  0  0  0  0  0
   -6.7093   -0.7442    0.2632 H   0  0  0  0  0  0  0  0  0  0  0  0
   -6.5272   -1.4002   -1.4338 H   0  0  0  0  0  0  0  0  0  0  0  0
   -6.6272    0.3644   -1.2126 H   0  0  0  0  0  0  0  0  0  0  0  0
   -3.5353   -2.1971   -1.0904 H   0  0  0  0  0  0  0  0  0  0  0  0
   -5.1486   -2.6655   -0.5666 H   0  0  0  0  0  0  0  0  0  0  0  0
   -4.0723   -2.0805    0.6913 H   0  0  0  0  0  0  0  0  0  0  0  0
   -4.7565    0.7444   -2.1644 H   0  0  0  0  0  0  0  0  0  0  0  0
   -4.5290    3.0605    1.0849 H   0  0  0  0  0  0  0  0  0  0  0  0
   -4.5009    4.5986    2.9419 H   0  0  0  0  0  0  0  0  0  0  0  0
   -2.8995    4.2694    4.7652 H   0  0  0  0  0  0  0  0  0  0  0  0
   -1.3500    2.3663    4.6744 H   0  0  0  0  0  0  0  0  0  0  0  0
   -1.3826    0.8079    2.8043 H   0  0  0  0  0  0  0  0  0  0  0  0
  1  2  1  0
  2  3  1  0
  3  4  2  0
  4  5  1  0
  5  6  2  0
  6  7  1  0
  7  8  2  0
  8  9  1  0
  9 10  2  0
 10 11  1  0
 11 12  3  0
 10 13  1  0
 13 14  2  0
  6 15  1  0
 15 16  2  0
  2 17  1  0
 17 18  1  0
 18 19  1  0
 19 20  1  0
 20 21  1  6
 21 22  1  0
 22 23  1  0
 22 24  1  0
 22 25  1  0
 20 26  1  0
 26 27  2  0
 27 28  1  0
 28 29  2  0
 29 30  1  0
 30 31  2  0
 20 32  1  0
 32 33  1  0
 33 34  2  0
 16  3  1  0
 33 17  1  0
 14  7  1  0
 31 26  1  0
  1 35  1  0
  1 36  1  0
  1 37  1  0
  2 38  1  6
  4 39  1  0
  5 40  1  0
  8 41  1  0
  9 42  1  0
 13 43  1  0
 15 44  1  0
 16 45  1  0
 18 46  1  0
 18 47  1  0
 19 48  1  0
 19 49  1  0
 21 50  1  0
 21 51  1  0
 23 52  1  0
 23 53  1  0
 23 54  1  0
 24 55  1  0
 24 56  1  0
 24 57  1  0
 25 58  1  0
 27 59  1  0
 28 60  1  0
 29 61  1  0
 30 62  1  0
 31 63  1  0
M  END
$$$$
