@<TRIPOS>MOLECULE
*****
 63 66 0 0 0
SMALL
GASTEIGER

@<TRIPOS>ATOM
      1 C           0.0901   -0.6224   -2.8234 C.3     1  UNL1       -0.0421
      2 C           0.3117   -0.9792   -1.3969 C.3     1  UNL1        0.0515
      3 C           1.7626   -0.9490   -1.0947 C.ar    1  UNL1       -0.0271
      4 C           2.5520   -2.0541   -1.4562 C.ar    1  UNL1       -0.0562
      5 C           3.8837   -2.1169   -1.2105 C.ar    1  UNL1       -0.0523
      6 C           4.5128   -1.0657   -0.5813 C.ar    1  UNL1        0.0004
      7 C           5.9452   -1.1467   -0.3367 C.ar    1  UNL1        0.0710
      8 C           6.6352   -0.1231    0.2719 C.ar    1  UNL1       -0.0345
      9 C           8.0193   -0.1937    0.4920 C.ar    1  UNL1       -0.0409
     10 C           8.6785   -1.3075    0.0885 C.ar    1  UNL1        0.0699
     11 C          10.1124   -1.4499    0.2602 C.1     1  UNL1        0.1007
     12 N          11.2340   -1.5688    0.3761 N.1     1  UNL1       -0.1908
     13 C           7.9572   -2.3291   -0.5230 C.ar    1  UNL1        0.0456
     14 N           6.6451   -2.2394   -0.7214 N.ar    1  UNL1       -0.2537
     15 C           3.7719    0.0205   -0.2175 C.ar    1  UNL1       -0.0523
     16 C           2.3900    0.0874   -0.4718 C.ar    1  UNL1       -0.0562
     17 N          -0.5298   -0.3119   -0.4466 N.am    1  UNL1       -0.2605
     18 C          -0.6979    1.1184   -0.2991 C.3     1  UNL1        0.0224
     19 C          -2.2064    1.3300   -0.5345 C.3     1  UNL1        0.0076
     20 C          -3.0008    0.8240    0.6064 C.3     1  UNL1        0.1440
     21 C          -4.4379    0.5191    0.3234 C.3     1  UNL1        0.0199
     22 C          -4.7551   -0.5058   -0.6914 C.3     1  UNL1        0.0645
     23 C          -6.3018   -0.5675   -0.7350 C.3     1  UNL1       -0.0362
     24 C          -4.3318   -1.9101   -0.3508 C.3     1  UNL1       -0.0362
     25 O          -4.4220   -0.1874   -2.0029 O.3     1  UNL1       -0.3890
     26 C          -2.9814    1.7924    1.7421 C.ar    1  UNL1       -0.0040
     27 C          -3.8222    2.8723    1.8487 C.ar    1  UNL1       -0.0548
     28 C          -3.8066    3.7582    2.9120 C.ar    1  UNL1       -0.0614
     29 C          -2.9106    3.5653    3.9237 C.ar    1  UNL1       -0.0617
     30 C          -2.0464    2.4946    3.8605 C.ar    1  UNL1       -0.0614
     31 C          -2.0883    1.6234    2.7788 C.ar    1  UNL1       -0.0548
     32 O          -2.3500   -0.3494    1.1267 O.3     1  UNL1       -0.4387
     33 C          -1.3875   -1.0580    0.4471 C.2     1  UNL1        0.4042
     34 O          -1.2252   -2.2993    0.5674 O.2     1  UNL1       -0.2262
     35 H           0.3100    0.4142   -3.0810 H       1  UNL1        0.0251
     36 H           0.8042   -1.2520   -3.4236 H       1  UNL1        0.0251
     37 H          -0.9248   -0.9436   -3.2014 H       1  UNL1        0.0251
     38 H           0.0569   -2.1153   -1.3230 H       1  UNL1        0.0549
     39 H           2.0600   -2.8848   -1.9552 H       1  UNL1        0.0621
     40 H           4.4813   -2.9814   -1.5011 H       1  UNL1        0.0624
     41 H           6.1607    0.7727    0.6080 H       1  UNL1        0.0639
     42 H           8.5394    0.6447    0.9782 H       1  UNL1        0.0631
     43 H           8.5203   -3.2012   -0.8268 H       1  UNL1        0.0843
     44 H           4.1855    0.8709    0.2751 H       1  UNL1        0.0624
     45 H           1.8457    0.9670   -0.1580 H       1  UNL1        0.0621
     46 H          -0.3927    1.3826    0.7250 H       1  UNL1        0.0467
     47 H          -0.1311    1.7146   -1.0535 H       1  UNL1        0.0467
     48 H          -2.4094    2.3856   -0.8029 H       1  UNL1        0.0322
     49 H          -2.4061    0.7525   -1.4544 H       1  UNL1        0.0322
     50 H          -4.9522    1.4551    0.0221 H       1  UNL1        0.0335
     51 H          -4.9091    0.2239    1.2802 H       1  UNL1        0.0335
     52 H          -6.7093   -0.7442    0.2632 H       1  UNL1        0.0257
     53 H          -6.5272   -1.4002   -1.4338 H       1  UNL1        0.0257
     54 H          -6.6272    0.3644   -1.2126 H       1  UNL1        0.0257
     55 H          -3.5353   -2.1971   -1.0904 H       1  UNL1        0.0257
     56 H          -5.1486   -2.6655   -0.5666 H       1  UNL1        0.0257
     57 H          -4.0723   -2.0805    0.6913 H       1  UNL1        0.0257
     58 H          -4.7565    0.7444   -2.1644 H       1  UNL1        0.2101
     59 H          -4.5290    3.0605    1.0849 H       1  UNL1        0.0622
     60 H          -4.5009    4.5986    2.9419 H       1  UNL1        0.0618
     61 H          -2.8995    4.2694    4.7652 H       1  UNL1        0.0618
     62 H          -1.3500    2.3663    4.6744 H       1  UNL1        0.0618
     63 H          -1.3826    0.8079    2.8043 H       1  UNL1        0.0622
@<TRIPOS>BOND
     1     1     2    1
     2     2     3    1
     3     3     4   ar
     4     4     5   ar
     5     5     6   ar
     6     6     7    1
     7     7     8   ar
     8     8     9   ar
     9     9    10   ar
    10    10    11    1
    11    11    12    3
    12    10    13   ar
    13    13    14   ar
    14     6    15   ar
    15    15    16   ar
    16     2    17    1
    17    17    18    1
    18    18    19    1
    19    19    20    1
    20    20    21    1
    21    21    22    1
    22    22    23    1
    23    22    24    1
    24    22    25    1
    25    20    26    1
    26    26    27   ar
    27    27    28   ar
    28    28    29   ar
    29    29    30   ar
    30    30    31   ar
    31    20    32    1
    32    32    33    1
    33    33    34    2
    34    16     3   ar
    35    33    17   am
    36    14     7   ar
    37    31    26   ar
    38     1    35    1
    39     1    36    1
    40     1    37    1
    41     2    38    1
    42     4    39    1
    43     5    40    1
    44     8    41    1
    45     9    42    1
    46    13    43    1
    47    15    44    1
    48    16    45    1
    49    18    46    1
    50    18    47    1
    51    19    48    1
    52    19    49    1
    53    21    50    1
    54    21    51    1
    55    23    52    1
    56    23    53    1
    57    23    54    1
    58    24    55    1
    59    24    56    1
    60    24    57    1
    61    25    58    1
    62    27    59    1
    63    28    60    1
    64    29    61    1
    65    30    62    1
    66    31    63    1
