@<TRIPOS>MOLECULE
*****
 27 27 0 0 0
SMALL
GASTEIGER

@<TRIPOS>ATOM
      1 N           4.9680   -1.0686    0.1818 N.pl3   1  UNL1       -0.2888
      2 C           3.9245   -0.2494   -0.3858 C.cat   1  UNL1        0.3855
      3 N           3.8239    0.2622   -1.5892 N.pl3   1  UNL1       -0.1293
      4 N           2.8182    0.0679    0.4830 N.pl3   1  UNL1       -0.1859
      5 C           1.5294    0.2325   -0.0953 C.cat   1  UNL1        0.3926
      6 N           1.1951   -0.2189   -1.2278 N.pl3   1  UNL1       -0.1289
      7 N           0.4903    0.9450    0.6123 N.pl3   1  UNL1       -0.2418
      8 C          -0.9079    0.7478    0.5217 C.ar    1  UNL1        0.1188
      9 C          -1.7508    1.5635    1.2627 C.ar    1  UNL1        0.0793
     10 CL         -1.0625    2.8201    2.2848 Cl      1  UNL1       -0.0800
     11 C          -3.1120    1.4300    1.2315 C.ar    1  UNL1       -0.0395
     12 C          -3.7333    0.4790    0.4640 C.ar    1  UNL1       -0.0485
     13 C          -2.9268   -0.3498   -0.2857 C.ar    1  UNL1        0.0581
     14 C          -1.5607   -0.1927   -0.2348 C.ar    1  UNL1       -0.0101
     15 C          -3.5530   -1.3961   -1.1335 C.3     1  UNL1        0.4175
     16 F          -4.2344   -2.2872   -0.3051 F       1  UNL1       -0.1659
     17 F          -2.6500   -2.0253   -1.9372 F       1  UNL1       -0.1659
     18 F          -4.5517   -0.8194   -1.9280 F       1  UNL1       -0.1659
     19 H           5.7949   -0.7178    0.7004 H       1  UNL1        0.2547
     20 H           4.8746   -2.1011    0.0548 H       1  UNL1        0.2547
     21 H           4.5718    0.0952   -2.2975 H       1  UNL1        0.3062
     22 H           2.9189    0.1835    1.5105 H       1  UNL1        0.2707
     23 H           1.8071   -0.7512   -1.8537 H       1  UNL1        0.3062
     24 H           0.8511    1.6927    1.2717 H       1  UNL1        0.2649
     25 H          -3.7225    2.0939    1.8301 H       1  UNL1        0.0633
     26 H          -4.8125    0.4291    0.4865 H       1  UNL1        0.0624
     27 H          -0.9897   -0.8650   -0.8327 H       1  UNL1        0.0658
@<TRIPOS>BOND
     1     1     2    1
     2     2     3    2
     3     2     4    1
     4     4     5    1
     5     5     6    2
     6     5     7    1
     7     7     8    1
     8     8     9   ar
     9     9    10    1
    10     9    11   ar
    11    11    12   ar
    12    12    13   ar
    13    13    14   ar
    14    13    15    1
    15    15    16    1
    16    15    17    1
    17    15    18    1
    18    14     8   ar
    19     1    19    1
    20     1    20    1
    21     3    21    1
    22     4    22    1
    23     6    23    1
    24     7    24    1
    25    11    25    1
    26    12    26    1
    27    14    27    1
