@<TRIPOS>MOLECULE
*****
 56 60 0 0 0
SMALL
GASTEIGER

@<TRIPOS>ATOM
      1 C          -3.9175    1.3419    1.8941 C.3     1  UNL1       -0.0274
      2 C          -3.2071    0.9932    0.6078 C.3     1  UNL1        0.1037
      3 O          -3.2102   -0.3882    0.4161 O.3     1  UNL1       -0.4725
      4 C          -2.0071   -1.0713    0.3439 C.ar    1  UNL1        0.2265
      5 N          -0.8170   -0.4541    0.4518 N.ar    1  UNL1       -0.2121
      6 C           0.3578   -1.1028    0.3838 C.ar    1  UNL1        0.0798
      7 C           1.6141   -0.3628    0.5100 C.ar    1  UNL1        0.0380
      8 C           1.7356    0.9974    0.7009 C.ar    1  UNL1        0.0586
      9 N           3.0636    1.2734    0.7639 N.ar    1  UNL1       -0.1766
     10 N           3.7712    0.1703    0.6242 N.ar    1  UNL1       -0.2423
     11 C           5.2214   -0.0028    0.6272 C.3     1  UNL1        0.1512
     12 C           5.8874    1.2486    1.0908 C.3     1  UNL1       -0.0059
     13 C           6.2862    2.1856   -0.0001 C.3     1  UNL1       -0.0468
     14 C           6.8736    1.4212   -1.1813 C.3     1  UNL1       -0.0292
     15 C           5.8171    0.3927   -1.5761 C.3     1  UNL1        0.0502
     16 O           5.6975   -0.5106   -0.5532 O.3     1  UNL1       -0.3552
     17 C           2.9015   -0.8508    0.4663 C.ar    1  UNL1        0.0375
     18 C           0.3809   -2.4686    0.1949 C.ar    1  UNL1       -0.0076
     19 C          -0.7946   -3.1456    0.0790 C.ar    1  UNL1        0.0999
     20 N          -1.0863   -4.4437   -0.1065 N.ar    1  UNL1       -0.1712
     21 N          -2.3991   -4.5944   -0.1520 N.ar    1  UNL1       -0.2732
     22 C          -3.1178   -5.8405   -0.3382 C.3     1  UNL1        0.0302
     23 C          -2.9717   -3.3875    0.0047 C.ar    1  UNL1        0.0380
     24 C          -1.9810   -2.4437    0.1541 C.ar    1  UNL1        0.0812
     25 C          -3.8289    1.6521   -0.5936 C.3     1  UNL1        0.0196
     26 C          -5.2558    1.2816   -0.8159 C.3     1  UNL1        0.0182
     27 N          -5.7126    2.3683   -1.6986 N.am    1  UNL1       -0.3149
     28 C          -4.9059    3.5127   -1.4713 C.2     1  UNL1        0.2135
     29 O          -5.0324    4.6232   -2.0289 O.2     1  UNL1       -0.2758
     30 C          -3.8871    3.1571   -0.4554 C.3     1  UNL1        0.0315
     31 H          -4.0422    0.3977    2.4995 H       1  UNL1        0.0265
     32 H          -4.8677    1.8560    1.7519 H       1  UNL1        0.0265
     33 H          -3.2778    2.0040    2.5273 H       1  UNL1        0.0265
     34 H          -2.1643    1.3546    0.6777 H       1  UNL1        0.0734
     35 H           0.9046    1.6786    0.7799 H       1  UNL1        0.0854
     36 H           5.4130   -0.7861    1.4182 H       1  UNL1        0.0852
     37 H           5.1402    1.7986    1.7354 H       1  UNL1        0.0309
     38 H           6.7460    1.0473    1.7764 H       1  UNL1        0.0309
     39 H           5.4030    2.7516   -0.3987 H       1  UNL1        0.0267
     40 H           7.0446    2.8950    0.4151 H       1  UNL1        0.0267
     41 H           7.0468    2.0893   -2.0246 H       1  UNL1        0.0287
     42 H           7.8032    0.8870   -0.8605 H       1  UNL1        0.0287
     43 H           4.9049    0.9407   -1.8327 H       1  UNL1        0.0560
     44 H           6.1542   -0.1382   -2.4775 H       1  UNL1        0.0560
     45 H           3.1360   -1.9086    0.3240 H       1  UNL1        0.0834
     46 H           1.3256   -2.9998    0.1389 H       1  UNL1        0.0661
     47 H          -3.2030   -6.4192    0.6180 H       1  UNL1        0.0473
     48 H          -4.1091   -5.6341   -0.7818 H       1  UNL1        0.0473
     49 H          -2.5587   -6.5019   -1.0372 H       1  UNL1        0.0473
     50 H          -4.0274   -3.1596    0.0165 H       1  UNL1        0.0834
     51 H          -3.2408    1.3614   -1.4767 H       1  UNL1        0.0356
     52 H          -5.8938    1.3191    0.0720 H       1  UNL1        0.0466
     53 H          -5.3822    0.3074   -1.3403 H       1  UNL1        0.0466
     54 H          -6.5059    2.2683   -2.3679 H       1  UNL1        0.1487
     55 H          -2.9121    3.6401   -0.6374 H       1  UNL1        0.0363
     56 H          -4.3133    3.3990    0.5382 H       1  UNL1        0.0363
@<TRIPOS>BOND
     1     1     2    1
     2     2     3    1
     3     3     4    1
     4     4     5   ar
     5     5     6   ar
     6     6     7    1
     7     7     8   ar
     8     8     9   ar
     9     9    10   ar
    10    10    11    1
    11    11    12    1
    12    12    13    1
    13    13    14    1
    14    14    15    1
    15    15    16    1
    16    10    17   ar
    17     6    18   ar
    18    18    19   ar
    19    19    20   ar
    20    20    21   ar
    21    21    22    1
    22    21    23   ar
    23    23    24   ar
    24     2    25    1
    25    25    26    1
    26    26    27    1
    27    27    28   am
    28    28    29    2
    29    28    30    1
    30    24     4   ar
    31    30    25    1
    32    17     7   ar
    33    24    19   ar
    34    16    11    1
    35     1    31    1
    36     1    32    1
    37     1    33    1
    38     2    34    1
    39     8    35    1
    40    11    36    1
    41    12    37    1
    42    12    38    1
    43    13    39    1
    44    13    40    1
    45    14    41    1
    46    14    42    1
    47    15    43    1
    48    15    44    1
    49    17    45    1
    50    18    46    1
    51    22    47    1
    52    22    48    1
    53    22    49    1
    54    23    50    1
    55    25    51    1
    56    26    52    1
    57    26    53    1
    58    27    54    1
    59    30    55    1
    60    30    56    1
