
     RDKit          3D

 56 60  0  0  0  0  0  0  0  0999 V2000
   -3.9175    1.3419    1.8941 C   0  0  0  0  0  0  0  0  0  0  0  0
   -3.2071    0.9932    0.6078 C   0  0  1  0  0  0  0  0  0  0  0  0
   -3.2102   -0.3882    0.4161 O   0  0  0  0  0  0  0  0  0  0  0  0
   -2.0071   -1.0713    0.3439 C   0  0  0  0  0  0  0  0  0  0  0  0
   -0.8170   -0.4541    0.4518 N   0  0  0  0  0  0  0  0  0  0  0  0
    0.3578   -1.1028    0.3838 C   0  0  0  0  0  0  0  0  0  0  0  0
    1.6141   -0.3628    0.5100 C   0  0  0  0  0  0  0  0  0  0  0  0
    1.7356    0.9974    0.7009 C   0  0  0  0  0  0  0  0  0  0  0  0
    3.0636    1.2734    0.7639 N   0  0  0  0  0  0  0  0  0  0  0  0
    3.7712    0.1703    0.6242 N   0  0  0  0  0  0  0  0  0  0  0  0
    5.2214   -0.0028    0.6272 C   0  0  0  0  0  0  0  0  0  0  0  0
    5.8874    1.2486    1.0908 C   0  0  0  0  0  0  0  0  0  0  0  0
    6.2862    2.1856   -0.0001 C   0  0  0  0  0  0  0  0  0  0  0  0
    6.8736    1.4212   -1.1813 C   0  0  0  0  0  0  0  0  0  0  0  0
    5.8171    0.3927   -1.5761 C   0  0  0  0  0  0  0  0  0  0  0  0
    5.6975   -0.5106   -0.5532 O   0  0  0  0  0  0  0  0  0  0  0  0
    2.9015   -0.8508    0.4663 C   0  0  0  0  0  0  0  0  0  0  0  0
    0.3809   -2.4686    0.1949 C   0  0  0  0  0  0  0  0  0  0  0  0
   -0.7946   -3.1456    0.0790 C   0  0  0  0  0  0  0  0  0  0  0  0
   -1.0863   -4.4437   -0.1065 N   0  0  0  0  0  0  0  0  0  0  0  0
   -2.3991   -4.5944   -0.1520 N   0  0  0  0  0  0  0  0  0  0  0  0
   -3.1178   -5.8405   -0.3382 C   0  0  0  0  0  0  0  0  0  0  0  0
   -2.9717   -3.3875    0.0047 C   0  0  0  0  0  0  0  0  0  0  0  0
   -1.9810   -2.4437    0.1541 C   0  0  0  0  0  0  0  0  0  0  0  0
   -3.8289    1.6521   -0.5936 C   0  0  1  0  0  0  0  0  0  0  0  0
   -5.2558    1.2816   -0.8159 C   0  0  0  0  0  0  0  0  0  0  0  0
   -5.7126    2.3683   -1.6986 N   0  0  0  0  0  0  0  0  0  0  0  0
   -4.9059    3.5127   -1.4713 C   0  0  0  0  0  0  0  0  0  0  0  0
   -5.0324    4.6232   -2.0289 O   0  0  0  0  0  0  0  0  0  0  0  0
   -3.8871    3.1571   -0.4554 C   0  0  0  0  0  0  0  0  0  0  0  0
   -4.0422    0.3977    2.4995 H   0  0  0  0  0  0  0  0  0  0  0  0
   -4.8677    1.8560    1.7519 H   0  0  0  0  0  0  0  0  0  0  0  0
   -3.2778    2.0040    2.5273 H   0  0  0  0  0  0  0  0  0  0  0  0
   -2.1643    1.3546    0.6777 H   0  0  0  0  0  0  0  0  0  0  0  0
    0.9046    1.6786    0.7799 H   0  0  0  0  0  0  0  0  0  0  0  0
    5.4130   -0.7861    1.4182 H   0  0  0  0  0  0  0  0  0  0  0  0
    5.1402    1.7986    1.7354 H   0  0  0  0  0  0  0  0  0  0  0  0
    6.7460    1.0473    1.7764 H   0  0  0  0  0  0  0  0  0  0  0  0
    5.4030    2.7516   -0.3987 H   0  0  0  0  0  0  0  0  0  0  0  0
    7.0446    2.8950    0.4151 H   0  0  0  0  0  0  0  0  0  0  0  0
    7.0468    2.0893   -2.0246 H   0  0  0  0  0  0  0  0  0  0  0  0
    7.8032    0.8870   -0.8605 H   0  0  0  0  0  0  0  0  0  0  0  0
    4.9049    0.9407   -1.8327 H   0  0  0  0  0  0  0  0  0  0  0  0
    6.1542   -0.1382   -2.4775 H   0  0  0  0  0  0  0  0  0  0  0  0
    3.1360   -1.9086    0.3240 H   0  0  0  0  0  0  0  0  0  0  0  0
    1.3256   -2.9998    0.1389 H   0  0  0  0  0  0  0  0  0  0  0  0
   -3.2030   -6.4192    0.6180 H   0  0  0  0  0  0  0  0  0  0  0  0
   -4.1091   -5.6341   -0.7818 H   0  0  0  0  0  0  0  0  0  0  0  0
   -2.5587   -6.5019   -1.0372 H   0  0  0  0  0  0  0  0  0  0  0  0
   -4.0274   -3.1596    0.0165 H   0  0  0  0  0  0  0  0  0  0  0  0
   -3.2408    1.3614   -1.4767 H   0  0  0  0  0  0  0  0  0  0  0  0
   -5.8938    1.3191    0.0720 H   0  0  0  0  0  0  0  0  0  0  0  0
   -5.3822    0.3074   -1.3403 H   0  0  0  0  0  0  0  0  0  0  0  0
   -6.5059    2.2683   -2.3679 H   0  0  0  0  0  0  0  0  0  0  0  0
   -2.9121    3.6401   -0.6374 H   0  0  0  0  0  0  0  0  0  0  0  0
   -4.3133    3.3990    0.5382 H   0  0  0  0  0  0  0  0  0  0  0  0
  1  2  1  0
  2  3  1  0
  3  4  1  0
  4  5  2  0
  5  6  1  0
  6  7  1  0
  7  8  1  0
  8  9  2  0
  9 10  1  0
 10 11  1  0
 11 12  1  0
 12 13  1  0
 13 14  1  0
 14 15  1  0
 15 16  1  0
 10 17  1  0
  6 18  2  0
 18 19  1  0
 19 20  2  0
 20 21  1  0
 21 22  1  0
 21 23  1  0
 23 24  2  0
  2 25  1  0
 25 26  1  0
 26 27  1  0
 27 28  1  0
 28 29  2  0
 28 30  1  0
 24  4  1  0
 30 25  1  0
 17  7  2  0
 24 19  1  0
 16 11  1  0
  1 31  1  0
  1 32  1  0
  1 33  1  0
  2 34  1  1
  8 35  1  0
 11 36  1  0
 12 37  1  0
 12 38  1  0
 13 39  1  0
 13 40  1  0
 14 41  1  0
 14 42  1  0
 15 43  1  0
 15 44  1  0
 17 45  1  0
 18 46  1  0
 22 47  1  0
 22 48  1  0
 22 49  1  0
 23 50  1  0
 25 51  1  6
 26 52  1  0
 26 53  1  0
 27 54  1  0
 30 55  1  0
 30 56  1  0
M  END
$$$$
