
     RDKit          3D

 40 43  0  0  0  0  0  0  0  0999 V2000
   -1.1141    0.3251   -1.5638 O   0  0  0  0  0  0  0  0  0  0  0  0
   -0.5781   -0.1174   -0.5067 C   0  0  0  0  0  0  0  0  0  0  0  0
   -1.4748   -0.6605    0.4414 N   0  0  0  0  0  0  0  0  0  0  0  0
   -2.8818   -0.7024    0.2142 C   0  0  0  0  0  0  0  0  0  0  0  0
   -3.5327   -1.7335   -0.3848 C   0  0  0  0  0  0  0  0  0  0  0  0
   -4.9180   -1.7028   -0.5734 C   0  0  0  0  0  0  0  0  0  0  0  0
   -5.6635   -0.6233   -0.1559 C   0  0  0  0  0  0  0  0  0  0  0  0
   -7.0452   -0.5678   -0.3318 C   0  0  0  0  0  0  0  0  0  0  0  0
   -7.6964    0.5613    0.1237 C   0  0  0  0  0  0  0  0  0  0  0  0
   -7.0140    1.5920    0.7271 C   0  0  0  0  0  0  0  0  0  0  0  0
   -5.6808    1.4880    0.8722 N   0  0  0  0  0  0  0  0  0  0  0  0
   -4.9839    0.4131    0.4499 C   0  0  0  0  0  0  0  0  0  0  0  0
   -3.6144    0.3855    0.6376 C   0  0  0  0  0  0  0  0  0  0  0  0
    0.8601   -0.0529   -0.3201 C   0  0  0  0  0  0  0  0  0  0  0  0
    1.5072   -0.5086    0.7895 C   0  0  0  0  0  0  0  0  0  0  0  0
    2.8991   -0.4085    0.8903 C   0  0  0  0  0  0  0  0  0  0  0  0
    3.6418    0.1506   -0.1258 C   0  0  0  0  0  0  0  0  0  0  0  0
    5.0933    0.2759   -0.0649 C   0  0  0  0  0  0  0  0  0  0  0  0
    5.7495    0.8545   -1.1419 C   0  0  0  0  0  0  0  0  0  0  0  0
    7.1104    1.0233   -1.1932 C   0  0  0  0  0  0  0  0  0  0  0  0
    7.8508    0.5929   -0.1161 C   0  0  0  0  0  0  0  0  0  0  0  0
    7.2101    0.0085    0.9764 C   0  0  0  0  0  0  0  0  0  0  0  0
    5.8411   -0.1486    1.0014 C   0  0  0  0  0  0  0  0  0  0  0  0
    2.9539    0.5878   -1.2055 N   0  0  0  0  0  0  0  0  0  0  0  0
    1.6232    0.5099   -1.3395 C   0  0  0  0  0  0  0  0  0  0  0  0
   -1.0853   -1.0392    1.3306 H   0  0  0  0  0  0  0  0  0  0  0  0
   -2.9819   -2.5833   -0.7187 H   0  0  0  0  0  0  0  0  0  0  0  0
   -5.4468   -2.5114   -1.0458 H   0  0  0  0  0  0  0  0  0  0  0  0
   -7.5662   -1.3697   -0.7998 H   0  0  0  0  0  0  0  0  0  0  0  0
   -8.7639    0.6436    0.0071 H   0  0  0  0  0  0  0  0  0  0  0  0
   -7.4774    2.4942    1.0994 H   0  0  0  0  0  0  0  0  0  0  0  0
   -3.1332    1.2123    1.1119 H   0  0  0  0  0  0  0  0  0  0  0  0
    0.9278   -0.9477    1.5883 H   0  0  0  0  0  0  0  0  0  0  0  0
    3.3605   -0.7807    1.7814 H   0  0  0  0  0  0  0  0  0  0  0  0
    5.1622    1.1894   -1.9823 H   0  0  0  0  0  0  0  0  0  0  0  0
    7.6201    1.4774   -2.0395 H   0  0  0  0  0  0  0  0  0  0  0  0
    8.9293    0.7036   -0.1080 H   0  0  0  0  0  0  0  0  0  0  0  0
    7.8180   -0.3132    1.7937 H   0  0  0  0  0  0  0  0  0  0  0  0
    5.3666   -0.6000    1.8499 H   0  0  0  0  0  0  0  0  0  0  0  0
    1.1276    0.8825   -2.2394 H   0  0  0  0  0  0  0  0  0  0  0  0
  1  2  2  0
  2  3  1  0
  3  4  1  0
  4  5  2  0
  5  6  1  0
  6  7  2  0
  7  8  1  0
  8  9  2  0
  9 10  1  0
 10 11  2  0
 11 12  1  0
 12 13  2  0
  2 14  1  0
 14 15  2  0
 15 16  1  0
 16 17  2  0
 17 18  1  0
 18 19  2  0
 19 20  1  0
 20 21  2  0
 21 22  1  0
 22 23  2  0
 17 24  1  0
 24 25  2  0
 13  4  1  0
 25 14  1  0
 12  7  1  0
 23 18  1  0
  3 26  1  0
  5 27  1  0
  6 28  1  0
  8 29  1  0
  9 30  1  0
 10 31  1  0
 13 32  1  0
 15 33  1  0
 16 34  1  0
 19 35  1  0
 20 36  1  0
 21 37  1  0
 22 38  1  0
 23 39  1  0
 25 40  1  0
M  END
$$$$
