@<TRIPOS>MOLECULE
*****
 40 43 0 0 0
SMALL
GASTEIGER

@<TRIPOS>ATOM
      1 O          -1.1141    0.3251   -1.5638 O.2     1  UNL1       -0.2698
      2 C          -0.5781   -0.1174   -0.5067 C.2     1  UNL1        0.2497
      3 N          -1.4748   -0.6605    0.4414 N.am    1  UNL1       -0.2814
      4 C          -2.8818   -0.7024    0.2142 C.ar    1  UNL1        0.0357
      5 C          -3.5327   -1.7335   -0.3848 C.ar    1  UNL1       -0.0398
      6 C          -4.9180   -1.7028   -0.5734 C.ar    1  UNL1       -0.0508
      7 C          -5.6635   -0.6233   -0.1559 C.ar    1  UNL1        0.0005
      8 C          -7.0452   -0.5678   -0.3318 C.ar    1  UNL1       -0.0511
      9 C          -7.6964    0.5613    0.1237 C.ar    1  UNL1       -0.0430
     10 C          -7.0140    1.5920    0.7271 C.ar    1  UNL1        0.0283
     11 N          -5.6808    1.4880    0.8722 N.ar    1  UNL1       -0.2549
     12 C          -4.9839    0.4131    0.4499 C.ar    1  UNL1        0.0727
     13 C          -3.6144    0.3855    0.6376 C.ar    1  UNL1       -0.0145
     14 C           0.8601   -0.0529   -0.3201 C.ar    1  UNL1        0.0551
     15 C           1.5072   -0.5086    0.7895 C.ar    1  UNL1       -0.0461
     16 C           2.8991   -0.4085    0.8903 C.ar    1  UNL1       -0.0350
     17 C           3.6418    0.1506   -0.1258 C.ar    1  UNL1        0.0710
     18 C           5.0933    0.2759   -0.0649 C.ar    1  UNL1        0.0003
     19 C           5.7495    0.8545   -1.1419 C.ar    1  UNL1       -0.0526
     20 C           7.1104    1.0233   -1.1932 C.ar    1  UNL1       -0.0611
     21 C           7.8508    0.5929   -0.1161 C.ar    1  UNL1       -0.0617
     22 C           7.2101    0.0085    0.9764 C.ar    1  UNL1       -0.0611
     23 C           5.8411   -0.1486    1.0014 C.ar    1  UNL1       -0.0526
     24 N           2.9539    0.5878   -1.2055 N.ar    1  UNL1       -0.2542
     25 C           1.6232    0.5099   -1.3395 C.ar    1  UNL1        0.0404
     26 H          -1.0853   -1.0392    1.3306 H       1  UNL1        0.1551
     27 H          -2.9819   -2.5833   -0.7187 H       1  UNL1        0.0636
     28 H          -5.4468   -2.5114   -1.0458 H       1  UNL1        0.0625
     29 H          -7.5662   -1.3697   -0.7998 H       1  UNL1        0.0625
     30 H          -8.7639    0.6436    0.0071 H       1  UNL1        0.0633
     31 H          -7.4774    2.4942    1.0994 H       1  UNL1        0.0830
     32 H          -3.1332    1.2123    1.1119 H       1  UNL1        0.0657
     33 H           0.9278   -0.9477    1.5883 H       1  UNL1        0.0626
     34 H           3.3605   -0.7807    1.7814 H       1  UNL1        0.0639
     35 H           5.1622    1.1894   -1.9823 H       1  UNL1        0.0624
     36 H           7.6201    1.4774   -2.0395 H       1  UNL1        0.0618
     37 H           8.9293    0.7036   -0.1080 H       1  UNL1        0.0618
     38 H           7.8180   -0.3132    1.7937 H       1  UNL1        0.0618
     39 H           5.3666   -0.6000    1.8499 H       1  UNL1        0.0624
     40 H           1.1276    0.8825   -2.2394 H       1  UNL1        0.0837
@<TRIPOS>BOND
     1     1     2    2
     2     2     3   am
     3     3     4    1
     4     4     5   ar
     5     5     6   ar
     6     6     7   ar
     7     7     8   ar
     8     8     9   ar
     9     9    10   ar
    10    10    11   ar
    11    11    12   ar
    12    12    13   ar
    13     2    14    1
    14    14    15   ar
    15    15    16   ar
    16    16    17   ar
    17    17    18    1
    18    18    19   ar
    19    19    20   ar
    20    20    21   ar
    21    21    22   ar
    22    22    23   ar
    23    17    24   ar
    24    24    25   ar
    25    13     4   ar
    26    25    14   ar
    27    12     7   ar
    28    23    18   ar
    29     3    26    1
    30     5    27    1
    31     6    28    1
    32     8    29    1
    33     9    30    1
    34    10    31    1
    35    13    32    1
    36    15    33    1
    37    16    34    1
    38    19    35    1
    39    20    36    1
    40    21    37    1
    41    22    38    1
    42    23    39    1
    43    25    40    1
