
     RDKit          3D

 38 41  0  0  0  0  0  0  0  0999 V2000
   -5.5704    0.7739    2.0480 C   0  0  0  0  0  0  0  0  0  0  0  0
   -4.3689    0.4911    1.3634 O   0  0  0  0  0  0  0  0  0  0  0  0
   -4.3369   -0.1313    0.1253 C   0  0  0  0  0  0  0  0  0  0  0  0
   -5.4618   -0.5205   -0.5311 C   0  0  0  0  0  0  0  0  0  0  0  0
   -5.3761   -1.1309   -1.7510 C   0  0  0  0  0  0  0  0  0  0  0  0
   -4.1481   -1.3526   -2.3171 C   0  0  0  0  0  0  0  0  0  0  0  0
   -2.9719   -0.9600   -1.6592 C   0  0  0  0  0  0  0  0  0  0  0  0
   -3.0608   -0.3479   -0.4357 C   0  0  0  0  0  0  0  0  0  0  0  0
   -1.9159    0.0619    0.2592 N   0  0  0  0  0  0  0  0  0  0  0  0
   -0.5958   -0.0860   -0.1712 C   0  0  0  0  0  0  0  0  0  0  0  0
    0.4077    0.4018    0.6945 C   0  0  0  0  0  0  0  0  0  0  0  0
    1.7171    0.2675    0.2919 C   0  0  0  0  0  0  0  0  0  0  0  0
    2.8861    0.6217    0.8748 N   0  0  0  0  0  0  0  0  0  0  0  0
    3.9348    0.2882    0.1033 C   0  0  0  0  0  0  0  0  0  0  0  0
    5.3377    0.5276    0.4338 C   0  0  0  0  0  0  0  0  0  0  0  0
    5.8339    1.1261    1.5724 C   0  0  0  0  0  0  0  0  0  0  0  0
    7.1724    1.1324    1.4462 N   0  0  0  0  0  0  0  0  0  0  0  0
    7.5686    0.5924    0.3315 N   0  0  0  0  0  0  0  0  0  0  0  0
    6.4417    0.2036   -0.3247 C   0  0  0  0  0  0  0  0  0  0  0  0
    3.4383   -0.3023   -1.0188 C   0  0  0  0  0  0  0  0  0  0  0  0
    2.0575   -0.3212   -0.9133 C   0  0  0  0  0  0  0  0  0  0  0  0
    1.0477   -0.7870   -1.7347 C   0  0  0  0  0  0  0  0  0  0  0  0
   -0.1982   -0.6370   -1.3074 N   0  0  0  0  0  0  0  0  0  0  0  0
   -6.3972    1.0606    1.3915 H   0  0  0  0  0  0  0  0  0  0  0  0
   -5.9053   -0.1084    2.6459 H   0  0  0  0  0  0  0  0  0  0  0  0
   -5.3850    1.6504    2.7207 H   0  0  0  0  0  0  0  0  0  0  0  0
   -6.4398   -0.3463   -0.0847 H   0  0  0  0  0  0  0  0  0  0  0  0
   -6.2565   -1.4591   -2.3115 H   0  0  0  0  0  0  0  0  0  0  0  0
   -4.0486   -1.8383   -3.2912 H   0  0  0  0  0  0  0  0  0  0  0  0
   -2.0438   -1.1714   -2.1741 H   0  0  0  0  0  0  0  0  0  0  0  0
   -2.1163    0.5294    1.2080 H   0  0  0  0  0  0  0  0  0  0  0  0
    0.1418    0.8578    1.6285 H   0  0  0  0  0  0  0  0  0  0  0  0
    2.9686    1.0971    1.8111 H   0  0  0  0  0  0  0  0  0  0  0  0
    5.2884    1.5210    2.4141 H   0  0  0  0  0  0  0  0  0  0  0  0
    8.5606    0.4907    0.0263 H   0  0  0  0  0  0  0  0  0  0  0  0
    6.4231   -0.2749   -1.2741 H   0  0  0  0  0  0  0  0  0  0  0  0
    4.0449   -0.6754   -1.8233 H   0  0  0  0  0  0  0  0  0  0  0  0
    1.3265   -1.2447   -2.6733 H   0  0  0  0  0  0  0  0  0  0  0  0
  1  2  1  0
  2  3  1  0
  3  4  2  0
  4  5  1  0
  5  6  2  0
  6  7  1  0
  7  8  2  0
  8  9  1  0
  9 10  1  0
 10 11  2  0
 11 12  1  0
 12 13  1  0
 13 14  1  0
 14 15  1  0
 15 16  1  0
 16 17  2  0
 17 18  1  0
 18 19  1  0
 14 20  2  0
 20 21  1  0
 21 22  1  0
 22 23  2  0
  8  3  1  0
 23 10  1  0
 21 12  2  0
 19 15  2  0
  1 24  1  0
  1 25  1  0
  1 26  1  0
  4 27  1  0
  5 28  1  0
  6 29  1  0
  7 30  1  0
  9 31  1  0
 11 32  1  0
 13 33  1  0
 16 34  1  0
 18 35  1  0
 19 36  1  0
 20 37  1  0
 22 38  1  0
M  END
$$$$
