@<TRIPOS>MOLECULE
*****
 38 41 0 0 0
SMALL
GASTEIGER

@<TRIPOS>ATOM
      1 C          -5.5704    0.7739    2.0480 C.3     1  UNL1        0.0789
      2 O          -4.3689    0.4911    1.3634 O.3     1  UNL1       -0.4933
      3 C          -4.3369   -0.1313    0.1253 C.ar    1  UNL1        0.1412
      4 C          -5.4618   -0.5205   -0.5311 C.ar    1  UNL1       -0.0181
      5 C          -5.3761   -1.1309   -1.7510 C.ar    1  UNL1       -0.0582
      6 C          -4.1481   -1.3526   -2.3171 C.ar    1  UNL1       -0.0598
      7 C          -2.9719   -0.9600   -1.6592 C.ar    1  UNL1       -0.0369
      8 C          -3.0608   -0.3479   -0.4357 C.ar    1  UNL1        0.0746
      9 N          -1.9159    0.0619    0.2592 N.pl3   1  UNL1       -0.2965
     10 C          -0.5958   -0.0860   -0.1712 C.ar    1  UNL1        0.1249
     11 C           0.4077    0.4018    0.6945 C.ar    1  UNL1        0.0023
     12 C           1.7171    0.2675    0.2919 C.ar    1  UNL1        0.0516
     13 N           2.8861    0.6217    0.8748 N.ar    1  UNL1       -0.3539
     14 C           3.9348    0.2882    0.1033 C.ar    1  UNL1        0.0505
     15 C           5.3377    0.5276    0.4338 C.ar    1  UNL1        0.0355
     16 C           5.8339    1.1261    1.5724 C.ar    1  UNL1        0.0582
     17 N           7.1724    1.1324    1.4462 N.ar    1  UNL1       -0.1817
     18 N           7.5686    0.5924    0.3315 N.ar    1  UNL1       -0.2841
     19 C           6.4417    0.2036   -0.3247 C.ar    1  UNL1        0.0314
     20 C           3.4383   -0.3023   -1.0188 C.ar    1  UNL1       -0.0271
     21 C           2.0575   -0.3212   -0.9133 C.ar    1  UNL1        0.0185
     22 C           1.0477   -0.7870   -1.7347 C.ar    1  UNL1        0.0389
     23 N          -0.1982   -0.6370   -1.3074 N.ar    1  UNL1       -0.2395
     24 H          -6.3972    1.0606    1.3915 H       1  UNL1        0.0660
     25 H          -5.9053   -0.1084    2.6459 H       1  UNL1        0.0660
     26 H          -5.3850    1.6504    2.7207 H       1  UNL1        0.0660
     27 H          -6.4398   -0.3463   -0.0847 H       1  UNL1        0.0655
     28 H          -6.2565   -1.4591   -2.3115 H       1  UNL1        0.0619
     29 H          -4.0486   -1.8383   -3.2912 H       1  UNL1        0.0618
     30 H          -2.0438   -1.1714   -2.1741 H       1  UNL1        0.0637
     31 H          -2.1163    0.5294    1.2080 H       1  UNL1        0.1537
     32 H           0.1418    0.8578    1.6285 H       1  UNL1        0.0673
     33 H           2.9686    1.0971    1.8111 H       1  UNL1        0.1659
     34 H           5.2884    1.5210    2.4141 H       1  UNL1        0.0854
     35 H           8.5606    0.4907    0.0263 H       1  UNL1        0.1882
     36 H           6.4231   -0.2749   -1.2741 H       1  UNL1        0.0830
     37 H           4.0449   -0.6754   -1.8233 H       1  UNL1        0.0645
     38 H           1.3265   -1.2447   -2.6733 H       1  UNL1        0.0837
@<TRIPOS>BOND
     1     1     2    1
     2     2     3    1
     3     3     4   ar
     4     4     5   ar
     5     5     6   ar
     6     6     7   ar
     7     7     8   ar
     8     8     9    1
     9     9    10    1
    10    10    11   ar
    11    11    12   ar
    12    12    13   ar
    13    13    14   ar
    14    14    15    1
    15    15    16   ar
    16    16    17   ar
    17    17    18   ar
    18    18    19   ar
    19    14    20   ar
    20    20    21   ar
    21    21    22   ar
    22    22    23   ar
    23     8     3   ar
    24    23    10   ar
    25    21    12   ar
    26    19    15   ar
    27     1    24    1
    28     1    25    1
    29     1    26    1
    30     4    27    1
    31     5    28    1
    32     6    29    1
    33     7    30    1
    34     9    31    1
    35    11    32    1
    36    13    33    1
    37    16    34    1
    38    18    35    1
    39    19    36    1
    40    20    37    1
    41    22    38    1
