@<TRIPOS>MOLECULE
*****
 84 88 0 0 0
SMALL
GASTEIGER

@<TRIPOS>ATOM
      1 C          -4.9924   -1.5182    0.6647 C.3     1  UNL1       -0.0652
      2 C          -4.3043   -0.6624    1.6632 C.3     1  UNL1       -0.0541
      3 C          -2.8421   -0.4617    1.4870 C.3     1  UNL1       -0.0303
      4 C          -2.3654    0.2111    0.2543 C.3     1  UNL1        0.0746
      5 N          -2.7981    1.5643    0.0828 N.am    1  UNL1       -0.2901
      6 C          -3.9435    1.9102   -0.6519 C.2     1  UNL1        0.2490
      7 O          -4.6256    1.0179   -1.1624 O.2     1  UNL1       -0.2699
      8 C          -4.2938    3.3104   -0.7982 C.ar    1  UNL1        0.0666
      9 C          -3.7792    4.0622   -1.8533 C.ar    1  UNL1        0.0402
     10 N          -4.0523    5.3602   -2.0460 N.ar    1  UNL1       -0.2625
     11 C          -4.8636    6.0020   -1.1927 C.ar    1  UNL1        0.0281
     12 C          -5.4025    5.3132   -0.1316 C.ar    1  UNL1       -0.0312
     13 C          -5.1171    3.9528    0.0712 C.ar    1  UNL1        0.0698
     14 C          -5.7047    3.2130    1.2086 C.3     1  UNL1        0.4182
     15 F          -6.4879    2.1560    0.7976 F       1  UNL1       -0.1659
     16 F          -4.8031    2.9183    2.1839 F       1  UNL1       -0.1659
     17 F          -6.6204    4.0929    1.8152 F       1  UNL1       -0.1659
     18 C          -1.9952    2.6713    0.6616 C.3     1  UNL1        0.0156
     19 C          -0.5908    2.5470    0.0716 C.3     1  UNL1       -0.0330
     20 C          -0.5777    1.3714   -0.8790 C.3     1  UNL1       -0.0009
     21 C          -0.9203    0.0576   -0.0358 C.3     1  UNL1        0.2039
     22 O          -0.5837   -0.9260   -0.9950 O.3     1  UNL1       -0.4746
     23 C          -0.9641   -2.2493   -0.9736 C.ar    1  UNL1        0.1221
     24 C          -0.2637   -3.1893   -0.2799 C.ar    1  UNL1       -0.0194
     25 C          -0.6442   -4.5428   -0.2572 C.ar    1  UNL1       -0.0467
     26 C          -1.7614   -4.8894   -0.9675 C.ar    1  UNL1        0.0550
     27 C          -2.1882   -6.3270   -0.9584 C.3     1  UNL1        0.4174
     28 F          -1.7752   -6.9608    0.2042 F       1  UNL1       -0.1659
     29 F          -3.5573   -6.4220   -1.0262 F       1  UNL1       -0.1659
     30 F          -1.5745   -6.9670   -2.0130 F       1  UNL1       -0.1659
     31 C          -2.4772   -3.9510   -1.6716 C.ar    1  UNL1       -0.0467
     32 C          -2.0923   -2.6317   -1.6845 C.ar    1  UNL1       -0.0194
     33 C           0.0124    0.0434    1.0804 C.2     1  UNL1        0.2613
     34 O          -0.3976    0.4716    2.2126 O.2     1  UNL1       -0.2711
     35 N           1.3576   -0.3875    1.0750 N.am    1  UNL1       -0.2979
     36 C           2.1234   -0.4159    2.3459 C.3     1  UNL1        0.0181
     37 C           3.5181    0.0990    2.1182 C.3     1  UNL1        0.0002
     38 C           4.2494   -0.8528    1.1973 C.3     1  UNL1        0.1047
     39 O           4.9970   -0.2106    0.2277 O.3     1  UNL1       -0.4729
     40 C           6.3183   -0.2529   -0.0520 C.ar    1  UNL1        0.2157
     41 C           7.1867   -1.0286    0.6712 C.ar    1  UNL1        0.0000
     42 C           8.5475   -1.0358    0.3393 C.ar    1  UNL1       -0.0545
     43 C           8.9952   -0.2644   -0.7082 C.ar    1  UNL1       -0.0290
     44 CA          8.0910    0.5022   -1.4116 C.ar    1  UNL1        0.1512
     45 C           8.5712    1.3181   -2.5204 C.2     1  UNL1        0.3554
     46 O           7.7764    2.0376   -3.1938 O.2     1  UNL1       -0.2434
     47 OXT         9.9102    1.3348   -2.8751 O.3     1  UNL1       -0.4761
     48 N           6.8092    0.4804   -1.0642 N.ar    1  UNL1       -0.2063
     49 C           3.2298   -1.7265    0.4430 C.3     1  UNL1        0.0002
     50 C           2.1612   -0.7560   -0.0529 C.3     1  UNL1        0.0181
     51 H          -4.3941   -1.6308   -0.2408 H       1  UNL1        0.0230
     52 H          -6.0438   -1.2205    0.4657 H       1  UNL1        0.0230
     53 H          -5.0771   -2.5615    1.0882 H       1  UNL1        0.0230
     54 H          -4.4455   -1.1478    2.6815 H       1  UNL1        0.0263
     55 H          -4.8736    0.2874    1.7645 H       1  UNL1        0.0263
     56 H          -2.5640    0.2412    2.3479 H       1  UNL1        0.0284
     57 H          -2.2866   -1.3869    1.7372 H       1  UNL1        0.0284
     58 H          -2.8901   -0.3488   -0.6009 H       1  UNL1        0.0545
     59 H          -3.1142    3.5308   -2.5504 H       1  UNL1        0.0837
     60 H          -5.1140    7.0579   -1.3095 H       1  UNL1        0.0829
     61 H          -6.0709    5.8072    0.5863 H       1  UNL1        0.0638
     62 H          -1.9982    2.6418    1.7526 H       1  UNL1        0.0465
     63 H          -2.3780    3.6455    0.3344 H       1  UNL1        0.0465
     64 H          -0.2425    3.4479   -0.4334 H       1  UNL1        0.0282
     65 H           0.0972    2.3153    0.8992 H       1  UNL1        0.0282
     66 H          -1.4320    1.4591   -1.5593 H       1  UNL1        0.0310
     67 H           0.3333    1.2288   -1.4276 H       1  UNL1        0.0310
     68 H           0.6252   -2.9941    0.3148 H       1  UNL1        0.0654
     69 H          -0.0717   -5.2844    0.3033 H       1  UNL1        0.0624
     70 H          -3.3700   -4.2498   -2.2343 H       1  UNL1        0.0624
     71 H          -2.6900   -1.9222   -2.2746 H       1  UNL1        0.0654
     72 H           1.6151    0.3471    2.9895 H       1  UNL1        0.0466
     73 H           2.0703   -1.3824    2.8383 H       1  UNL1        0.0466
     74 H           3.5089    1.1262    1.7613 H       1  UNL1        0.0316
     75 H           4.0368    0.0927    3.0944 H       1  UNL1        0.0316
     76 H           4.9060   -1.4874    1.8157 H       1  UNL1        0.0734
     77 H           6.8869   -1.6584    1.5097 H       1  UNL1        0.0671
     78 H           9.2377   -1.6500    0.9117 H       1  UNL1        0.0620
     79 H          10.0422   -0.2558   -0.9808 H       1  UNL1        0.0641
     80 HXT        10.3077    2.1747   -3.2961 H       1  UNL1        0.2955
     81 H           3.7075   -2.2800   -0.3622 H       1  UNL1        0.0316
     82 H           2.7647   -2.3754    1.2078 H       1  UNL1        0.0316
     83 H           1.6629   -1.1069   -0.9409 H       1  UNL1        0.0466
     84 H           2.7590    0.1501   -0.3916 H       1  UNL1        0.0466
@<TRIPOS>BOND
     1     1     2    1
     2     2     3    1
     3     3     4    1
     4     4     5    1
     5     5     6   am
     6     6     7    2
     7     6     8    1
     8     8     9   ar
     9     9    10   ar
    10    10    11   ar
    11    11    12   ar
    12    12    13   ar
    13    13    14    1
    14    14    15    1
    15    14    16    1
    16    14    17    1
    17     5    18    1
    18    18    19    1
    19    19    20    1
    20    20    21    1
    21    21    22    1
    22    22    23    1
    23    23    24   ar
    24    24    25   ar
    25    25    26   ar
    26    26    27    1
    27    27    28    1
    28    27    29    1
    29    27    30    1
    30    26    31   ar
    31    31    32   ar
    32    21    33    1
    33    33    34    2
    34    33    35   am
    35    35    36    1
    36    36    37    1
    37    37    38    1
    38    38    39    1
    39    39    40    1
    40    40    41   ar
    41    41    42   ar
    42    42    43   ar
    43    43    44   ar
    44    44    45    1
    45    45    46    2
    46    45    47    1
    47    44    48   ar
    48    38    49    1
    49    49    50    1
    50    21     4    1
    51    32    23   ar
    52    50    35    1
    53    13     8   ar
    54    48    40   ar
    55     1    51    1
    56     1    52    1
    57     1    53    1
    58     2    54    1
    59     2    55    1
    60     3    56    1
    61     3    57    1
    62     4    58    1
    63     9    59    1
    64    11    60    1
    65    12    61    1
    66    18    62    1
    67    18    63    1
    68    19    64    1
    69    19    65    1
    70    20    66    1
    71    20    67    1
    72    24    68    1
    73    25    69    1
    74    31    70    1
    75    32    71    1
    76    36    72    1
    77    36    73    1
    78    37    74    1
    79    37    75    1
    80    38    76    1
    81    41    77    1
    82    42    78    1
    83    43    79    1
    84    47    80    1
    85    49    81    1
    86    49    82    1
    87    50    83    1
    88    50    84    1
