
     RDKit          3D

 84 88  0  0  0  0  0  0  0  0999 V2000
   -4.9924   -1.5182    0.6647 C   0  0  0  0  0  0  0  0  0  0  0  0
   -4.3043   -0.6624    1.6632 C   0  0  0  0  0  0  0  0  0  0  0  0
   -2.8421   -0.4617    1.4870 C   0  0  0  0  0  0  0  0  0  0  0  0
   -2.3654    0.2111    0.2543 C   0  0  1  0  0  0  0  0  0  0  0  0
   -2.7981    1.5643    0.0828 N   0  0  0  0  0  0  0  0  0  0  0  0
   -3.9435    1.9102   -0.6519 C   0  0  0  0  0  0  0  0  0  0  0  0
   -4.6256    1.0179   -1.1624 O   0  0  0  0  0  0  0  0  0  0  0  0
   -4.2938    3.3104   -0.7982 C   0  0  0  0  0  0  0  0  0  0  0  0
   -3.7792    4.0622   -1.8533 C   0  0  0  0  0  0  0  0  0  0  0  0
   -4.0523    5.3602   -2.0460 N   0  0  0  0  0  0  0  0  0  0  0  0
   -4.8636    6.0020   -1.1927 C   0  0  0  0  0  0  0  0  0  0  0  0
   -5.4025    5.3132   -0.1316 C   0  0  0  0  0  0  0  0  0  0  0  0
   -5.1171    3.9528    0.0712 C   0  0  0  0  0  0  0  0  0  0  0  0
   -5.7047    3.2130    1.2086 C   0  0  0  0  0  0  0  0  0  0  0  0
   -6.4879    2.1560    0.7976 F   0  0  0  0  0  0  0  0  0  0  0  0
   -4.8031    2.9183    2.1839 F   0  0  0  0  0  0  0  0  0  0  0  0
   -6.6204    4.0929    1.8152 F   0  0  0  0  0  0  0  0  0  0  0  0
   -1.9952    2.6713    0.6616 C   0  0  0  0  0  0  0  0  0  0  0  0
   -0.5908    2.5470    0.0716 C   0  0  0  0  0  0  0  0  0  0  0  0
   -0.5777    1.3714   -0.8790 C   0  0  0  0  0  0  0  0  0  0  0  0
   -0.9203    0.0576   -0.0358 C   0  0  2  0  0  0  0  0  0  0  0  0
   -0.5837   -0.9260   -0.9950 O   0  0  0  0  0  0  0  0  0  0  0  0
   -0.9641   -2.2493   -0.9736 C   0  0  0  0  0  0  0  0  0  0  0  0
   -0.2637   -3.1893   -0.2799 C   0  0  0  0  0  0  0  0  0  0  0  0
   -0.6442   -4.5428   -0.2572 C   0  0  0  0  0  0  0  0  0  0  0  0
   -1.7614   -4.8894   -0.9675 C   0  0  0  0  0  0  0  0  0  0  0  0
   -2.1882   -6.3270   -0.9584 C   0  0  0  0  0  0  0  0  0  0  0  0
   -1.7752   -6.9608    0.2042 F   0  0  0  0  0  0  0  0  0  0  0  0
   -3.5573   -6.4220   -1.0262 F   0  0  0  0  0  0  0  0  0  0  0  0
   -1.5745   -6.9670   -2.0130 F   0  0  0  0  0  0  0  0  0  0  0  0
   -2.4772   -3.9510   -1.6716 C   0  0  0  0  0  0  0  0  0  0  0  0
   -2.0923   -2.6317   -1.6845 C   0  0  0  0  0  0  0  0  0  0  0  0
    0.0124    0.0434    1.0804 C   0  0  0  0  0  0  0  0  0  0  0  0
   -0.3976    0.4716    2.2126 O   0  0  0  0  0  0  0  0  0  0  0  0
    1.3576   -0.3875    1.0750 N   0  0  0  0  0  0  0  0  0  0  0  0
    2.1234   -0.4159    2.3459 C   0  0  0  0  0  0  0  0  0  0  0  0
    3.5181    0.0990    2.1182 C   0  0  0  0  0  0  0  0  0  0  0  0
    4.2494   -0.8528    1.1973 C   0  0  0  0  0  0  0  0  0  0  0  0
    4.9970   -0.2106    0.2277 O   0  0  0  0  0  0  0  0  0  0  0  0
    6.3183   -0.2529   -0.0520 C   0  0  0  0  0  0  0  0  0  0  0  0
    7.1867   -1.0286    0.6712 C   0  0  0  0  0  0  0  0  0  0  0  0
    8.5475   -1.0358    0.3393 C   0  0  0  0  0  0  0  0  0  0  0  0
    8.9952   -0.2644   -0.7082 C   0  0  0  0  0  0  0  0  0  0  0  0
    8.0910    0.5022   -1.4116 C   0  0  0  0  0  0  0  0  0  0  0  0
    8.5712    1.3181   -2.5204 C   0  0  0  0  0  0  0  0  0  0  0  0
    7.7764    2.0376   -3.1938 O   0  0  0  0  0  0  0  0  0  0  0  0
    9.9102    1.3348   -2.8751 O   0  0  0  0  0  0  0  0  0  0  0  0
    6.8092    0.4804   -1.0642 N   0  0  0  0  0  0  0  0  0  0  0  0
    3.2298   -1.7265    0.4430 C   0  0  0  0  0  0  0  0  0  0  0  0
    2.1612   -0.7560   -0.0529 C   0  0  0  0  0  0  0  0  0  0  0  0
   -4.3941   -1.6308   -0.2408 H   0  0  0  0  0  0  0  0  0  0  0  0
   -6.0438   -1.2205    0.4657 H   0  0  0  0  0  0  0  0  0  0  0  0
   -5.0771   -2.5615    1.0882 H   0  0  0  0  0  0  0  0  0  0  0  0
   -4.4455   -1.1478    2.6815 H   0  0  0  0  0  0  0  0  0  0  0  0
   -4.8736    0.2874    1.7645 H   0  0  0  0  0  0  0  0  0  0  0  0
   -2.5640    0.2412    2.3479 H   0  0  0  0  0  0  0  0  0  0  0  0
   -2.2866   -1.3869    1.7372 H   0  0  0  0  0  0  0  0  0  0  0  0
   -2.8901   -0.3488   -0.6009 H   0  0  0  0  0  0  0  0  0  0  0  0
   -3.1142    3.5308   -2.5504 H   0  0  0  0  0  0  0  0  0  0  0  0
   -5.1140    7.0579   -1.3095 H   0  0  0  0  0  0  0  0  0  0  0  0
   -6.0709    5.8072    0.5863 H   0  0  0  0  0  0  0  0  0  0  0  0
   -1.9982    2.6418    1.7526 H   0  0  0  0  0  0  0  0  0  0  0  0
   -2.3780    3.6455    0.3344 H   0  0  0  0  0  0  0  0  0  0  0  0
   -0.2425    3.4479   -0.4334 H   0  0  0  0  0  0  0  0  0  0  0  0
    0.0972    2.3153    0.8992 H   0  0  0  0  0  0  0  0  0  0  0  0
   -1.4320    1.4591   -1.5593 H   0  0  0  0  0  0  0  0  0  0  0  0
    0.3333    1.2288   -1.4276 H   0  0  0  0  0  0  0  0  0  0  0  0
    0.6252   -2.9941    0.3148 H   0  0  0  0  0  0  0  0  0  0  0  0
   -0.0717   -5.2844    0.3033 H   0  0  0  0  0  0  0  0  0  0  0  0
   -3.3700   -4.2498   -2.2343 H   0  0  0  0  0  0  0  0  0  0  0  0
   -2.6900   -1.9222   -2.2746 H   0  0  0  0  0  0  0  0  0  0  0  0
    1.6151    0.3471    2.9895 H   0  0  0  0  0  0  0  0  0  0  0  0
    2.0703   -1.3824    2.8383 H   0  0  0  0  0  0  0  0  0  0  0  0
    3.5089    1.1262    1.7613 H   0  0  0  0  0  0  0  0  0  0  0  0
    4.0368    0.0927    3.0944 H   0  0  0  0  0  0  0  0  0  0  0  0
    4.9060   -1.4874    1.8157 H   0  0  0  0  0  0  0  0  0  0  0  0
    6.8869   -1.6584    1.5097 H   0  0  0  0  0  0  0  0  0  0  0  0
    9.2377   -1.6500    0.9117 H   0  0  0  0  0  0  0  0  0  0  0  0
   10.0422   -0.2558   -0.9808 H   0  0  0  0  0  0  0  0  0  0  0  0
   10.3077    2.1747   -3.2961 H   0  0  0  0  0  0  0  0  0  0  0  0
    3.7075   -2.2800   -0.3622 H   0  0  0  0  0  0  0  0  0  0  0  0
    2.7647   -2.3754    1.2078 H   0  0  0  0  0  0  0  0  0  0  0  0
    1.6629   -1.1069   -0.9409 H   0  0  0  0  0  0  0  0  0  0  0  0
    2.7590    0.1501   -0.3916 H   0  0  0  0  0  0  0  0  0  0  0  0
  1  2  1  0
  2  3  1  0
  3  4  1  0
  4  5  1  0
  5  6  1  0
  6  7  2  0
  6  8  1  0
  8  9  2  0
  9 10  1  0
 10 11  2  0
 11 12  1  0
 12 13  2  0
 13 14  1  0
 14 15  1  0
 14 16  1  0
 14 17  1  0
  5 18  1  0
 18 19  1  0
 19 20  1  0
 20 21  1  0
 21 22  1  6
 22 23  1  0
 23 24  2  0
 24 25  1  0
 25 26  2  0
 26 27  1  0
 27 28  1  0
 27 29  1  0
 27 30  1  0
 26 31  1  0
 31 32  2  0
 21 33  1  0
 33 34  2  0
 33 35  1  0
 35 36  1  0
 36 37  1  0
 37 38  1  0
 38 39  1  0
 39 40  1  0
 40 41  2  0
 41 42  1  0
 42 43  2  0
 43 44  1  0
 44 45  1  0
 45 46  2  0
 45 47  1  0
 44 48  2  0
 38 49  1  0
 49 50  1  0
 21  4  1  0
 32 23  1  0
 50 35  1  0
 13  8  1  0
 48 40  1  0
  1 51  1  0
  1 52  1  0
  1 53  1  0
  2 54  1  0
  2 55  1  0
  3 56  1  0
  3 57  1  0
  4 58  1  6
  9 59  1  0
 11 60  1  0
 12 61  1  0
 18 62  1  0
 18 63  1  0
 19 64  1  0
 19 65  1  0
 20 66  1  0
 20 67  1  0
 24 68  1  0
 25 69  1  0
 31 70  1  0
 32 71  1  0
 36 72  1  0
 36 73  1  0
 37 74  1  0
 37 75  1  0
 38 76  1  0
 41 77  1  0
 42 78  1  0
 43 79  1  0
 47 80  1  0
 49 81  1  0
 49 82  1  0
 50 83  1  0
 50 84  1  0
M  END
$$$$
