
     RDKit          3D

 44 44  0  0  0  0  0  0  0  0999 V2000
    0.5313    1.4392   -1.2969 C   0  0  0  0  0  0  0  0  0  0  0  0
    0.8174    0.0508   -0.9001 C   0  0  0  0  0  0  0  0  0  0  0  0
    2.0129   -0.5187   -1.0820 C   0  0  0  0  0  0  0  0  0  0  0  0
    3.2378   -0.0362   -1.6503 C   0  0  0  0  0  0  0  0  0  0  0  0
    3.2798    1.1461   -2.5224 C   0  0  0  0  0  0  0  0  0  0  0  0
    4.2761   -0.0542   -0.5704 C   0  0  0  0  0  0  0  0  0  0  0  0
    5.1350   -1.0540   -0.5528 C   0  0  0  0  0  0  0  0  0  0  0  0
    6.1886   -1.1785    0.4486 C   0  0  0  0  0  0  0  0  0  0  0  0
    6.9847   -2.1768    0.4012 O   0  0  0  0  0  0  0  0  0  0  0  0
    6.3320   -0.2042    1.4665 N   0  0  0  0  0  0  0  0  0  0  0  0
    7.3428   -0.3749    2.3817 O   0  0  0  0  0  0  0  0  0  0  0  0
   -0.1791   -0.7704   -0.2403 C   0  0  0  0  0  0  0  0  0  0  0  0
    0.2454   -1.9376    0.1673 O   0  0  0  0  0  0  0  0  0  0  0  0
   -1.5615   -0.4874    0.0299 C   0  0  0  0  0  0  0  0  0  0  0  0
   -2.3226    0.5302   -0.4616 C   0  0  0  0  0  0  0  0  0  0  0  0
   -3.6269    0.7558   -0.0841 C   0  0  0  0  0  0  0  0  0  0  0  0
   -4.2731   -0.0439    0.8323 C   0  0  0  0  0  0  0  0  0  0  0  0
   -5.6146    0.1985    1.2127 N   0  0  0  0  0  0  0  0  0  0  0  0
   -6.3212    1.3088    0.6254 C   0  0  0  0  0  0  0  0  0  0  0  0
   -6.2864   -0.6365    2.1697 C   0  0  0  0  0  0  0  0  0  0  0  0
   -3.5349   -1.0858    1.3501 C   0  0  0  0  0  0  0  0  0  0  0  0
   -2.2402   -1.3007    0.9694 C   0  0  0  0  0  0  0  0  0  0  0  0
   -0.1020    1.9847   -0.5211 H   0  0  0  0  0  0  0  0  0  0  0  0
    1.4952    2.0521   -1.1819 H   0  0  0  0  0  0  0  0  0  0  0  0
    0.0860    1.5994   -2.2651 H   0  0  0  0  0  0  0  0  0  0  0  0
    2.0911   -1.5861   -0.7180 H   0  0  0  0  0  0  0  0  0  0  0  0
    3.5981   -0.9038   -2.3497 H   0  0  0  0  0  0  0  0  0  0  0  0
    3.6054    2.1021   -2.0550 H   0  0  0  0  0  0  0  0  0  0  0  0
    4.1153    0.9809   -3.2969 H   0  0  0  0  0  0  0  0  0  0  0  0
    2.3794    1.2017   -3.1405 H   0  0  0  0  0  0  0  0  0  0  0  0
    4.2703    0.7452    0.1344 H   0  0  0  0  0  0  0  0  0  0  0  0
    5.0905   -1.8512   -1.3087 H   0  0  0  0  0  0  0  0  0  0  0  0
    5.7025    0.6140    1.5296 H   0  0  0  0  0  0  0  0  0  0  0  0
    8.0539   -0.9029    1.9638 H   0  0  0  0  0  0  0  0  0  0  0  0
   -1.9351    1.1803   -1.2102 H   0  0  0  0  0  0  0  0  0  0  0  0
   -4.1980    1.5863   -0.5045 H   0  0  0  0  0  0  0  0  0  0  0  0
   -5.8231    2.2532    0.9581 H   0  0  0  0  0  0  0  0  0  0  0  0
   -6.2840    1.2774   -0.4899 H   0  0  0  0  0  0  0  0  0  0  0  0
   -7.3763    1.3513    0.9742 H   0  0  0  0  0  0  0  0  0  0  0  0
   -5.6165   -0.9270    3.0252 H   0  0  0  0  0  0  0  0  0  0  0  0
   -6.7343   -1.5323    1.6929 H   0  0  0  0  0  0  0  0  0  0  0  0
   -7.1312   -0.0648    2.6018 H   0  0  0  0  0  0  0  0  0  0  0  0
   -4.0090   -1.7287    2.0658 H   0  0  0  0  0  0  0  0  0  0  0  0
   -1.7014   -2.1279    1.4021 H   0  0  0  0  0  0  0  0  0  0  0  0
  1  2  1  0
  2  3  2  3
  3  4  1  0
  4  5  1  0
  4  6  1  0
  6  7  2  3
  7  8  1  0
  8  9  2  0
  8 10  1  0
 10 11  1  0
  2 12  1  0
 12 13  2  0
 12 14  1  0
 14 15  2  0
 15 16  1  0
 16 17  2  0
 17 18  1  0
 18 19  1  0
 18 20  1  0
 17 21  1  0
 21 22  2  0
 22 14  1  0
  1 23  1  0
  1 24  1  0
  1 25  1  0
  3 26  1  0
  4 27  1  0
  5 28  1  0
  5 29  1  0
  5 30  1  0
  6 31  1  0
  7 32  1  0
 10 33  1  0
 11 34  1  0
 15 35  1  0
 16 36  1  0
 19 37  1  0
 19 38  1  0
 19 39  1  0
 20 40  1  0
 20 41  1  0
 20 42  1  0
 21 43  1  0
 22 44  1  0
M  END
$$$$
