@<TRIPOS>MOLECULE
*****
 44 44 0 0 0
SMALL
GASTEIGER

@<TRIPOS>ATOM
      1 C           0.5313    1.4392   -1.2969 C.3     1  UNL1       -0.0363
      2 C           0.8174    0.0508   -0.9001 C.2     1  UNL1       -0.0066
      3 C           2.0129   -0.5187   -1.0820 C.2     1  UNL1       -0.0709
      4 C           3.2378   -0.0362   -1.6503 C.3     1  UNL1       -0.0066
      5 C           3.2798    1.1461   -2.5224 C.3     1  UNL1       -0.0554
      6 C           4.2761   -0.0542   -0.5704 C.2     1  UNL1       -0.0725
      7 C           5.1350   -1.0540   -0.5528 C.2     1  UNL1       -0.0012
      8 C           6.1886   -1.1785    0.4486 C.2     1  UNL1        0.2591
      9 O           6.9847   -2.1768    0.4012 O.2     1  UNL1       -0.2688
     10 N           6.3320   -0.2042    1.4665 N.am    1  UNL1       -0.1940
     11 O           7.3428   -0.3749    2.3817 O.3     1  UNL1       -0.2949
     12 C          -0.1791   -0.7704   -0.2403 C.2     1  UNL1        0.1887
     13 O           0.2454   -1.9376    0.1673 O.2     1  UNL1       -0.2870
     14 C          -1.5615   -0.4874    0.0299 C.ar    1  UNL1        0.0220
     15 C          -2.3226    0.5302   -0.4616 C.ar    1  UNL1       -0.0492
     16 C          -3.6269    0.7558   -0.0841 C.ar    1  UNL1       -0.0400
     17 C          -4.2731   -0.0439    0.8323 C.ar    1  UNL1        0.0292
     18 N          -5.6146    0.1985    1.2127 N.pl3   1  UNL1       -0.3360
     19 C          -6.3212    1.3088    0.6254 C.3     1  UNL1        0.0004
     20 C          -6.2864   -0.6365    2.1697 C.3     1  UNL1        0.0004
     21 C          -3.5349   -1.0858    1.3501 C.ar    1  UNL1       -0.0400
     22 C          -2.2402   -1.3007    0.9694 C.ar    1  UNL1       -0.0492
     23 H          -0.1020    1.9847   -0.5211 H       1  UNL1        0.0279
     24 H           1.4952    2.0521   -1.1819 H       1  UNL1        0.0279
     25 H           0.0860    1.5994   -2.2651 H       1  UNL1        0.0279
     26 H           2.0911   -1.5861   -0.7180 H       1  UNL1        0.0582
     27 H           3.5981   -0.9038   -2.3497 H       1  UNL1        0.0383
     28 H           3.6054    2.1021   -2.0550 H       1  UNL1        0.0238
     29 H           4.1153    0.9809   -3.2969 H       1  UNL1        0.0238
     30 H           2.3794    1.2017   -3.1405 H       1  UNL1        0.0238
     31 H           4.2703    0.7452    0.1344 H       1  UNL1        0.0579
     32 H           5.0905   -1.8512   -1.3087 H       1  UNL1        0.0667
     33 H           5.7025    0.6140    1.5296 H       1  UNL1        0.1825
     34 H           8.0539   -0.9029    1.9638 H       1  UNL1        0.2414
     35 H          -1.9351    1.1803   -1.2102 H       1  UNL1        0.0625
     36 H          -4.1980    1.5863   -0.5045 H       1  UNL1        0.0636
     37 H          -5.8231    2.2532    0.9581 H       1  UNL1        0.0428
     38 H          -6.2840    1.2774   -0.4899 H       1  UNL1        0.0428
     39 H          -7.3763    1.3513    0.9742 H       1  UNL1        0.0428
     40 H          -5.6165   -0.9270    3.0252 H       1  UNL1        0.0428
     41 H          -6.7343   -1.5323    1.6929 H       1  UNL1        0.0428
     42 H          -7.1312   -0.0648    2.6018 H       1  UNL1        0.0428
     43 H          -4.0090   -1.7287    2.0658 H       1  UNL1        0.0636
     44 H          -1.7014   -2.1279    1.4021 H       1  UNL1        0.0625
@<TRIPOS>BOND
     1     1     2    1
     2     2     3    2
     3     3     4    1
     4     4     5    1
     5     4     6    1
     6     6     7    2
     7     7     8    1
     8     8     9    2
     9     8    10   am
    10    10    11    1
    11     2    12    1
    12    12    13    2
    13    12    14    1
    14    14    15   ar
    15    15    16   ar
    16    16    17   ar
    17    17    18    1
    18    18    19    1
    19    18    20    1
    20    17    21   ar
    21    21    22   ar
    22    22    14   ar
    23     1    23    1
    24     1    24    1
    25     1    25    1
    26     3    26    1
    27     4    27    1
    28     5    28    1
    29     5    29    1
    30     5    30    1
    31     6    31    1
    32     7    32    1
    33    10    33    1
    34    11    34    1
    35    15    35    1
    36    16    36    1
    37    19    37    1
    38    19    38    1
    39    19    39    1
    40    20    40    1
    41    20    41    1
    42    20    42    1
    43    21    43    1
    44    22    44    1
