@<TRIPOS>MOLECULE
*****
 48 48 0 0 0
SMALL
GASTEIGER

@<TRIPOS>ATOM
      1 O           5.5407   -0.4781   -1.9169 O.3     1  UNL1       -0.3874
      2 C           5.7773   -1.8298   -1.6863 C.3     1  UNL1        0.1046
      3 C           4.9890   -2.2746   -0.5043 C.2     1  UNL1        0.1844
      4 O           5.2085   -3.4655   -0.3153 O.2     1  UNL1       -0.2925
      5 C           4.0719   -1.4612    0.3464 C.3     1  UNL1        0.1194
      6 O           3.9937   -0.1536   -0.0692 O.3     1  UNL1       -0.2789
      7 P           2.9560    0.7771    0.8888 P.3     1  UNL1        0.4757
      8 O           3.7884    1.0664    2.3542 O.3     1  UNL1       -0.3025
      9 O           2.7417    2.0749    0.1436 O.2     1  UNL1       -0.2273
     10 O           1.5353   -0.0067    1.2742 O.3     1  UNL1       -0.2780
     11 C           0.3999    0.5986    0.7399 C.3     1  UNL1        0.1266
     12 C          -0.5953    0.9588    1.8085 C.3     1  UNL1        0.1127
     13 O          -1.0925   -0.1892    2.3818 O.3     1  UNL1       -0.3865
     14 C          -1.6667    1.7967    1.1483 C.3     1  UNL1        0.1127
     15 O          -2.6612    2.0011    2.1096 O.3     1  UNL1       -0.3865
     16 C          -2.1785    1.2362   -0.1374 C.3     1  UNL1        0.1274
     17 O          -2.0030    2.0600   -1.2399 O.3     1  UNL1       -0.2781
     18 P          -3.5003    2.5694   -1.8765 P.3     1  UNL1        0.4728
     19 O          -4.1013    1.4748   -2.9989 O.3     1  UNL1       -0.3026
     20 O          -4.5535    2.6739   -0.5491 O.3     1  UNL1       -0.3026
     21 O          -3.2800    3.9114   -2.4985 O.2     1  UNL1       -0.2275
     22 C          -1.7064   -0.1568   -0.4362 C.3     1  UNL1        0.1275
     23 O          -2.4853   -1.0425    0.3064 O.3     1  UNL1       -0.2781
     24 P          -3.3727   -2.0228   -0.7336 P.3     1  UNL1        0.4728
     25 O          -4.9814   -2.1556   -0.1822 O.3     1  UNL1       -0.3026
     26 O          -2.7081   -3.5900   -0.8435 O.3     1  UNL1       -0.3026
     27 O          -3.3976   -1.4115   -2.1118 O.2     1  UNL1       -0.2275
     28 C          -0.2363   -0.3603   -0.2117 C.3     1  UNL1        0.1135
     29 O           0.4632   -0.3889   -1.4367 O.3     1  UNL1       -0.3864
     30 H           6.1391    0.0875   -1.3614 H       1  UNL1        0.2100
     31 H           6.8402   -1.9653   -1.4767 H       1  UNL1        0.0637
     32 H           5.5278   -2.4447   -2.5713 H       1  UNL1        0.0637
     33 H           3.0572   -1.8989    0.2188 H       1  UNL1        0.0646
     34 H           4.4185   -1.5706    1.3957 H       1  UNL1        0.0646
     35 H           3.8442    0.1674    2.8053 H       1  UNL1        0.2220
     36 H           0.7028    1.5080    0.1500 H       1  UNL1        0.0655
     37 H          -0.1704    1.5676    2.6297 H       1  UNL1        0.0647
     38 H          -0.5087   -0.5071    3.1110 H       1  UNL1        0.2100
     39 H          -1.2034    2.7888    0.9109 H       1  UNL1        0.0647
     40 H          -2.6131    2.8753    2.5395 H       1  UNL1        0.2100
     41 H          -3.2994    1.1639   -0.0095 H       1  UNL1        0.0656
     42 H          -5.0151    1.1959   -2.7552 H       1  UNL1        0.2220
     43 H          -4.3607    3.4548    0.0105 H       1  UNL1        0.2220
     44 H          -1.9020   -0.3603   -1.5086 H       1  UNL1        0.0656
     45 H          -4.9574   -2.1123    0.8158 H       1  UNL1        0.2220
     46 H          -3.1848   -4.1766   -0.1732 H       1  UNL1        0.2220
     47 H          -0.1054   -1.3835    0.1992 H       1  UNL1        0.0647
     48 H          -0.1548   -0.6017   -2.1800 H       1  UNL1        0.2100
@<TRIPOS>BOND
     1     1     2    1
     2     2     3    1
     3     3     4    2
     4     3     5    1
     5     5     6    1
     6     6     7    1
     7     7     8    1
     8     7     9    2
     9     7    10    1
    10    10    11    1
    11    11    12    1
    12    12    13    1
    13    12    14    1
    14    14    15    1
    15    14    16    1
    16    16    17    1
    17    17    18    1
    18    18    19    1
    19    18    20    1
    20    18    21    2
    21    16    22    1
    22    22    23    1
    23    23    24    1
    24    24    25    1
    25    24    26    1
    26    24    27    2
    27    22    28    1
    28    28    29    1
    29    28    11    1
    30     1    30    1
    31     2    31    1
    32     2    32    1
    33     5    33    1
    34     5    34    1
    35     8    35    1
    36    11    36    1
    37    12    37    1
    38    13    38    1
    39    14    39    1
    40    15    40    1
    41    16    41    1
    42    19    42    1
    43    20    43    1
    44    22    44    1
    45    25    45    1
    46    26    46    1
    47    28    47    1
    48    29    48    1
