@<TRIPOS>MOLECULE
*****
 46 47 0 0 0
SMALL
GASTEIGER

@<TRIPOS>ATOM
      1 C          -5.6858    0.3139   -0.4771 C.3     1  UNL1       -0.0473
      2 C          -4.2760   -0.3410   -0.3607 C.3     1  UNL1        0.0108
      3 C          -3.6320    0.0576   -1.6885 C.3     1  UNL1       -0.0473
      4 C          -4.5197   -1.7887   -0.3474 C.3     1  UNL1       -0.0473
      5 N          -3.6593    0.2989    0.6950 N.3     1  UNL1       -0.3088
      6 C          -2.5185   -0.0927    1.3673 C.3     1  UNL1        0.0256
      7 C          -1.1996   -0.0660    0.6321 C.3     1  UNL1        0.1015
      8 O          -1.1573   -0.9262   -0.4684 O.3     1  UNL1       -0.3872
      9 C          -0.0690   -0.5387    1.5324 C.3     1  UNL1        0.1166
     10 O           1.1655   -0.4886    0.9609 O.3     1  UNL1       -0.4891
     11 C           1.8300    0.6120    0.5307 C.ar    1  UNL1        0.1244
     12 C           1.6420    1.9676    0.4774 C.ar    1  UNL1       -0.0196
     13 C           2.5007    2.9081   -0.0271 C.ar    1  UNL1       -0.0576
     14 C           3.6899    2.4356   -0.5388 C.ar    1  UNL1       -0.0508
     15 C           3.9785    1.0855   -0.5324 C.ar    1  UNL1        0.0240
     16 C           3.0579    0.1788   -0.0028 C.ar    1  UNL1        0.0047
     17 C           3.5961   -1.2092   -0.1097 C.3     1  UNL1       -0.0232
     18 C           5.0062   -1.2258    0.4425 C.3     1  UNL1       -0.0419
     19 C           5.9602   -0.5229   -0.4807 C.3     1  UNL1        0.0108
     20 C           5.2684    0.6415   -1.0900 C.2     1  UNL1        0.1635
     21 O           5.6809    1.3166   -2.0694 O.2     1  UNL1       -0.2920
     22 H          -6.3340   -0.0683    0.3156 H       1  UNL1        0.0247
     23 H          -6.0547    0.0003   -1.4884 H       1  UNL1        0.0247
     24 H          -5.5900    1.4187   -0.5129 H       1  UNL1        0.0247
     25 H          -3.1749   -0.7964   -2.2195 H       1  UNL1        0.0247
     26 H          -4.3800    0.5683   -2.3750 H       1  UNL1        0.0247
     27 H          -2.9009    0.8574   -1.4751 H       1  UNL1        0.0247
     28 H          -5.3039   -2.1148    0.3724 H       1  UNL1        0.0247
     29 H          -3.6569   -2.4573   -0.2286 H       1  UNL1        0.0247
     30 H          -4.9599   -2.0641   -1.3514 H       1  UNL1        0.0247
     31 H          -4.1261    1.1790    1.0427 H       1  UNL1        0.1225
     32 H          -2.3676    0.6730    2.2005 H       1  UNL1        0.0451
     33 H          -2.6134   -1.0356    1.9780 H       1  UNL1        0.0451
     34 H          -1.0389    0.9518    0.2288 H       1  UNL1        0.0640
     35 H          -0.9683   -1.8597   -0.2444 H       1  UNL1        0.2100
     36 H          -0.3782   -1.5623    1.8664 H       1  UNL1        0.0723
     37 H          -0.1485    0.1026    2.4563 H       1  UNL1        0.0723
     38 H           0.7055    2.2525    0.9094 H       1  UNL1        0.0654
     39 H           2.1594    3.9315    0.0260 H       1  UNL1        0.0619
     40 H           4.3633    3.1834   -0.9359 H       1  UNL1        0.0625
     41 H           2.9887   -1.8929    0.5123 H       1  UNL1        0.0315
     42 H           3.6268   -1.5540   -1.1637 H       1  UNL1        0.0315
     43 H           5.0356   -0.7061    1.4272 H       1  UNL1        0.0273
     44 H           5.3459   -2.2692    0.5847 H       1  UNL1        0.0273
     45 H           6.7968   -0.1248    0.1303 H       1  UNL1        0.0345
     46 H           6.3149   -1.2291   -1.2533 H       1  UNL1        0.0345
@<TRIPOS>BOND
     1     1     2    1
     2     2     3    1
     3     2     4    1
     4     2     5    1
     5     5     6    1
     6     6     7    1
     7     7     8    1
     8     7     9    1
     9     9    10    1
    10    10    11    1
    11    11    12   ar
    12    12    13   ar
    13    13    14   ar
    14    14    15   ar
    15    15    16   ar
    16    16    17    1
    17    17    18    1
    18    18    19    1
    19    19    20    1
    20    20    21    2
    21    16    11   ar
    22    20    15    1
    23     1    22    1
    24     1    23    1
    25     1    24    1
    26     3    25    1
    27     3    26    1
    28     3    27    1
    29     4    28    1
    30     4    29    1
    31     4    30    1
    32     5    31    1
    33     6    32    1
    34     6    33    1
    35     7    34    1
    36     8    35    1
    37     9    36    1
    38     9    37    1
    39    12    38    1
    40    13    39    1
    41    14    40    1
    42    17    41    1
    43    17    42    1
    44    18    43    1
    45    18    44    1
    46    19    45    1
    47    19    46    1
