
     RDKit          3D

 46 47  0  0  0  0  0  0  0  0999 V2000
   -5.6858    0.3139   -0.4771 C   0  0  0  0  0  0  0  0  0  0  0  0
   -4.2760   -0.3410   -0.3607 C   0  0  0  0  0  0  0  0  0  0  0  0
   -3.6320    0.0576   -1.6885 C   0  0  0  0  0  0  0  0  0  0  0  0
   -4.5197   -1.7887   -0.3474 C   0  0  0  0  0  0  0  0  0  0  0  0
   -3.6593    0.2989    0.6950 N   0  0  0  0  0  0  0  0  0  0  0  0
   -2.5185   -0.0927    1.3673 C   0  0  0  0  0  0  0  0  0  0  0  0
   -1.1996   -0.0660    0.6321 C   0  0  2  0  0  0  0  0  0  0  0  0
   -1.1573   -0.9262   -0.4684 O   0  0  0  0  0  0  0  0  0  0  0  0
   -0.0690   -0.5387    1.5324 C   0  0  0  0  0  0  0  0  0  0  0  0
    1.1655   -0.4886    0.9609 O   0  0  0  0  0  0  0  0  0  0  0  0
    1.8300    0.6120    0.5307 C   0  0  0  0  0  0  0  0  0  0  0  0
    1.6420    1.9676    0.4774 C   0  0  0  0  0  0  0  0  0  0  0  0
    2.5007    2.9081   -0.0271 C   0  0  0  0  0  0  0  0  0  0  0  0
    3.6899    2.4356   -0.5388 C   0  0  0  0  0  0  0  0  0  0  0  0
    3.9785    1.0855   -0.5324 C   0  0  0  0  0  0  0  0  0  0  0  0
    3.0579    0.1788   -0.0028 C   0  0  0  0  0  0  0  0  0  0  0  0
    3.5961   -1.2092   -0.1097 C   0  0  0  0  0  0  0  0  0  0  0  0
    5.0062   -1.2258    0.4425 C   0  0  0  0  0  0  0  0  0  0  0  0
    5.9602   -0.5229   -0.4807 C   0  0  0  0  0  0  0  0  0  0  0  0
    5.2684    0.6415   -1.0900 C   0  0  0  0  0  0  0  0  0  0  0  0
    5.6809    1.3166   -2.0694 O   0  0  0  0  0  0  0  0  0  0  0  0
   -6.3340   -0.0683    0.3156 H   0  0  0  0  0  0  0  0  0  0  0  0
   -6.0547    0.0003   -1.4884 H   0  0  0  0  0  0  0  0  0  0  0  0
   -5.5900    1.4187   -0.5129 H   0  0  0  0  0  0  0  0  0  0  0  0
   -3.1749   -0.7964   -2.2195 H   0  0  0  0  0  0  0  0  0  0  0  0
   -4.3800    0.5683   -2.3750 H   0  0  0  0  0  0  0  0  0  0  0  0
   -2.9009    0.8574   -1.4751 H   0  0  0  0  0  0  0  0  0  0  0  0
   -5.3039   -2.1148    0.3724 H   0  0  0  0  0  0  0  0  0  0  0  0
   -3.6569   -2.4573   -0.2286 H   0  0  0  0  0  0  0  0  0  0  0  0
   -4.9599   -2.0641   -1.3514 H   0  0  0  0  0  0  0  0  0  0  0  0
   -4.1261    1.1790    1.0427 H   0  0  0  0  0  0  0  0  0  0  0  0
   -2.3676    0.6730    2.2005 H   0  0  0  0  0  0  0  0  0  0  0  0
   -2.6134   -1.0356    1.9780 H   0  0  0  0  0  0  0  0  0  0  0  0
   -1.0389    0.9518    0.2288 H   0  0  0  0  0  0  0  0  0  0  0  0
   -0.9683   -1.8597   -0.2444 H   0  0  0  0  0  0  0  0  0  0  0  0
   -0.3782   -1.5623    1.8664 H   0  0  0  0  0  0  0  0  0  0  0  0
   -0.1485    0.1026    2.4563 H   0  0  0  0  0  0  0  0  0  0  0  0
    0.7055    2.2525    0.9094 H   0  0  0  0  0  0  0  0  0  0  0  0
    2.1594    3.9315    0.0260 H   0  0  0  0  0  0  0  0  0  0  0  0
    4.3633    3.1834   -0.9359 H   0  0  0  0  0  0  0  0  0  0  0  0
    2.9887   -1.8929    0.5123 H   0  0  0  0  0  0  0  0  0  0  0  0
    3.6268   -1.5540   -1.1637 H   0  0  0  0  0  0  0  0  0  0  0  0
    5.0356   -0.7061    1.4272 H   0  0  0  0  0  0  0  0  0  0  0  0
    5.3459   -2.2692    0.5847 H   0  0  0  0  0  0  0  0  0  0  0  0
    6.7968   -0.1248    0.1303 H   0  0  0  0  0  0  0  0  0  0  0  0
    6.3149   -1.2291   -1.2533 H   0  0  0  0  0  0  0  0  0  0  0  0
  1  2  1  0
  2  3  1  0
  2  4  1  0
  2  5  1  0
  5  6  1  0
  6  7  1  0
  7  8  1  0
  7  9  1  0
  9 10  1  0
 10 11  1  0
 11 12  2  0
 12 13  1  0
 13 14  2  0
 14 15  1  0
 15 16  2  0
 16 17  1  0
 17 18  1  0
 18 19  1  0
 19 20  1  0
 20 21  2  0
 16 11  1  0
 20 15  1  0
  1 22  1  0
  1 23  1  0
  1 24  1  0
  3 25  1  0
  3 26  1  0
  3 27  1  0
  4 28  1  0
  4 29  1  0
  4 30  1  0
  5 31  1  0
  6 32  1  0
  6 33  1  0
  7 34  1  6
  8 35  1  0
  9 36  1  0
  9 37  1  0
 12 38  1  0
 13 39  1  0
 14 40  1  0
 17 41  1  0
 17 42  1  0
 18 43  1  0
 18 44  1  0
 19 45  1  0
 19 46  1  0
M  END
$$$$
