@<TRIPOS>MOLECULE
*****
 50 53 0 0 0
SMALL
GASTEIGER

@<TRIPOS>ATOM
      1 C          -7.3068   -1.2936    0.7765 C.3     1  UNL1        0.0124
      2 C          -5.9167   -1.1692    1.2821 C.2     1  UNL1        0.2128
      3 O          -5.4211   -1.9457    2.1296 O.2     1  UNL1       -0.2759
      4 N          -5.1079   -0.1184    0.7809 N.am    1  UNL1       -0.2968
      5 C          -5.6006    0.8346   -0.2062 C.3     1  UNL1        0.0204
      6 C          -4.8883    0.5380   -1.5039 C.3     1  UNL1        0.0055
      7 C          -3.4266    0.4180   -1.2371 C.ar    1  UNL1        0.0469
      8 C          -2.9012    0.2035    0.0126 C.ar    1  UNL1        0.0324
      9 C          -1.4995    0.1427   -0.1061 C.ar    1  UNL1        0.1498
     10 N          -0.5965   -0.0686    0.9533 N.pl3   1  UNL1       -0.2978
     11 C           0.8072   -0.1143    0.8011 C.ar    1  UNL1        0.0325
     12 C           1.4765    0.1672   -0.3671 C.ar    1  UNL1       -0.0399
     13 C           2.8698    0.1064   -0.4905 C.ar    1  UNL1       -0.0523
     14 C           3.6236   -0.2486    0.5934 C.ar    1  UNL1       -0.0177
     15 C           5.0862   -0.3090    0.4468 C.ar    1  UNL1       -0.0143
     16 C           5.8272   -1.2146    1.1953 C.ar    1  UNL1       -0.0538
     17 C           7.1978   -1.2748    1.0611 C.ar    1  UNL1       -0.0576
     18 C           7.8427   -0.4279    0.1750 C.ar    1  UNL1       -0.0160
     19 C           7.1146    0.4722   -0.5701 C.ar    1  UNL1        0.1663
     20 O           7.7780    1.3369   -1.4758 O.3     1  UNL1       -0.3382
     21 O           8.2636    2.4777   -0.9868 O.3     1  UNL1       -0.2015
     22 C           5.7577    0.5147   -0.4212 C.ar    1  UNL1       -0.0083
     23 C           2.9604   -0.5309    1.7638 C.ar    1  UNL1       -0.0523
     24 C           1.6055   -0.4761    1.8988 C.ar    1  UNL1       -0.0399
     25 N          -1.3111    0.3271   -1.4218 N.ar    1  UNL1       -0.1557
     26 N          -2.4044    0.4874   -2.0918 N.ar    1  UNL1       -0.2692
     27 C          -2.4397    0.7041   -3.5384 C.3     1  UNL1        0.0306
     28 C          -3.7360    0.0706    1.2211 C.3     1  UNL1        0.0447
     29 H          -7.6706   -2.3297    0.9949 H       1  UNL1        0.0323
     30 H          -7.9750   -0.5785    1.2891 H       1  UNL1        0.0323
     31 H          -7.3492   -1.1548   -0.3200 H       1  UNL1        0.0323
     32 H          -6.6855    0.7735   -0.2823 H       1  UNL1        0.0468
     33 H          -5.3230    1.8598    0.1586 H       1  UNL1        0.0468
     34 H          -5.2428   -0.4406   -1.8769 H       1  UNL1        0.0343
     35 H          -5.0700    1.3500   -2.2448 H       1  UNL1        0.0343
     36 H          -0.9824   -0.2003    1.9161 H       1  UNL1        0.1536
     37 H           0.9107    0.4547   -1.2383 H       1  UNL1        0.0636
     38 H           3.3548    0.3326   -1.4173 H       1  UNL1        0.0624
     39 H           5.3260   -1.8731    1.8841 H       1  UNL1        0.0624
     40 H           7.8056   -1.9593    1.6204 H       1  UNL1        0.0619
     41 H           8.9232   -0.4645    0.0593 H       1  UNL1        0.0655
     42 H           8.7475    2.3552   -0.1301 H       1  UNL1        0.2674
     43 H           5.1813    1.2377   -1.0206 H       1  UNL1        0.0661
     44 H           3.5817   -0.8155    2.6284 H       1  UNL1        0.0624
     45 H           1.1176   -0.7038    2.8316 H       1  UNL1        0.0636
     46 H          -1.6192    0.1543   -4.0426 H       1  UNL1        0.0473
     47 H          -3.4138    0.3665   -3.9206 H       1  UNL1        0.0473
     48 H          -2.2460    1.7942   -3.7457 H       1  UNL1        0.0473
     49 H          -3.6726    1.0275    1.7837 H       1  UNL1        0.0515
     50 H          -3.3526   -0.7954    1.8019 H       1  UNL1        0.0515
@<TRIPOS>BOND
     1     1     2    1
     2     2     3    2
     3     2     4   am
     4     4     5    1
     5     5     6    1
     6     6     7    1
     7     7     8   ar
     8     8     9   ar
     9     9    10    1
    10    10    11    1
    11    11    12   ar
    12    12    13   ar
    13    13    14   ar
    14    14    15    1
    15    15    16   ar
    16    16    17   ar
    17    17    18   ar
    18    18    19   ar
    19    19    20    1
    20    20    21    1
    21    19    22   ar
    22    14    23   ar
    23    23    24   ar
    24     9    25   ar
    25    25    26   ar
    26    26    27    1
    27     8    28    1
    28    28     4    1
    29    26     7   ar
    30    24    11   ar
    31    22    15   ar
    32     1    29    1
    33     1    30    1
    34     1    31    1
    35     5    32    1
    36     5    33    1
    37     6    34    1
    38     6    35    1
    39    10    36    1
    40    12    37    1
    41    13    38    1
    42    16    39    1
    43    17    40    1
    44    18    41    1
    45    21    42    1
    46    22    43    1
    47    23    44    1
    48    24    45    1
    49    27    46    1
    50    27    47    1
    51    27    48    1
    52    28    49    1
    53    28    50    1
