@<TRIPOS>MOLECULE
*****
 57 60 0 0 0
SMALL
GASTEIGER

@<TRIPOS>ATOM
      1 C           1.3088   -3.9860   -1.1407 C.3     1  UNL1       -0.0511
      2 C           0.9569   -2.5890   -0.7734 C.3     1  UNL1        0.0489
      3 C           1.6413   -2.1356    0.5108 C.3     1  UNL1       -0.0511
      4 C          -0.4958   -2.3780   -0.5424 C.2     1  UNL1        0.2221
      5 O          -1.4009   -3.2066   -0.2650 O.2     1  UNL1       -0.2750
      6 N          -0.7150   -0.9865   -0.6967 N.am    1  UNL1       -0.2948
      7 C          -1.7675   -0.1523   -0.1675 C.3     1  UNL1        0.0375
      8 C          -1.7935   -0.1602    1.3511 C.3     1  UNL1       -0.0305
      9 C          -2.5158    1.1159    1.7856 C.3     1  UNL1       -0.0371
     10 C          -3.6380    1.3182    0.7780 C.3     1  UNL1        0.0470
     11 C          -4.6744    2.1767    1.3843 C.2     1  UNL1        0.2167
     12 N          -4.3387    3.4844    1.8106 N.am    1  UNL1       -0.3289
     13 O          -5.8568    1.7452    1.5220 O.2     1  UNL1       -0.2754
     14 C          -3.0054    1.9590   -0.4460 C.3     1  UNL1       -0.0371
     15 C          -1.6480    1.2704   -0.6251 C.3     1  UNL1       -0.0305
     16 C          -4.1454   -0.0274    0.3787 C.3     1  UNL1       -0.0371
     17 C          -3.1458   -0.6409   -0.6114 C.3     1  UNL1       -0.0305
     18 C           0.3749   -0.4437   -1.5446 C.3     1  UNL1        0.0221
     19 C           1.2075   -1.5953   -1.8987 C.3     1  UNL1        0.0224
     20 C           2.6292   -1.4398   -2.2446 C.3     1  UNL1        0.0964
     21 O           3.5613   -1.0437   -1.3835 O.3     1  UNL1       -0.4760
     22 C           3.9112    0.0078   -0.6221 C.ar    1  UNL1        0.2147
     23 C           5.0735   -0.0649    0.1911 C.ar    1  UNL1        0.0012
     24 C           5.4966    0.9528    0.9862 C.ar    1  UNL1       -0.0379
     25 C           4.7880    2.1322    1.0330 C.ar    1  UNL1        0.0701
     26 C           5.1879    3.2398    1.8530 C.1     1  UNL1        0.1007
     27 N           5.5224    4.1259    2.4968 N.1     1  UNL1       -0.1908
     28 C           3.6571    2.1938    0.2369 C.ar    1  UNL1        0.0487
     29 N           3.2697    1.1766   -0.5317 N.ar    1  UNL1       -0.2200
     30 H           1.1099   -4.1795   -2.1977 H       1  UNL1        0.0240
     31 H           0.7655   -4.6884   -0.4556 H       1  UNL1        0.0240
     32 H           2.4144   -4.1122   -0.9484 H       1  UNL1        0.0240
     33 H           1.4371   -1.0686    0.6186 H       1  UNL1        0.0240
     34 H           2.6894   -2.4239    0.5497 H       1  UNL1        0.0240
     35 H           1.1079   -2.6668    1.3407 H       1  UNL1        0.0240
     36 H          -0.7652   -0.0960    1.7747 H       1  UNL1        0.0286
     37 H          -2.3238   -1.0512    1.7127 H       1  UNL1        0.0286
     38 H          -1.7804    1.9367    1.7750 H       1  UNL1        0.0276
     39 H          -2.9082    1.0405    2.8193 H       1  UNL1        0.0276
     40 H          -5.0422    4.2392    1.9354 H       1  UNL1        0.1449
     41 H          -3.3449    3.7123    2.0115 H       1  UNL1        0.1449
     42 H          -2.9029    3.0299   -0.2386 H       1  UNL1        0.0276
     43 H          -3.6754    1.7475   -1.3044 H       1  UNL1        0.0276
     44 H          -1.4252    1.3134   -1.7105 H       1  UNL1        0.0286
     45 H          -0.8715    1.8523   -0.0921 H       1  UNL1        0.0286
     46 H          -5.1299    0.1089   -0.1074 H       1  UNL1        0.0276
     47 H          -4.2785   -0.7173    1.2402 H       1  UNL1        0.0276
     48 H          -3.4187   -0.2808   -1.6089 H       1  UNL1        0.0286
     49 H          -3.2085   -1.7438   -0.4907 H       1  UNL1        0.0286
     50 H          -0.1512   -0.1048   -2.4965 H       1  UNL1        0.0469
     51 H           0.8148    0.4069   -1.0470 H       1  UNL1        0.0469
     52 H           0.7316   -2.1287   -2.7950 H       1  UNL1        0.0359
     53 H           2.9430   -2.4353   -2.7166 H       1  UNL1        0.0700
     54 H           2.6464   -0.7717   -3.1776 H       1  UNL1        0.0700
     55 H           5.6221   -1.0038    0.1423 H       1  UNL1        0.0671
     56 H           6.3960    0.8911    1.6141 H       1  UNL1        0.0632
     57 H           3.1031    3.1454    0.2883 H       1  UNL1        0.0844
@<TRIPOS>BOND
     1     1     2    1
     2     2     3    1
     3     2     4    1
     4     4     5    2
     5     4     6   am
     6     6     7    1
     7     7     8    1
     8     8     9    1
     9     9    10    1
    10    10    11    1
    11    11    12   am
    12    11    13    2
    13    10    14    1
    14    14    15    1
    15    10    16    1
    16    16    17    1
    17     6    18    1
    18    18    19    1
    19    19    20    1
    20    20    21    1
    21    21    22    1
    22    22    23   ar
    23    23    24   ar
    24    24    25   ar
    25    25    26    1
    26    26    27    3
    27    25    28   ar
    28    28    29   ar
    29    19     2    1
    30    29    22   ar
    31    15     7    1
    32    17     7    1
    33     1    30    1
    34     1    31    1
    35     1    32    1
    36     3    33    1
    37     3    34    1
    38     3    35    1
    39     8    36    1
    40     8    37    1
    41     9    38    1
    42     9    39    1
    43    12    40    1
    44    12    41    1
    45    14    42    1
    46    14    43    1
    47    15    44    1
    48    15    45    1
    49    16    46    1
    50    16    47    1
    51    17    48    1
    52    17    49    1
    53    18    50    1
    54    18    51    1
    55    19    52    1
    56    20    53    1
    57    20    54    1
    58    23    55    1
    59    24    56    1
    60    28    57    1
