@<TRIPOS>MOLECULE
*****
 51 54 0 0 0
SMALL
GASTEIGER

@<TRIPOS>ATOM
      1 O           2.0053    0.0081    1.0560 O.3     1  UNL1       -0.3872
      2 C           2.7160   -0.4639    0.0008 C.3     1  UNL1        0.0802
      3 C           2.3456    0.0147   -1.3448 C.3     1  UNL1       -0.0219
      4 C           0.9619   -0.3201   -1.7348 C.3     1  UNL1       -0.0372
      5 C          -0.0643    0.2881   -0.8705 C.3     1  UNL1        0.0592
      6 C          -1.4583   -0.1102   -1.3603 C.3     1  UNL1        0.0671
      7 N          -1.8613    1.1788   -0.9120 N.am    1  UNL1       -0.2630
      8 C          -0.5722    1.6346   -1.3270 C.2     1  UNL1        0.2255
      9 O          -0.0307    2.6479   -1.8353 O.2     1  UNL1       -0.2749
     10 C          -2.9508    1.8808   -0.3190 C.ar    1  UNL1        0.0371
     11 C          -4.1385    1.2713    0.0017 C.ar    1  UNL1       -0.0375
     12 C          -5.2214    1.9025    0.5777 C.ar    1  UNL1       -0.0247
     13 C          -5.1242    3.2479    0.8608 C.ar    1  UNL1        0.1235
     14 F          -6.1802    3.8801    1.4265 F       1  UNL1       -0.2055
     15 C          -3.9549    3.8975    0.5568 C.ar    1  UNL1       -0.0247
     16 C          -2.9098    3.2088   -0.0180 C.ar    1  UNL1       -0.0375
     17 C          -2.0050   -1.2990   -0.6698 C.ar    1  UNL1       -0.0257
     18 C          -1.9804   -1.2374    0.7266 C.ar    1  UNL1       -0.0533
     19 C          -2.4635   -2.2869    1.4967 C.ar    1  UNL1       -0.0199
     20 C          -2.9802   -3.4177    0.8971 C.ar    1  UNL1        0.1169
     21 O          -3.4410   -4.4184    1.7102 O.3     1  UNL1       -0.5068
     22 C          -3.0023   -3.4740   -0.4752 C.ar    1  UNL1       -0.0199
     23 C          -2.5247   -2.4364   -1.2563 C.ar    1  UNL1       -0.0533
     24 C           4.1985   -0.2207    0.1636 C.ar    1  UNL1       -0.0190
     25 C           4.7015    0.9818    0.5891 C.ar    1  UNL1       -0.0534
     26 C           6.0702    1.1876    0.7331 C.ar    1  UNL1       -0.0261
     27 C           6.9579    0.1584    0.4421 C.ar    1  UNL1        0.1234
     28 F           8.2849    0.3800    0.5891 F       1  UNL1       -0.2055
     29 C           6.4405   -1.0460    0.0152 C.ar    1  UNL1       -0.0261
     30 C           5.0991   -1.2488   -0.1264 C.ar    1  UNL1       -0.0534
     31 H           2.2950    0.8718    1.4282 H       1  UNL1        0.2102
     32 H           2.5717   -1.5864   -0.0041 H       1  UNL1        0.0643
     33 H           2.5244    1.1385   -1.3802 H       1  UNL1        0.0294
     34 H           3.0733   -0.3918   -2.0949 H       1  UNL1        0.0294
     35 H           0.7234   -0.0604   -2.7988 H       1  UNL1        0.0274
     36 H           0.7835   -1.4444   -1.7099 H       1  UNL1        0.0274
     37 H           0.0315    0.3293    0.2064 H       1  UNL1        0.0416
     38 H          -1.4387   -0.1450   -2.4675 H       1  UNL1        0.0561
     39 H          -4.2975    0.2207   -0.1890 H       1  UNL1        0.0637
     40 H          -6.1472    1.3758    0.8154 H       1  UNL1        0.0647
     41 H          -3.9129    4.9475    0.7910 H       1  UNL1        0.0647
     42 H          -2.0088    3.7936   -0.2322 H       1  UNL1        0.0637
     43 H          -1.5900   -0.3825    1.2568 H       1  UNL1        0.0622
     44 H          -2.4257   -2.1980    2.5888 H       1  UNL1        0.0654
     45 H          -3.6390   -5.3816    1.4184 H       1  UNL1        0.2921
     46 H          -3.4004   -4.3453   -0.9598 H       1  UNL1        0.0654
     47 H          -2.5228   -2.4387   -2.3507 H       1  UNL1        0.0622
     48 H           4.0477    1.7926    0.8208 H       1  UNL1        0.0622
     49 H           6.4722    2.1445    1.0718 H       1  UNL1        0.0646
     50 H           7.1875   -1.8116   -0.1965 H       1  UNL1        0.0646
     51 H           4.7548   -2.2178   -0.4658 H       1  UNL1        0.0622
@<TRIPOS>BOND
     1     1     2    1
     2     2     3    1
     3     3     4    1
     4     4     5    1
     5     5     6    1
     6     6     7    1
     7     7     8   am
     8     8     9    2
     9     7    10    1
    10    10    11   ar
    11    11    12   ar
    12    12    13   ar
    13    13    14    1
    14    13    15   ar
    15    15    16   ar
    16     6    17    1
    17    17    18   ar
    18    18    19   ar
    19    19    20   ar
    20    20    21    1
    21    20    22   ar
    22    22    23   ar
    23     2    24    1
    24    24    25   ar
    25    25    26   ar
    26    26    27   ar
    27    27    28    1
    28    27    29   ar
    29    29    30   ar
    30     8     5    1
    31    16    10   ar
    32    23    17   ar
    33    30    24   ar
    34     1    31    1
    35     2    32    1
    36     3    33    1
    37     3    34    1
    38     4    35    1
    39     4    36    1
    40     5    37    1
    41     6    38    1
    42    11    39    1
    43    12    40    1
    44    15    41    1
    45    16    42    1
    46    18    43    1
    47    19    44    1
    48    21    45    1
    49    22    46    1
    50    23    47    1
    51    25    48    1
    52    26    49    1
    53    29    50    1
    54    30    51    1
