@<TRIPOS>MOLECULE
*****
 52 56 0 0 0
SMALL
GASTEIGER

@<TRIPOS>ATOM
      1 O           1.8519    2.0011    0.0340 O.2     1  UNL1       -0.2756
      2 C           1.8936    0.8538    0.6126 C.2     1  UNL1        0.2166
      3 C           0.6160    0.3767    1.1556 C.3     1  UNL1        0.0343
      4 C          -0.4966    0.3831    0.1842 C.3     1  UNL1        0.0097
      5 C          -0.7246    1.7557   -0.3346 C.ar    1  UNL1       -0.0402
      6 C          -0.2286    2.1130   -1.5932 C.ar    1  UNL1       -0.0580
      7 C          -0.4589    3.3928   -2.0366 C.ar    1  UNL1       -0.0615
      8 C          -1.1511    4.3309   -1.3011 C.ar    1  UNL1       -0.0617
      9 C          -1.6423    3.9858   -0.0613 C.ar    1  UNL1       -0.0615
     10 C          -1.4049    2.6766    0.3883 C.ar    1  UNL1       -0.0580
     11 C          -1.7662   -0.0349    0.9070 C.3     1  UNL1       -0.0300
     12 C          -1.6713   -1.4236    1.5005 C.3     1  UNL1       -0.0442
     13 C          -1.3658   -2.3866    0.3930 C.3     1  UNL1       -0.0141
     14 C          -0.1106   -1.9939   -0.3613 C.3     1  UNL1       -0.0442
     15 C          -0.2860   -0.5925   -0.9543 C.3     1  UNL1       -0.0300
     16 C          -1.4404   -0.7021   -1.8841 C.3     1  UNL1       -0.0442
     17 C          -2.7129   -1.0305   -1.1382 C.3     1  UNL1       -0.0141
     18 C          -2.9190   -0.0171   -0.0660 C.3     1  UNL1       -0.0442
     19 C          -2.5250   -2.4218   -0.5634 C.3     1  UNL1        0.0609
     20 O          -3.7073   -2.7191    0.1152 O.3     1  UNL1       -0.3912
     21 N           3.1211    0.1969    0.6596 N.am    1  UNL1       -0.2964
     22 C           4.4684    0.5088    0.1886 C.3     1  UNL1        0.0422
     23 C           4.7531   -0.9705    0.1203 C.3     1  UNL1        0.0866
     24 O           6.0094   -1.3531    0.5471 O.3     1  UNL1       -0.3887
     25 C           3.6422   -1.0400    1.1564 C.3     1  UNL1        0.0422
     26 H           0.7364   -0.5828    1.7067 H       1  UNL1        0.0367
     27 H           0.3421    1.1074    1.9800 H       1  UNL1        0.0367
     28 H           0.3207    1.4122   -2.1982 H       1  UNL1        0.0620
     29 H          -0.0534    3.6349   -3.0307 H       1  UNL1        0.0618
     30 H          -1.3022    5.3377   -1.7148 H       1  UNL1        0.0618
     31 H          -2.1891    4.7082    0.5293 H       1  UNL1        0.0618
     32 H          -1.8307    2.5062    1.3850 H       1  UNL1        0.0620
     33 H          -2.0204    0.6427    1.7420 H       1  UNL1        0.0310
     34 H          -2.6908   -1.6634    1.8830 H       1  UNL1        0.0272
     35 H          -0.9565   -1.4698    2.3445 H       1  UNL1        0.0272
     36 H          -1.2479   -3.4115    0.7977 H       1  UNL1        0.0326
     37 H           0.7930   -2.0958    0.2198 H       1  UNL1        0.0272
     38 H          -0.0466   -2.7042   -1.2314 H       1  UNL1        0.0272
     39 H           0.6542   -0.3837   -1.4942 H       1  UNL1        0.0310
     40 H          -1.6193    0.1060   -2.5789 H       1  UNL1        0.0272
     41 H          -1.2427   -1.6102   -2.5287 H       1  UNL1        0.0272
     42 H          -3.5185   -1.0560   -1.8728 H       1  UNL1        0.0326
     43 H          -2.9762    0.9951   -0.5210 H       1  UNL1        0.0272
     44 H          -3.8719   -0.1815    0.4787 H       1  UNL1        0.0272
     45 H          -2.3209   -3.1295   -1.3891 H       1  UNL1        0.0599
     46 H          -4.1531   -3.4682   -0.3385 H       1  UNL1        0.2098
     47 H           5.0603    1.0859    0.8980 H       1  UNL1        0.0490
     48 H           4.4755    0.9432   -0.8425 H       1  UNL1        0.0490
     49 H           4.5194   -1.4393   -0.8556 H       1  UNL1        0.0625
     50 H           6.2472   -2.2073    0.1662 H       1  UNL1        0.2099
     51 H           3.0490   -1.9577    1.0054 H       1  UNL1        0.0490
     52 H           4.0983   -1.0084    2.1747 H       1  UNL1        0.0490
@<TRIPOS>BOND
     1     1     2    2
     2     2     3    1
     3     3     4    1
     4     4     5    1
     5     5     6   ar
     6     6     7   ar
     7     7     8   ar
     8     8     9   ar
     9     9    10   ar
    10     4    11    1
    11    11    12    1
    12    12    13    1
    13    13    14    1
    14    14    15    1
    15    15    16    1
    16    16    17    1
    17    17    18    1
    18    17    19    1
    19    19    20    1
    20     2    21   am
    21    21    22    1
    22    22    23    1
    23    23    24    1
    24    23    25    1
    25    15     4    1
    26    25    21    1
    27    10     5   ar
    28    18    11    1
    29    19    13    1
    30     3    26    1
    31     3    27    1
    32     6    28    1
    33     7    29    1
    34     8    30    1
    35     9    31    1
    36    10    32    1
    37    11    33    1
    38    12    34    1
    39    12    35    1
    40    13    36    1
    41    14    37    1
    42    14    38    1
    43    15    39    1
    44    16    40    1
    45    16    41    1
    46    17    42    1
    47    18    43    1
    48    18    44    1
    49    19    45    1
    50    20    46    1
    51    22    47    1
    52    22    48    1
    53    23    49    1
    54    24    50    1
    55    25    51    1
    56    25    52    1
