@<TRIPOS>MOLECULE
*****
 61 66 0 0 0
SMALL
GASTEIGER

@<TRIPOS>ATOM
      1 C           2.5030   -2.3994    0.0458 C.3     1  UNL1        0.0867
      2 C           3.9530   -2.2091   -0.4367 C.3     1  UNL1       -0.0128
      3 C           4.4224   -1.1156    0.4655 C.3     1  UNL1        0.0217
      4 N           3.3269   -0.1800    0.6829 N.am    1  UNL1       -0.2695
      5 C           2.5970   -1.3277    1.1299 C.2     1  UNL1        0.2369
      6 O           2.4110   -0.7980    2.2607 O.2     1  UNL1       -0.2735
      7 C           3.2103    1.2281    0.4876 C.ar    1  UNL1        0.0441
      8 C           4.3985    1.8539    0.8454 C.ar    1  UNL1       -0.0397
      9 C           4.6000    3.2159    0.7656 C.ar    1  UNL1       -0.0594
     10 C           3.5813    4.0246    0.3078 C.ar    1  UNL1       -0.0539
     11 C           2.4079    3.3698   -0.0411 C.ar    1  UNL1       -0.0159
     12 C           2.1826    2.0135    0.0299 C.ar    1  UNL1        0.0070
     13 C           0.9493    1.5548   -0.3597 C.ar    1  UNL1       -0.0104
     14 C          -0.0317    2.3908   -0.8048 C.ar    1  UNL1        0.1216
     15 O          -1.3008    1.9095   -1.2036 O.3     1  UNL1       -0.4872
     16 C          -2.1726    1.4469   -0.2082 C.3     1  UNL1        0.1196
     17 C          -2.8618    0.1619   -0.6941 C.3     1  UNL1        0.0084
     18 C          -3.3681   -0.4656    0.5607 C.2     1  UNL1       -0.0504
     19 C          -3.1467   -1.7130    1.3354 C.3     1  UNL1        0.0456
     20 N          -2.8918   -2.8782    0.5286 N.ar    1  UNL1       -0.3299
     21 C          -3.8080   -3.8056    0.1695 C.ar    1  UNL1        0.0964
     22 N          -3.2154   -4.7647   -0.5785 N.ar    1  UNL1       -0.2438
     23 C          -1.9043   -4.4264   -0.6867 C.ar    1  UNL1        0.0486
     24 C          -1.7024   -3.2376    0.0111 C.ar    1  UNL1        0.0396
     25 C          -0.4331   -2.5112    0.1469 C.3     1  UNL1        0.0018
     26 C           0.4517   -2.7501   -1.0773 C.3     1  UNL1        0.0020
     27 N           1.6605   -1.9684   -1.0135 N.3     1  UNL1       -0.3052
     28 C          -4.2617    0.4097    1.0831 C.2     1  UNL1       -0.0816
     29 C          -4.5507    1.7542    0.4994 C.3     1  UNL1       -0.0153
     30 C          -3.1974    2.4294    0.2538 C.3     1  UNL1        0.0866
     31 C          -3.4299    3.5075   -0.7054 C.1     1  UNL1        0.0699
     32 N          -3.6113    4.3682   -1.4638 N.1     1  UNL1       -0.1961
     33 C           0.1339    3.7743   -0.9011 C.ar    1  UNL1       -0.0193
     34 C           1.3868    4.1849   -0.4984 C.ar    1  UNL1       -0.0505
     35 H           2.3174   -3.3686    0.4857 H       1  UNL1        0.0557
     36 H           4.4890   -3.1476   -0.1132 H       1  UNL1        0.0300
     37 H           4.0265   -2.0219   -1.5046 H       1  UNL1        0.0300
     38 H           5.2009   -0.5511   -0.1227 H       1  UNL1        0.0469
     39 H           4.8444   -1.4884    1.4191 H       1  UNL1        0.0469
     40 H           5.2965    1.3526    1.2247 H       1  UNL1        0.0636
     41 H           5.5183    3.7240    1.0402 H       1  UNL1        0.0618
     42 H           3.6930    5.0952    0.2287 H       1  UNL1        0.0624
     43 H           0.7045    0.5065   -0.3232 H       1  UNL1        0.0661
     44 H          -1.5651    1.1044    0.6833 H       1  UNL1        0.0749
     45 H          -2.1699   -0.4509   -1.2555 H       1  UNL1        0.0347
     46 H          -3.7107    0.4873   -1.3527 H       1  UNL1        0.0347
     47 H          -3.9819   -1.8889    2.0556 H       1  UNL1        0.0538
     48 H          -2.2377   -1.5778    2.0002 H       1  UNL1        0.0538
     49 H          -4.8665   -3.8565    0.3961 H       1  UNL1        0.1029
     50 H          -1.2130   -5.0248   -1.2319 H       1  UNL1        0.0848
     51 H           0.1489   -2.8701    1.0336 H       1  UNL1        0.0340
     52 H          -0.6186   -1.4301    0.1991 H       1  UNL1        0.0340
     53 H           0.7811   -3.8238   -1.0704 H       1  UNL1        0.0428
     54 H          -0.1172   -2.4968   -2.0079 H       1  UNL1        0.0428
     55 H           2.1212   -2.0837   -1.9534 H       1  UNL1        0.1226
     56 H          -4.8184    0.1265    1.9956 H       1  UNL1        0.0573
     57 H          -5.0842    1.7038   -0.4724 H       1  UNL1        0.0321
     58 H          -5.0801    2.3716    1.2438 H       1  UNL1        0.0321
     59 H          -2.8868    2.8448    1.2439 H       1  UNL1        0.0493
     60 H          -0.6172    4.4433   -1.2456 H       1  UNL1        0.0654
     61 H           1.5369    5.2737   -0.5673 H       1  UNL1        0.0625
@<TRIPOS>BOND
     1     1     2    1
     2     2     3    1
     3     3     4    1
     4     4     5   am
     5     5     6    2
     6     4     7    1
     7     7     8   ar
     8     8     9   ar
     9     9    10   ar
    10    10    11   ar
    11    11    12   ar
    12    12    13   ar
    13    13    14   ar
    14    14    15    1
    15    15    16    1
    16    16    17    1
    17    17    18    1
    18    18    19    1
    19    19    20    1
    20    20    21   ar
    21    21    22   ar
    22    22    23   ar
    23    23    24   ar
    24    24    25    1
    25    25    26    1
    26    26    27    1
    27    18    28    2
    28    28    29    1
    29    29    30    1
    30    30    31    1
    31    31    32    3
    32    14    33   ar
    33    33    34   ar
    34     5     1    1
    35    12     7   ar
    36    30    16    1
    37    27     1    1
    38    34    11   ar
    39    24    20   ar
    40     1    35    1
    41     2    36    1
    42     2    37    1
    43     3    38    1
    44     3    39    1
    45     8    40    1
    46     9    41    1
    47    10    42    1
    48    13    43    1
    49    16    44    1
    50    17    45    1
    51    17    46    1
    52    19    47    1
    53    19    48    1
    54    21    49    1
    55    23    50    1
    56    25    51    1
    57    25    52    1
    58    26    53    1
    59    26    54    1
    60    27    55    1
    61    28    56    1
    62    29    57    1
    63    29    58    1
    64    30    59    1
    65    33    60    1
    66    34    61    1
