@<TRIPOS>MOLECULE
*****
 12 11 0 0 0
SMALL
GASTEIGER

@<TRIPOS>ATOM
      1 O          -2.8326    0.3434   -0.8024 O.3     1  UNL1       -0.4775
      2 C          -1.7993   -0.0653    0.0421 C.2     1  UNL1        0.3298
      3 O          -2.2803   -0.5281    1.1076 O.2     1  UNL1       -0.2458
      4 C          -0.3786    0.0352   -0.2767 C.2     1  UNL1        0.0291
      5 C           0.4968   -0.3845    0.6025 C.2     1  UNL1        0.0291
      6 C           1.9125   -0.2754    0.2649 C.2     1  UNL1        0.3298
      7 O           2.4302    0.2370   -0.9137 O.3     1  UNL1       -0.4775
      8 O           2.8481   -0.6415    1.0203 O.2     1  UNL1       -0.2458
      9 H          -3.7238    0.7120   -0.4728 H       1  UNL1        0.2954
     10 H          -0.1630    0.4630   -1.2465 H       1  UNL1        0.0691
     11 H           0.2763   -0.8049    1.5561 H       1  UNL1        0.0691
     12 H           3.2137    0.9090   -0.8816 H       1  UNL1        0.2954
@<TRIPOS>BOND
     1     1     2    1
     2     2     3    2
     3     2     4    1
     4     4     5    2
     5     5     6    1
     6     6     7    1
     7     6     8    2
     8     1     9    1
     9     4    10    1
    10     5    11    1
    11     7    12    1
