@<TRIPOS>MOLECULE
*****
 52 54 0 0 0
SMALL
GASTEIGER

@<TRIPOS>ATOM
      1 C          -9.7380    0.8181   -1.0059 C.2     1  UNL1       -0.0938
      2 C          -8.4913    0.9113   -1.3966 C.2     1  UNL1       -0.0066
      3 C          -7.3981    0.6166   -0.4556 C.2     1  UNL1        0.2416
      4 O          -7.6433    0.2738    0.7273 O.2     1  UNL1       -0.2705
      5 N          -6.0406    0.7118   -0.8597 N.am    1  UNL1       -0.2669
      6 C          -4.9618    0.4347    0.0220 C.ar    1  UNL1        0.1252
      7 C          -4.4933   -0.8605    0.0782 C.ar    1  UNL1       -0.0197
      8 C          -3.4328   -1.1997    0.9264 C.ar    1  UNL1       -0.0306
      9 C          -2.8788   -0.1941    1.6985 C.ar    1  UNL1        0.1236
     10 S          -1.5515   -0.6232    2.7581 S.O2    1  UNL1        0.0624
     11 O          -1.6400    0.2502    3.9767 O.2     1  UNL1       -0.1528
     12 O          -1.6933   -2.0437    3.2139 O.2     1  UNL1       -0.1528
     13 N          -0.0232   -0.4409    1.9693 N.3     1  UNL1       -0.1735
     14 C          -0.0016   -1.3310    0.8482 C.3     1  UNL1        0.0364
     15 C           1.1100   -1.0461   -0.1273 C.3     1  UNL1        0.0323
     16 N           1.9197    0.0619    0.3185 N.am    1  UNL1       -0.2649
     17 C           3.3502   -0.1035    0.3275 C.2     1  UNL1        0.4033
     18 O           4.0588    0.8509    0.7122 O.2     1  UNL1       -0.2262
     19 O           3.9304   -1.2692   -0.0719 O.3     1  UNL1       -0.4455
     20 C           5.2910   -1.4910   -0.0877 C.3     1  UNL1        0.1191
     21 C           6.1052   -0.6101   -0.9308 C.ar    1  UNL1       -0.0103
     22 C           6.2275   -0.8943   -2.2740 C.ar    1  UNL1       -0.0554
     23 C           7.0076   -0.0970   -3.1090 C.ar    1  UNL1       -0.0614
     24 C           7.6485    0.9832   -2.5359 C.ar    1  UNL1       -0.0617
     25 C           7.5500    1.2981   -1.1980 C.ar    1  UNL1       -0.0614
     26 C           6.7576    0.4732   -0.3926 C.ar    1  UNL1       -0.0554
     27 C           1.2493    1.2622    0.7261 C.3     1  UNL1        0.0323
     28 C           0.1233    0.9467    1.6370 C.3     1  UNL1        0.0364
     29 C          -3.3592    1.0854    1.6274 C.ar    1  UNL1        0.0560
     30 N          -4.3718    1.3638    0.8048 N.ar    1  UNL1       -0.2382
     31 H          -9.9593    0.5266    0.0009 H       1  UNL1        0.0536
     32 H         -10.5340    1.0316   -1.6872 H       1  UNL1        0.0536
     33 H          -8.2760    1.2035   -2.4052 H       1  UNL1        0.0663
     34 H          -5.8849    1.0036   -1.8634 H       1  UNL1        0.1565
     35 H          -4.9200   -1.6596   -0.5234 H       1  UNL1        0.0652
     36 H          -3.0982   -2.2168    0.9413 H       1  UNL1        0.0639
     37 H           0.1537   -2.3610    1.2321 H       1  UNL1        0.0459
     38 H          -0.9623   -1.3355    0.3002 H       1  UNL1        0.0459
     39 H           0.6936   -0.7605   -1.1168 H       1  UNL1        0.0479
     40 H           1.7358   -1.9581   -0.3301 H       1  UNL1        0.0479
     41 H           5.6919   -1.4766    0.9746 H       1  UNL1        0.0749
     42 H           5.4285   -2.5815   -0.3762 H       1  UNL1        0.0749
     43 H           5.7081   -1.7446   -2.6641 H       1  UNL1        0.0621
     44 H           7.0859   -0.3437   -4.1610 H       1  UNL1        0.0618
     45 H           8.2553    1.6047   -3.1834 H       1  UNL1        0.0618
     46 H           8.0706    2.1569   -0.7876 H       1  UNL1        0.0618
     47 H           6.7282    0.7618    0.6506 H       1  UNL1        0.0621
     48 H           0.9353    1.8857   -0.1604 H       1  UNL1        0.0479
     49 H           2.0149    1.9034    1.2418 H       1  UNL1        0.0479
     50 H          -0.8152    1.3701    1.1753 H       1  UNL1        0.0459
     51 H           0.2550    1.5106    2.5831 H       1  UNL1        0.0459
     52 H          -2.9175    1.8462    2.2316 H       1  UNL1        0.0850
@<TRIPOS>BOND
     1     1     2    2
     2     2     3    1
     3     3     4    2
     4     3     5   am
     5     5     6    1
     6     6     7   ar
     7     7     8   ar
     8     8     9   ar
     9     9    10    1
    10    10    11    2
    11    10    12    2
    12    10    13    1
    13    13    14    1
    14    14    15    1
    15    15    16    1
    16    16    17   am
    17    17    18    2
    18    17    19    1
    19    19    20    1
    20    20    21    1
    21    21    22   ar
    22    22    23   ar
    23    23    24   ar
    24    24    25   ar
    25    25    26   ar
    26    16    27    1
    27    27    28    1
    28     9    29   ar
    29    29    30   ar
    30    30     6   ar
    31    28    13    1
    32    26    21   ar
    33     1    31    1
    34     1    32    1
    35     2    33    1
    36     5    34    1
    37     7    35    1
    38     8    36    1
    39    14    37    1
    40    14    38    1
    41    15    39    1
    42    15    40    1
    43    20    41    1
    44    20    42    1
    45    22    43    1
    46    23    44    1
    47    24    45    1
    48    25    46    1
    49    26    47    1
    50    27    48    1
    51    27    49    1
    52    28    50    1
    53    28    51    1
    54    29    52    1
