
     RDKit          3D

 52 54  0  0  0  0  0  0  0  0999 V2000
   -9.7380    0.8181   -1.0059 C   0  0  0  0  0  0  0  0  0  0  0  0
   -8.4913    0.9113   -1.3966 C   0  0  0  0  0  0  0  0  0  0  0  0
   -7.3981    0.6166   -0.4556 C   0  0  0  0  0  0  0  0  0  0  0  0
   -7.6433    0.2738    0.7273 O   0  0  0  0  0  0  0  0  0  0  0  0
   -6.0406    0.7118   -0.8597 N   0  0  0  0  0  0  0  0  0  0  0  0
   -4.9618    0.4347    0.0220 C   0  0  0  0  0  0  0  0  0  0  0  0
   -4.4933   -0.8605    0.0782 C   0  0  0  0  0  0  0  0  0  0  0  0
   -3.4328   -1.1997    0.9264 C   0  0  0  0  0  0  0  0  0  0  0  0
   -2.8788   -0.1941    1.6985 C   0  0  0  0  0  0  0  0  0  0  0  0
   -1.5515   -0.6232    2.7581 S   0  0  0  0  0  6  0  0  0  0  0  0
   -1.6400    0.2502    3.9767 O   0  0  0  0  0  0  0  0  0  0  0  0
   -1.6933   -2.0437    3.2139 O   0  0  0  0  0  0  0  0  0  0  0  0
   -0.0232   -0.4409    1.9693 N   0  0  0  0  0  0  0  0  0  0  0  0
   -0.0016   -1.3310    0.8482 C   0  0  0  0  0  0  0  0  0  0  0  0
    1.1100   -1.0461   -0.1273 C   0  0  0  0  0  0  0  0  0  0  0  0
    1.9197    0.0619    0.3185 N   0  0  0  0  0  0  0  0  0  0  0  0
    3.3502   -0.1035    0.3275 C   0  0  0  0  0  0  0  0  0  0  0  0
    4.0588    0.8509    0.7122 O   0  0  0  0  0  0  0  0  0  0  0  0
    3.9304   -1.2692   -0.0719 O   0  0  0  0  0  0  0  0  0  0  0  0
    5.2910   -1.4910   -0.0877 C   0  0  0  0  0  0  0  0  0  0  0  0
    6.1052   -0.6101   -0.9308 C   0  0  0  0  0  0  0  0  0  0  0  0
    6.2275   -0.8943   -2.2740 C   0  0  0  0  0  0  0  0  0  0  0  0
    7.0076   -0.0970   -3.1090 C   0  0  0  0  0  0  0  0  0  0  0  0
    7.6485    0.9832   -2.5359 C   0  0  0  0  0  0  0  0  0  0  0  0
    7.5500    1.2981   -1.1980 C   0  0  0  0  0  0  0  0  0  0  0  0
    6.7576    0.4732   -0.3926 C   0  0  0  0  0  0  0  0  0  0  0  0
    1.2493    1.2622    0.7261 C   0  0  0  0  0  0  0  0  0  0  0  0
    0.1233    0.9467    1.6370 C   0  0  0  0  0  0  0  0  0  0  0  0
   -3.3592    1.0854    1.6274 C   0  0  0  0  0  0  0  0  0  0  0  0
   -4.3718    1.3638    0.8048 N   0  0  0  0  0  0  0  0  0  0  0  0
   -9.9593    0.5266    0.0009 H   0  0  0  0  0  0  0  0  0  0  0  0
  -10.5340    1.0316   -1.6872 H   0  0  0  0  0  0  0  0  0  0  0  0
   -8.2760    1.2035   -2.4052 H   0  0  0  0  0  0  0  0  0  0  0  0
   -5.8849    1.0036   -1.8634 H   0  0  0  0  0  0  0  0  0  0  0  0
   -4.9200   -1.6596   -0.5234 H   0  0  0  0  0  0  0  0  0  0  0  0
   -3.0982   -2.2168    0.9413 H   0  0  0  0  0  0  0  0  0  0  0  0
    0.1537   -2.3610    1.2321 H   0  0  0  0  0  0  0  0  0  0  0  0
   -0.9623   -1.3355    0.3002 H   0  0  0  0  0  0  0  0  0  0  0  0
    0.6936   -0.7605   -1.1168 H   0  0  0  0  0  0  0  0  0  0  0  0
    1.7358   -1.9581   -0.3301 H   0  0  0  0  0  0  0  0  0  0  0  0
    5.6919   -1.4766    0.9746 H   0  0  0  0  0  0  0  0  0  0  0  0
    5.4285   -2.5815   -0.3762 H   0  0  0  0  0  0  0  0  0  0  0  0
    5.7081   -1.7446   -2.6641 H   0  0  0  0  0  0  0  0  0  0  0  0
    7.0859   -0.3437   -4.1610 H   0  0  0  0  0  0  0  0  0  0  0  0
    8.2553    1.6047   -3.1834 H   0  0  0  0  0  0  0  0  0  0  0  0
    8.0706    2.1569   -0.7876 H   0  0  0  0  0  0  0  0  0  0  0  0
    6.7282    0.7618    0.6506 H   0  0  0  0  0  0  0  0  0  0  0  0
    0.9353    1.8857   -0.1604 H   0  0  0  0  0  0  0  0  0  0  0  0
    2.0149    1.9034    1.2418 H   0  0  0  0  0  0  0  0  0  0  0  0
   -0.8152    1.3701    1.1753 H   0  0  0  0  0  0  0  0  0  0  0  0
    0.2550    1.5106    2.5831 H   0  0  0  0  0  0  0  0  0  0  0  0
   -2.9175    1.8462    2.2316 H   0  0  0  0  0  0  0  0  0  0  0  0
  1  2  2  3
  2  3  1  0
  3  4  2  0
  3  5  1  0
  5  6  1  0
  6  7  2  0
  7  8  1  0
  8  9  2  0
  9 10  1  0
 10 11  2  0
 10 12  2  0
 10 13  1  0
 13 14  1  0
 14 15  1  0
 15 16  1  0
 16 17  1  0
 17 18  2  0
 17 19  1  0
 19 20  1  0
 20 21  1  0
 21 22  2  0
 22 23  1  0
 23 24  2  0
 24 25  1  0
 25 26  2  0
 16 27  1  0
 27 28  1  0
  9 29  1  0
 29 30  2  0
 30  6  1  0
 28 13  1  0
 26 21  1  0
  1 31  1  0
  1 32  1  0
  2 33  1  0
  5 34  1  0
  7 35  1  0
  8 36  1  0
 14 37  1  0
 14 38  1  0
 15 39  1  0
 15 40  1  0
 20 41  1  0
 20 42  1  0
 22 43  1  0
 23 44  1  0
 24 45  1  0
 25 46  1  0
 26 47  1  0
 27 48  1  0
 27 49  1  0
 28 50  1  0
 28 51  1  0
 29 52  1  0
M  END
$$$$
