@<TRIPOS>MOLECULE
*****
 46 49 0 0 0
SMALL
GASTEIGER

@<TRIPOS>ATOM
      1 N           7.4754   -0.2043   -1.0411 N.am    1  UNL1       -0.3252
      2 C           6.0833   -0.2690   -1.1404 C.2     1  UNL1        0.2452
      3 O           5.5409   -0.7001   -2.1727 O.2     1  UNL1       -0.2703
      4 C           5.2604    0.1677   -0.0364 C.ar    1  UNL1        0.0817
      5 C           5.8107    0.6618    1.1499 C.ar    1  UNL1       -0.0459
      6 C           4.9942    1.0669    2.1763 C.ar    1  UNL1       -0.0574
      7 C           3.6254    1.0058    2.0849 C.ar    1  UNL1       -0.0162
      8 C           3.0591    0.5231    0.9272 C.ar    1  UNL1        0.1637
      9 C           3.8895    0.1203   -0.0941 C.ar    1  UNL1        0.1742
     10 O           3.2972   -0.3599   -1.2446 O.3     1  UNL1       -0.4835
     11 C           1.9611   -0.1976   -1.5998 C.3     1  UNL1        0.1308
     12 C           1.0782    0.3313   -0.5289 C.3     1  UNL1        0.1605
     13 C          -0.0968   -0.5869   -0.3640 C.ar    1  UNL1        0.0143
     14 C           0.0804   -1.7644    0.3435 C.ar    1  UNL1        0.0344
     15 N          -0.9848   -2.5759    0.4813 N.ar    1  UNL1       -0.2625
     16 C          -2.1954   -2.2956   -0.0314 C.ar    1  UNL1        0.0322
     17 C          -2.3621   -1.1249   -0.7320 C.ar    1  UNL1       -0.0117
     18 C          -3.6772   -0.7661   -1.3192 C.3     1  UNL1        0.0413
     19 N          -4.4472   -0.0086   -0.3623 N.am    1  UNL1       -0.2930
     20 C          -5.3415   -0.6398    0.5896 C.3     1  UNL1        0.0385
     21 C          -6.2516    0.4924    1.0877 C.3     1  UNL1        0.0640
     22 O          -5.4958    1.4265    1.7667 O.3     1  UNL1       -0.3690
     23 C          -4.6105    2.1047    0.9507 C.3     1  UNL1        0.1239
     24 C          -4.3422    1.4089   -0.3341 C.2     1  UNL1        0.2417
     25 O          -4.0263    2.0625   -1.3841 O.2     1  UNL1       -0.2731
     26 C          -1.3049   -0.2428   -0.9115 C.ar    1  UNL1       -0.0474
     27 O           1.6974    0.4197    0.7318 O.3     1  UNL1       -0.4771
     28 H           8.0024    0.4977   -1.5833 H       1  UNL1        0.1453
     29 H           7.9868   -0.8563   -0.4262 H       1  UNL1        0.1453
     30 H           6.8919    0.6988    1.1947 H       1  UNL1        0.0626
     31 H           5.4275    1.4453    3.0844 H       1  UNL1        0.0619
     32 H           2.9737    1.3290    2.9037 H       1  UNL1        0.0655
     33 H           1.5940   -1.2015   -1.9649 H       1  UNL1        0.0738
     34 H           1.9377    0.4438   -2.5277 H       1  UNL1        0.0738
     35 H           0.7054    1.3318   -0.8310 H       1  UNL1        0.0820
     36 H           1.0458   -2.0389    0.7808 H       1  UNL1        0.0833
     37 H          -3.0444   -2.9789    0.0987 H       1  UNL1        0.0833
     38 H          -4.1778   -1.7193   -1.5950 H       1  UNL1        0.0514
     39 H          -3.5177   -0.2143   -2.2752 H       1  UNL1        0.0514
     40 H          -6.0189   -1.3585    0.0829 H       1  UNL1        0.0487
     41 H          -4.7860   -1.0939    1.4359 H       1  UNL1        0.0487
     42 H          -7.0727    0.1161    1.7002 H       1  UNL1        0.0576
     43 H          -6.6076    1.0000    0.1433 H       1  UNL1        0.0576
     44 H          -3.6250    2.1279    1.5020 H       1  UNL1        0.0657
     45 H          -4.9699    3.1504    0.7546 H       1  UNL1        0.0657
     46 H          -1.4621    0.6788   -1.4708 H       1  UNL1        0.0626
@<TRIPOS>BOND
     1     1     2   am
     2     2     3    2
     3     2     4    1
     4     4     5   ar
     5     5     6   ar
     6     6     7   ar
     7     7     8   ar
     8     8     9   ar
     9     9    10    1
    10    10    11    1
    11    11    12    1
    12    12    13    1
    13    13    14   ar
    14    14    15   ar
    15    15    16   ar
    16    16    17   ar
    17    17    18    1
    18    18    19    1
    19    19    20    1
    20    20    21    1
    21    21    22    1
    22    22    23    1
    23    23    24    1
    24    24    25    2
    25    17    26   ar
    26    12    27    1
    27     9     4   ar
    28    26    13   ar
    29    27     8    1
    30    24    19   am
    31     1    28    1
    32     1    29    1
    33     5    30    1
    34     6    31    1
    35     7    32    1
    36    11    33    1
    37    11    34    1
    38    12    35    1
    39    14    36    1
    40    16    37    1
    41    18    38    1
    42    18    39    1
    43    20    40    1
    44    20    41    1
    45    21    42    1
    46    21    43    1
    47    23    44    1
    48    23    45    1
    49    26    46    1
