@<TRIPOS>MOLECULE
*****
 58 62 0 0 0
SMALL
GASTEIGER

@<TRIPOS>ATOM
      1 C          -6.1575   -2.9216    1.1871 C.3     1  UNL1       -0.0394
      2 C          -4.9302   -2.3293    0.6001 C.ar    1  UNL1       -0.0454
      3 C          -3.8351   -3.1149    0.3238 C.ar    1  UNL1       -0.0577
      4 C          -2.7119   -2.5650   -0.2145 C.ar    1  UNL1       -0.0472
      5 C          -2.6554   -1.2236   -0.4887 C.ar    1  UNL1        0.0642
      6 C          -1.4060   -0.7208   -1.0642 C.2     1  UNL1        0.2491
      7 O          -1.3394   -0.7253   -2.3242 O.2     1  UNL1       -0.2699
      8 N          -0.3686   -0.2700   -0.2304 N.am    1  UNL1       -0.2897
      9 C          -0.5342   -0.3009    1.1949 C.3     1  UNL1        0.0388
     10 C          -0.2856    1.0937    1.7254 C.3     1  UNL1        0.0635
     11 O           0.1687    1.9620    0.7245 O.3     1  UNL1       -0.3764
     12 C           1.2812    1.4156    0.0733 C.3     1  UNL1        0.0666
     13 C           0.8644    0.2241   -0.7731 C.3     1  UNL1        0.0537
     14 C           1.8988   -0.8850   -0.5752 C.3     1  UNL1       -0.0054
     15 C           3.2011   -0.4414   -1.1108 C.ar    1  UNL1       -0.0252
     16 C           4.2344   -0.0355   -0.2766 C.ar    1  UNL1       -0.0299
     17 C           5.4377    0.3745   -0.7811 C.ar    1  UNL1        0.0865
     18 N           6.5131    0.7973    0.0866 N.ar    1  UNL1       -0.1503
     19 N           7.6512    0.1637    0.2837 N.ar    1  UNL1       -0.1556
     20 C           8.3966    0.8522    1.1501 C.ar    1  UNL1        0.0697
     21 C           7.6865    1.9649    1.5063 C.ar    1  UNL1        0.0697
     22 N           6.5350    1.8882    0.8273 N.ar    1  UNL1       -0.1556
     23 C           5.6176    0.3814   -2.1380 C.ar    1  UNL1       -0.0332
     24 C           4.6097   -0.0174   -3.0193 C.ar    1  UNL1       -0.0411
     25 C           3.4052   -0.4262   -2.4724 C.ar    1  UNL1        0.0443
     26 CL          2.0917   -0.9424   -3.5151 Cl      1  UNL1       -0.0833
     27 C          -3.7418   -0.4399   -0.2156 C.ar    1  UNL1        0.1013
     28 N          -3.6942    0.9416   -0.4945 N.ar    1  UNL1       -0.1493
     29 N          -3.7973    1.4601   -1.7084 N.ar    1  UNL1       -0.1556
     30 C          -3.7155    2.8049   -1.6405 C.ar    1  UNL1        0.0697
     31 C          -3.5522    3.1223   -0.2981 C.ar    1  UNL1        0.0697
     32 N          -3.5469    1.9519    0.3469 N.ar    1  UNL1       -0.1556
     33 C          -4.8909   -0.9777    0.3305 C.ar    1  UNL1       -0.0197
     34 C          -6.0650   -0.1456    0.6286 C.3     1  UNL1       -0.0374
     35 H          -5.9552   -3.9794    1.4464 H       1  UNL1        0.0278
     36 H          -6.9441   -2.9313    0.3978 H       1  UNL1        0.0278
     37 H          -6.4912   -2.3611    2.0761 H       1  UNL1        0.0278
     38 H          -3.8603   -4.1773    0.5335 H       1  UNL1        0.0620
     39 H          -1.8491   -3.2141   -0.4265 H       1  UNL1        0.0626
     40 H          -1.5213   -0.6981    1.5056 H       1  UNL1        0.0487
     41 H           0.2845   -0.9651    1.5976 H       1  UNL1        0.0487
     42 H          -1.1928    1.5419    2.1717 H       1  UNL1        0.0575
     43 H           0.4979    1.1009    2.5165 H       1  UNL1        0.0575
     44 H           1.9939    1.1058    0.8627 H       1  UNL1        0.0578
     45 H           1.7231    2.1922   -0.5560 H       1  UNL1        0.0578
     46 H           0.7970    0.4859   -1.8461 H       1  UNL1        0.0526
     47 H           2.0237   -1.0321    0.5320 H       1  UNL1        0.0332
     48 H           1.5650   -1.8371   -1.0003 H       1  UNL1        0.0332
     49 H           4.0996   -0.0390    0.7908 H       1  UNL1        0.0642
     50 H           9.3906    0.6002    1.5240 H       1  UNL1        0.0864
     51 H           8.0107    2.7479    2.2062 H       1  UNL1        0.0864
     52 H           6.5635    0.7037   -2.5448 H       1  UNL1        0.0640
     53 H           4.7599   -0.0087   -4.0800 H       1  UNL1        0.0633
     54 H          -3.7641    3.5100   -2.4452 H       1  UNL1        0.0864
     55 H          -3.4548    4.1117    0.0931 H       1  UNL1        0.0864
     56 H          -6.3069   -0.2916    1.7133 H       1  UNL1        0.0278
     57 H          -6.9421   -0.4117    0.0164 H       1  UNL1        0.0278
     58 H          -5.7928    0.9302    0.5229 H       1  UNL1        0.0278
@<TRIPOS>BOND
     1     1     2    1
     2     2     3   ar
     3     3     4   ar
     4     4     5   ar
     5     5     6    1
     6     6     7    2
     7     6     8   am
     8     8     9    1
     9     9    10    1
    10    10    11    1
    11    11    12    1
    12    12    13    1
    13    13    14    1
    14    14    15    1
    15    15    16   ar
    16    16    17   ar
    17    17    18    1
    18    18    19   ar
    19    19    20   ar
    20    20    21   ar
    21    21    22   ar
    22    17    23   ar
    23    23    24   ar
    24    24    25   ar
    25    25    26    1
    26     5    27   ar
    27    27    28    1
    28    28    29   ar
    29    29    30   ar
    30    30    31   ar
    31    31    32   ar
    32    27    33   ar
    33    33    34    1
    34    33     2   ar
    35    13     8    1
    36    25    15   ar
    37    32    28   ar
    38    22    18   ar
    39     1    35    1
    40     1    36    1
    41     1    37    1
    42     3    38    1
    43     4    39    1
    44     9    40    1
    45     9    41    1
    46    10    42    1
    47    10    43    1
    48    12    44    1
    49    12    45    1
    50    13    46    1
    51    14    47    1
    52    14    48    1
    53    16    49    1
    54    20    50    1
    55    21    51    1
    56    23    52    1
    57    24    53    1
    58    30    54    1
    59    31    55    1
    60    34    56    1
    61    34    57    1
    62    34    58    1
