
     RDKit          3D

 59 63  0  0  0  0  0  0  0  0999 V2000
  -10.1012    0.6194   -1.1034 C   0  0  0  0  0  0  0  0  0  0  0  0
   -9.1617    0.1464   -0.1603 O   0  0  0  0  0  0  0  0  0  0  0  0
   -7.8271    0.0242   -0.4968 C   0  0  0  0  0  0  0  0  0  0  0  0
   -7.3711    0.3626   -1.7665 C   0  0  0  0  0  0  0  0  0  0  0  0
   -6.0089    0.2126   -2.0324 C   0  0  0  0  0  0  0  0  0  0  0  0
   -5.1086   -0.2523   -1.0975 C   0  0  0  0  0  0  0  0  0  0  0  0
   -3.7634   -0.3978   -1.4698 N   0  0  0  0  0  0  0  0  0  0  0  0
   -2.6185    0.0199   -0.7785 C   0  0  0  0  0  0  0  0  0  0  0  0
   -1.4122   -0.4114   -1.1623 N   0  0  0  0  0  0  0  0  0  0  0  0
   -0.2472   -0.0789   -0.6056 C   0  0  0  0  0  0  0  0  0  0  0  0
    1.0102   -0.6117   -1.1102 C   0  0  0  0  0  0  0  0  0  0  0  0
    1.0678   -1.4581   -2.1999 C   0  0  0  0  0  0  0  0  0  0  0  0
    2.2778   -1.9434   -2.6505 C   0  0  0  0  0  0  0  0  0  0  0  0
    3.4642   -1.5952   -2.0229 C   0  0  0  0  0  0  0  0  0  0  0  0
    3.4403   -0.7647   -0.9485 C   0  0  0  0  0  0  0  0  0  0  0  0
    4.6055   -0.3305   -0.1950 C   0  0  0  0  0  0  0  0  0  0  0  0
    4.5251    0.4440    0.7849 O   0  0  0  0  0  0  0  0  0  0  0  0
    5.8842   -0.7977   -0.5763 N   0  0  0  0  0  0  0  0  0  0  0  0
    7.0726   -0.4056    0.1347 C   0  0  0  0  0  0  0  0  0  0  0  0
    7.5318   -1.1447    1.1948 C   0  0  0  0  0  0  0  0  0  0  0  0
    8.6744   -0.7895    1.8983 C   0  0  0  0  0  0  0  0  0  0  0  0
    9.3940    0.3349    1.5464 C   0  0  0  0  0  0  0  0  0  0  0  0
   10.5985    0.7257    2.2733 C   0  0  0  0  0  0  0  0  0  0  0  0
   10.9775    0.0156    3.2360 O   0  0  0  0  0  0  0  0  0  0  0  0
   11.3062    1.8522    1.9109 O   0  0  0  0  0  0  0  0  0  0  0  0
    8.9285    1.0767    0.4781 C   0  0  0  0  0  0  0  0  0  0  0  0
    7.7785    0.7176   -0.2278 C   0  0  0  0  0  0  0  0  0  0  0  0
    2.1957   -0.2857   -0.5115 C   0  0  0  0  0  0  0  0  0  0  0  0
   -0.3171    0.7663    0.4311 N   0  0  0  0  0  0  0  0  0  0  0  0
   -1.5112    1.2547    0.8852 C   0  0  0  0  0  0  0  0  0  0  0  0
   -1.9544    2.3412    2.1503 S   0  0  0  0  0  0  0  0  0  0  0  0
   -3.7977    2.2468    1.7938 C   0  0  0  0  0  0  0  0  0  0  0  0
   -3.7761    1.4612    0.8406 N   0  0  0  0  0  0  0  0  0  0  0  0
   -2.7153    0.9143    0.3140 C   0  0  0  0  0  0  0  0  0  0  0  0
   -5.5853   -0.5821    0.1549 C   0  0  0  0  0  0  0  0  0  0  0  0
   -6.9459   -0.4412    0.4492 C   0  0  0  0  0  0  0  0  0  0  0  0
   -7.4443   -0.7683    1.7090 O   0  0  0  0  0  0  0  0  0  0  0  0
   -6.5685   -1.2487    2.7063 C   0  0  0  0  0  0  0  0  0  0  0  0
  -10.0597    1.7311   -1.2279 H   0  0  0  0  0  0  0  0  0  0  0  0
   -9.9542    0.1536   -2.1121 H   0  0  0  0  0  0  0  0  0  0  0  0
  -11.1229    0.3544   -0.7574 H   0  0  0  0  0  0  0  0  0  0  0  0
   -8.0439    0.7274   -2.5192 H   0  0  0  0  0  0  0  0  0  0  0  0
   -5.6390    0.4697   -3.0079 H   0  0  0  0  0  0  0  0  0  0  0  0
   -3.5916   -0.8928   -2.4084 H   0  0  0  0  0  0  0  0  0  0  0  0
    0.1761   -1.7547   -2.7167 H   0  0  0  0  0  0  0  0  0  0  0  0
    2.3666   -2.6107   -3.5027 H   0  0  0  0  0  0  0  0  0  0  0  0
    4.4213   -1.9793   -2.3811 H   0  0  0  0  0  0  0  0  0  0  0  0
    6.0591   -1.4410   -1.3754 H   0  0  0  0  0  0  0  0  0  0  0  0
    6.9652   -2.0363    1.4777 H   0  0  0  0  0  0  0  0  0  0  0  0
    9.0340   -1.3720    2.7322 H   0  0  0  0  0  0  0  0  0  0  0  0
   12.2085    2.1047    2.3183 H   0  0  0  0  0  0  0  0  0  0  0  0
    9.4926    1.9623    0.1982 H   0  0  0  0  0  0  0  0  0  0  0  0
    7.4460    1.3213   -1.0569 H   0  0  0  0  0  0  0  0  0  0  0  0
    2.1561    0.3726    0.3364 H   0  0  0  0  0  0  0  0  0  0  0  0
   -4.4864    2.8173    2.3978 H   0  0  0  0  0  0  0  0  0  0  0  0
   -4.9470   -0.9628    0.9132 H   0  0  0  0  0  0  0  0  0  0  0  0
   -7.1503   -1.6302    3.5693 H   0  0  0  0  0  0  0  0  0  0  0  0
   -5.8730   -0.4640    3.0581 H   0  0  0  0  0  0  0  0  0  0  0  0
   -5.9546   -2.0808    2.2887 H   0  0  0  0  0  0  0  0  0  0  0  0
  1  2  1  0
  2  3  1  0
  3  4  2  0
  4  5  1  0
  5  6  2  0
  6  7  1  0
  7  8  1  0
  8  9  2  0
  9 10  1  0
 10 11  1  0
 11 12  2  0
 12 13  1  0
 13 14  2  0
 14 15  1  0
 15 16  1  0
 16 17  2  0
 16 18  1  0
 18 19  1  0
 19 20  2  0
 20 21  1  0
 21 22  2  0
 22 23  1  0
 23 24  2  0
 23 25  1  0
 22 26  1  0
 26 27  2  0
 15 28  2  0
 10 29  2  0
 29 30  1  0
 30 31  1  0
 31 32  1  0
 32 33  2  0
 33 34  1  0
  6 35  1  0
 35 36  2  0
 36 37  1  0
 37 38  1  0
 36  3  1  0
 34  8  1  0
 28 11  1  0
 34 30  2  0
 27 19  1  0
  1 39  1  0
  1 40  1  0
  1 41  1  0
  4 42  1  0
  5 43  1  0
  7 44  1  0
 12 45  1  0
 13 46  1  0
 14 47  1  0
 18 48  1  0
 20 49  1  0
 21 50  1  0
 25 51  1  0
 26 52  1  0
 27 53  1  0
 28 54  1  0
 32 55  1  0
 35 56  1  0
 38 57  1  0
 38 58  1  0
 38 59  1  0
M  END
$$$$
