@<TRIPOS>MOLECULE
*****
 59 63 0 0 0
SMALL
GASTEIGER

@<TRIPOS>ATOM
      1 C         -10.1012    0.6194   -1.1034 C.3     1  UNL1        0.0790
      2 O          -9.1617    0.1464   -0.1603 O.3     1  UNL1       -0.4915
      3 C          -7.8271    0.0242   -0.4968 C.ar    1  UNL1        0.1616
      4 C          -7.3711    0.3626   -1.7665 C.ar    1  UNL1       -0.0146
      5 C          -6.0089    0.2126   -2.0324 C.ar    1  UNL1       -0.0368
      6 C          -5.1086   -0.2523   -1.0975 C.ar    1  UNL1        0.0361
      7 N          -3.7634   -0.3978   -1.4698 N.pl3   1  UNL1       -0.2975
      8 C          -2.6185    0.0199   -0.7785 C.ar    1  UNL1        0.1536
      9 N          -1.4122   -0.4114   -1.1623 N.ar    1  UNL1       -0.2102
     10 C          -0.2472   -0.0789   -0.6056 C.ar    1  UNL1        0.1631
     11 C           1.0102   -0.6117   -1.1102 C.ar    1  UNL1        0.0199
     12 C           1.0678   -1.4581   -2.1999 C.ar    1  UNL1       -0.0510
     13 C           2.2778   -1.9434   -2.6505 C.ar    1  UNL1       -0.0604
     14 C           3.4642   -1.5952   -2.0229 C.ar    1  UNL1       -0.0496
     15 C           3.4403   -0.7647   -0.9485 C.ar    1  UNL1        0.0377
     16 C           4.6055   -0.3305   -0.1950 C.2     1  UNL1        0.2483
     17 O           4.5251    0.4440    0.7849 O.2     1  UNL1       -0.2699
     18 N           5.8842   -0.7977   -0.5763 N.am    1  UNL1       -0.2815
     19 C           7.0726   -0.4056    0.1347 C.ar    1  UNL1        0.0337
     20 C           7.5318   -1.1447    1.1948 C.ar    1  UNL1       -0.0397
     21 C           8.6744   -0.7895    1.8983 C.ar    1  UNL1       -0.0460
     22 C           9.3940    0.3349    1.5464 C.ar    1  UNL1        0.0589
     23 C          10.5985    0.7257    2.2733 C.2     1  UNL1        0.3368
     24 O          10.9775    0.0156    3.2360 O.2     1  UNL1       -0.2451
     25 O          11.3062    1.8522    1.9109 O.3     1  UNL1       -0.4771
     26 C           8.9285    1.0767    0.4781 C.ar    1  UNL1       -0.0460
     27 C           7.7785    0.7176   -0.2278 C.ar    1  UNL1       -0.0397
     28 C           2.1957   -0.2857   -0.5115 C.ar    1  UNL1       -0.0389
     29 N          -0.3171    0.7663    0.4311 N.ar    1  UNL1       -0.2184
     30 C          -1.5112    1.2547    0.8852 C.ar    1  UNL1        0.1335
     31 S          -1.9544    2.3412    2.1503 S.2     1  UNL1       -0.0557
     32 C          -3.7977    2.2468    1.7938 C.ar    1  UNL1        0.0675
     33 N          -3.7761    1.4612    0.8406 N.ar    1  UNL1       -0.2423
     34 C          -2.7153    0.9143    0.3140 C.ar    1  UNL1        0.1364
     35 C          -5.5853   -0.5821    0.1549 C.ar    1  UNL1        0.0049
     36 C          -6.9459   -0.4412    0.4492 C.ar    1  UNL1        0.1632
     37 O          -7.4443   -0.7683    1.7090 O.3     1  UNL1       -0.4914
     38 C          -6.5685   -1.2487    2.7063 C.3     1  UNL1        0.0790
     39 H         -10.0597    1.7311   -1.2279 H       1  UNL1        0.0660
     40 H          -9.9542    0.1536   -2.1121 H       1  UNL1        0.0660
     41 H         -11.1229    0.3544   -0.7574 H       1  UNL1        0.0660
     42 H          -8.0439    0.7274   -2.5192 H       1  UNL1        0.0656
     43 H          -5.6390    0.4697   -3.0079 H       1  UNL1        0.0637
     44 H          -3.5916   -0.8928   -2.4084 H       1  UNL1        0.1536
     45 H           0.1761   -1.7547   -2.7167 H       1  UNL1        0.0625
     46 H           2.3666   -2.6107   -3.5027 H       1  UNL1        0.0618
     47 H           4.4213   -1.9793   -2.3811 H       1  UNL1        0.0625
     48 H           6.0591   -1.4410   -1.3754 H       1  UNL1        0.1551
     49 H           6.9652   -2.0363    1.4777 H       1  UNL1        0.0636
     50 H           9.0340   -1.3720    2.7322 H       1  UNL1        0.0626
     51 H          12.2085    2.1047    2.3183 H       1  UNL1        0.2954
     52 H           9.4926    1.9623    0.1982 H       1  UNL1        0.0626
     53 H           7.4460    1.3213   -1.0569 H       1  UNL1        0.0636
     54 H           2.1561    0.3726    0.3364 H       1  UNL1        0.0632
     55 H          -4.4864    2.8173    2.3978 H       1  UNL1        0.0908
     56 H          -4.9470   -0.9628    0.9132 H       1  UNL1        0.0674
     57 H          -7.1503   -1.6302    3.5693 H       1  UNL1        0.0660
     58 H          -5.8730   -0.4640    3.0581 H       1  UNL1        0.0660
     59 H          -5.9546   -2.0808    2.2887 H       1  UNL1        0.0660
@<TRIPOS>BOND
     1     1     2    1
     2     2     3    1
     3     3     4   ar
     4     4     5   ar
     5     5     6   ar
     6     6     7    1
     7     7     8    1
     8     8     9   ar
     9     9    10   ar
    10    10    11    1
    11    11    12   ar
    12    12    13   ar
    13    13    14   ar
    14    14    15   ar
    15    15    16    1
    16    16    17    2
    17    16    18   am
    18    18    19    1
    19    19    20   ar
    20    20    21   ar
    21    21    22   ar
    22    22    23    1
    23    23    24    2
    24    23    25    1
    25    22    26   ar
    26    26    27   ar
    27    15    28   ar
    28    10    29   ar
    29    29    30   ar
    30    30    31   ar
    31    31    32   ar
    32    32    33   ar
    33    33    34   ar
    34     6    35   ar
    35    35    36   ar
    36    36    37    1
    37    37    38    1
    38    36     3   ar
    39    34     8   ar
    40    28    11   ar
    41    34    30   ar
    42    27    19   ar
    43     1    39    1
    44     1    40    1
    45     1    41    1
    46     4    42    1
    47     5    43    1
    48     7    44    1
    49    12    45    1
    50    13    46    1
    51    14    47    1
    52    18    48    1
    53    20    49    1
    54    21    50    1
    55    25    51    1
    56    26    52    1
    57    27    53    1
    58    28    54    1
    59    32    55    1
    60    35    56    1
    61    38    57    1
    62    38    58    1
    63    38    59    1
