
     RDKit          3D

  8  8  0  0  0  0  0  0  0  0999 V2000
   -0.7536   -0.6922   -0.0332 N   0  0  0  0  0  0  0  0  0  0  0  0
   -0.7590    0.6662    0.0071 C   0  0  0  0  0  0  0  0  0  0  0  0
    0.5401    1.0180    0.0393 N   0  0  0  0  0  0  0  0  0  0  0  0
    1.3281   -0.0782    0.0198 C   0  0  0  0  0  0  0  0  0  0  0  0
    0.4958   -1.1112   -0.0248 N   0  0  0  0  0  0  0  0  0  0  0  0
   -1.6345   -1.2844   -0.0655 H   0  0  0  0  0  0  0  0  0  0  0  0
   -1.5983    1.3617    0.0138 H   0  0  0  0  0  0  0  0  0  0  0  0
    2.3814    0.1201    0.0433 H   0  0  0  0  0  0  0  0  0  0  0  0
  1  2  1  0
  2  3  2  0
  3  4  1  0
  4  5  2  0
  5  1  1  0
  1  6  1  0
  2  7  1  0
  4  8  1  0
M  END
$$$$
