@<TRIPOS>MOLECULE
*****
 105 110 0 0 0
SMALL
GASTEIGER

@<TRIPOS>ATOM
      1 C          -7.5709    0.3827    3.4498 C.3     1  UNL1        0.0000
      2 C          -6.3535    0.6450    2.5871 C.3     1  UNL1        0.0000
      3 C          -6.0766    2.1326    2.6783 C.3     1  UNL1        0.0000
      4 C          -4.9999    2.6068    1.7630 C.3     1  UNL1        0.0000
      5 O          -5.3094    2.4107    0.4180 O.3     1  UNL1        0.0000
      6 N          -3.7514    2.0480    2.1390 N.3     1  UNL1        0.0000
      7 C          -2.6335    2.3687    1.3219 C.3     1  UNL1        0.0000
      8 C          -2.6529    3.7779    0.7688 C.3     1  UNL1        0.0000
      9 C          -1.3880    3.9687   -0.0385 C.3     1  UNL1        0.0000
     10 C          -1.4705    3.3843   -1.4363 C.3     1  UNL1        0.0000
     11 C          -0.8543    1.9964   -1.4776 C.3     1  UNL1        0.0000
     12 N          -1.6239    0.9648   -0.8590 N.am    1  UNL1        0.0000
     13 O          -1.3504   -0.2675   -1.3361 O.3     1  UNL1        0.0000
     14 FE          0.3797   -0.7296   -1.2831 Fe      1  UNL1        0.0000
     15 O           0.7509   -2.2587   -0.2705 O.3     1  UNL1        0.0000
     16 C           1.8120   -1.7825    0.4574 C.3     1  UNL1        0.0000
     17 C           3.0156   -1.7873   -0.4407 C.2     1  UNL1        0.0000
     18 C           4.1643   -1.2481   -0.0141 C.2     1  UNL1        0.0000
     19 C           5.4521   -1.1475   -0.7241 C.3     1  UNL1        0.0000
     20 C           5.9375    0.2599   -0.9273 C.3     1  UNL1        0.0000
     21 C           6.1155    0.9200    0.4186 C.3     1  UNL1        0.0000
     22 C           6.6004    2.3371    0.3006 C.3     1  UNL1        0.0000
     23 C           7.9378    2.3827   -0.4064 C.3     1  UNL1        0.0000
     24 C           9.0085    1.6019    0.3211 C.3     1  UNL1        0.0000
     25 C          10.2857    1.6999   -0.4409 C.2     1  UNL1        0.0000
     26 O          11.3415    1.0061    0.1586 O.3     1  UNL1        0.0000
     27 O          10.4824    2.3259   -1.5278 O.2     1  UNL1        0.0000
     28 N           1.5631   -0.4506    0.8693 N.3     1  UNL1        0.0000
     29 C           0.5981   -0.2563    1.8906 C.3     1  UNL1        0.0000
     30 C          -0.4666   -1.3278    2.0089 C.3     1  UNL1        0.0000
     31 C          -1.3618   -0.9383    3.1497 C.3     1  UNL1        0.0000
     32 C          -2.4270   -1.9136    3.3930 C.3     1  UNL1        0.0000
     33 C          -3.5502   -2.1357    2.4842 C.3     1  UNL1        0.0000
     34 N          -3.3496   -2.5756    1.1446 N.am    1  UNL1        0.0000
     35 C          -3.2496   -3.5464    0.1235 C.2     1  UNL1        0.0000
     36 O          -3.4564   -4.3881    1.0339 O.2     1  UNL1        0.0000
     37 C          -3.0148   -3.5812   -1.3269 C.3     1  UNL1        0.0000
     38 C          -3.8095   -2.5222   -2.0634 C.3     1  UNL1        0.0000
     39 O          -2.9265   -2.2321   -3.1300 O.2     1  UNL1        0.0000
     40 C          -1.6598   -2.7615   -2.9197 C.2     1  UNL1        0.0000
     41 N          -1.6970   -3.3639   -1.7786 N.2     1  UNL1        0.0000
     42 C          -0.6125   -2.5771   -3.9041 C.ar    1  UNL1        0.0000
     43 C          -0.8274   -3.2955   -5.0693 C.ar    1  UNL1        0.0000
     44 C          -0.0181   -3.3355   -6.1874 C.ar    1  UNL1        0.0000
     45 C           1.1286   -2.5709   -6.1250 C.ar    1  UNL1        0.0000
     46 C           1.3705   -1.8325   -4.9550 C.ar    1  UNL1        0.0000
     47 C           0.5336   -1.8203   -3.8572 C.ar    1  UNL1        0.0000
     48 O           1.1220   -0.9833   -2.9345 O.3     1  UNL1        0.0000
     49 C          -4.5881   -1.0708    2.5818 C.2     1  UNL1        0.0000
     50 O          -5.0105   -1.1540    1.3764 O.2     1  UNL1        0.0000
     51 O          -5.3108   -0.1037    3.1937 O.3     1  UNL1        0.0000
     52 O           1.4340    0.3575   -0.2024 O.3     1  UNL1        0.0000
     53 C          -2.5219    1.4782    0.1270 C.2     1  UNL1        0.0000
     54 O          -3.4273    0.8087   -0.4229 O.2     1  UNL1        0.0000
     55 H          -8.4046    1.0861    3.2191 H       1  UNL1        0.0000
     56 H          -8.0012   -0.6269    3.2866 H       1  UNL1        0.0000
     57 H          -7.3364    0.5493    4.5400 H       1  UNL1        0.0000
     58 H          -6.5736    0.3212    1.5701 H       1  UNL1        0.0000
     59 H          -5.8323    2.3223    3.7420 H       1  UNL1        0.0000
     60 H          -7.0606    2.6177    2.5202 H       1  UNL1        0.0000
     61 H          -4.9299    3.7067    1.8932 H       1  UNL1        0.0000
     62 H          -6.0155    1.7794    0.2333 H       1  UNL1        0.0000
     63 H          -3.6030    1.7228    3.0765 H       1  UNL1        0.0000
     64 H          -1.7276    2.2968    1.9467 H       1  UNL1        0.0000
     65 H          -3.4828    3.9265    0.0463 H       1  UNL1        0.0000
     66 H          -2.6549    4.5469    1.5598 H       1  UNL1        0.0000
     67 H          -0.5813    3.3914    0.4980 H       1  UNL1        0.0000
     68 H          -1.0385    5.0163   -0.0509 H       1  UNL1        0.0000
     69 H          -2.4937    3.3802   -1.8440 H       1  UNL1        0.0000
     70 H          -0.8495    4.0098   -2.1092 H       1  UNL1        0.0000
     71 H           0.1020    2.1073   -0.8859 H       1  UNL1        0.0000
     72 H          -0.5113    1.7642   -2.5016 H       1  UNL1        0.0000
     73 H           2.0099   -2.3764    1.3750 H       1  UNL1        0.0000
     74 H           3.1011   -2.1915   -1.4580 H       1  UNL1        0.0000
     75 H           4.1585   -0.8255    0.9877 H       1  UNL1        0.0000
     76 H           6.2574   -1.7067   -0.1697 H       1  UNL1        0.0000
     77 H           5.4116   -1.6408   -1.7190 H       1  UNL1        0.0000
     78 H           6.9172    0.2019   -1.4506 H       1  UNL1        0.0000
     79 H           5.2743    0.8407   -1.5765 H       1  UNL1        0.0000
     80 H           5.1248    0.9695    0.9152 H       1  UNL1        0.0000
     81 H           6.8173    0.3567    1.0519 H       1  UNL1        0.0000
     82 H           5.8703    2.9017   -0.2904 H       1  UNL1        0.0000
     83 H           6.7363    2.7708    1.3052 H       1  UNL1        0.0000
     84 H           8.2460    3.4574   -0.4244 H       1  UNL1        0.0000
     85 H           7.8487    2.0349   -1.4602 H       1  UNL1        0.0000
     86 H           9.2003    2.0883    1.3031 H       1  UNL1        0.0000
     87 H           8.7462    0.5478    0.4295 H       1  UNL1        0.0000
     88 H          12.2291    0.9940   -0.3317 H       1  UNL1        0.0000
     89 H           0.0627    0.7165    1.8276 H       1  UNL1        0.0000
     90 H           1.1334   -0.2406    2.8738 H       1  UNL1        0.0000
     91 H          -0.0082   -2.3055    2.2706 H       1  UNL1        0.0000
     92 H          -1.0866   -1.3963    1.1128 H       1  UNL1        0.0000
     93 H          -1.7551    0.0879    2.8673 H       1  UNL1        0.0000
     94 H          -0.7674   -0.7077    4.0768 H       1  UNL1        0.0000
     95 H          -2.8909   -1.6669    4.4045 H       1  UNL1        0.0000
     96 H          -1.9495   -2.9311    3.6099 H       1  UNL1        0.0000
     97 H          -4.1110   -3.0406    2.9935 H       1  UNL1        0.0000
     98 H          -3.2333   -1.7318    0.5538 H       1  UNL1        0.0000
     99 H          -3.3609   -4.6039   -1.6468 H       1  UNL1        0.0000
    100 H          -4.0696   -1.6604   -1.4373 H       1  UNL1        0.0000
    101 H          -4.6993   -3.0215   -2.5268 H       1  UNL1        0.0000
    102 H          -1.7367   -3.9160   -5.1593 H       1  UNL1        0.0000
    103 H          -0.2695   -3.9255   -7.0484 H       1  UNL1        0.0000
    104 H           1.7613   -2.6067   -7.0081 H       1  UNL1        0.0000
    105 H           2.3129   -1.2972   -5.0912 H       1  UNL1        0.0000
@<TRIPOS>BOND
     1     1     2    1
     2     2     3    1
     3     3     4    1
     4     4     5    1
     5     4     6    1
     6     6     7    1
     7     7     8    1
     8     8     9    1
     9     9    10    1
    10    10    11    1
    11    11    12    1
    12    12    13    1
    13    14    13    1
    14    14    15    1
    15    15    16    1
    16    16    17    1
    17    17    18    2
    18    18    19    1
    19    19    20    1
    20    20    21    1
    21    21    22    1
    22    22    23    1
    23    23    24    1
    24    24    25    1
    25    25    26    1
    26    25    27    2
    27    16    28    1
    28    28    29    1
    29    29    30    1
    30    30    31    1
    31    31    32    1
    32    32    33    1
    33    33    34    1
    34    34    35   am
    35    35    36    2
    36    35    37    1
    37    37    38    1
    38    38    39    1
    39    39    40    1
    40    40    41    2
    41    40    42    1
    42    42    43   ar
    43    43    44   ar
    44    44    45   ar
    45    45    46   ar
    46    46    47   ar
    47    47    48    1
    48    33    49    1
    49    49    50    2
    50    49    51    1
    51    28    52    1
    52    12    53   am
    53    53    54    2
    54    51     2    1
    55    53     7    1
    56    48    14    1
    57    52    14    1
    58    41    37    1
    59    47    42   ar
    60     1    55    1
    61     1    56    1
    62     1    57    1
    63     2    58    1
    64     3    59    1
    65     3    60    1
    66     4    61    1
    67     5    62    1
    68     6    63    1
    69     7    64    1
    70     8    65    1
    71     8    66    1
    72     9    67    1
    73     9    68    1
    74    10    69    1
    75    10    70    1
    76    11    71    1
    77    11    72    1
    78    16    73    1
    79    17    74    1
    80    18    75    1
    81    19    76    1
    82    19    77    1
    83    20    78    1
    84    20    79    1
    85    21    80    1
    86    21    81    1
    87    22    82    1
    88    22    83    1
    89    23    84    1
    90    23    85    1
    91    24    86    1
    92    24    87    1
    93    26    88    1
    94    29    89    1
    95    29    90    1
    96    30    91    1
    97    30    92    1
    98    31    93    1
    99    31    94    1
   100    32    95    1
   101    32    96    1
   102    33    97    1
   103    34    98    1
   104    37    99    1
   105    38   100    1
   106    38   101    1
   107    43   102    1
   108    44   103    1
   109    45   104    1
   110    46   105    1
