
     RDKit          3D

105110  0  0  0  0  0  0  0  0999 V2000
   -7.5709    0.3827    3.4498 C   0  0  0  0  0  0  0  0  0  0  0  0
   -6.3535    0.6450    2.5871 C   0  0  1  0  0  0  0  0  0  0  0  0
   -6.0766    2.1326    2.6783 C   0  0  0  0  0  0  0  0  0  0  0  0
   -4.9999    2.6068    1.7630 C   0  0  2  0  0  0  0  0  0  0  0  0
   -5.3094    2.4107    0.4180 O   0  0  0  0  0  0  0  0  0  0  0  0
   -3.7514    2.0480    2.1390 N   0  0  0  0  0  0  0  0  0  0  0  0
   -2.6335    2.3687    1.3219 C   0  0  2  0  0  0  0  0  0  0  0  0
   -2.6529    3.7779    0.7688 C   0  0  0  0  0  0  0  0  0  0  0  0
   -1.3880    3.9687   -0.0385 C   0  0  0  0  0  0  0  0  0  0  0  0
   -1.4705    3.3843   -1.4363 C   0  0  0  0  0  0  0  0  0  0  0  0
   -0.8543    1.9964   -1.4776 C   0  0  0  0  0  0  0  0  0  0  0  0
   -1.6239    0.9648   -0.8590 N   0  0  0  0  0  0  0  0  0  0  0  0
   -1.3504   -0.2675   -1.3361 O   0  0  0  0  0  0  0  0  0  0  0  0
    0.3797   -0.7296   -1.2831 Fe  0  0  1  0  0  4  0  0  0  0  0  0
    0.7509   -2.2587   -0.2705 O   0  0  0  0  0  0  0  0  0  0  0  0
    1.8120   -1.7825    0.4574 C   0  0  1  0  0  0  0  0  0  0  0  0
    3.0156   -1.7873   -0.4407 C   0  0  0  0  0  0  0  0  0  0  0  0
    4.1643   -1.2481   -0.0141 C   0  0  0  0  0  0  0  0  0  0  0  0
    5.4521   -1.1475   -0.7241 C   0  0  0  0  0  0  0  0  0  0  0  0
    5.9375    0.2599   -0.9273 C   0  0  0  0  0  0  0  0  0  0  0  0
    6.1155    0.9200    0.4186 C   0  0  0  0  0  0  0  0  0  0  0  0
    6.6004    2.3371    0.3006 C   0  0  0  0  0  0  0  0  0  0  0  0
    7.9378    2.3827   -0.4064 C   0  0  0  0  0  0  0  0  0  0  0  0
    9.0085    1.6019    0.3211 C   0  0  0  0  0  0  0  0  0  0  0  0
   10.2857    1.6999   -0.4409 C   0  0  0  0  0  0  0  0  0  0  0  0
   11.3415    1.0061    0.1586 O   0  0  0  0  0  0  0  0  0  0  0  0
   10.4824    2.3259   -1.5278 O   0  0  0  0  0  0  0  0  0  0  0  0
    1.5631   -0.4506    0.8693 N   0  0  0  0  0  0  0  0  0  0  0  0
    0.5981   -0.2563    1.8906 C   0  0  0  0  0  0  0  0  0  0  0  0
   -0.4666   -1.3278    2.0089 C   0  0  0  0  0  0  0  0  0  0  0  0
   -1.3618   -0.9383    3.1497 C   0  0  0  0  0  0  0  0  0  0  0  0
   -2.4270   -1.9136    3.3930 C   0  0  0  0  0  0  0  0  0  0  0  0
   -3.5502   -2.1357    2.4842 C   0  0  2  0  0  0  0  0  0  0  0  0
   -3.3496   -2.5756    1.1446 N   0  0  0  0  0  0  0  0  0  0  0  0
   -3.2496   -3.5464    0.1235 C   0  0  0  0  0  0  0  0  0  0  0  0
   -3.4564   -4.3881    1.0339 O   0  0  0  0  0  0  0  0  0  0  0  0
   -3.0148   -3.5812   -1.3269 C   0  0  1  0  0  0  0  0  0  0  0  0
   -3.8095   -2.5222   -2.0634 C   0  0  0  0  0  0  0  0  0  0  0  0
   -2.9265   -2.2321   -3.1300 O   0  0  0  0  0  0  0  0  0  0  0  0
   -1.6598   -2.7615   -2.9197 C   0  0  0  0  0  0  0  0  0  0  0  0
   -1.6970   -3.3639   -1.7786 N   0  0  0  0  0  0  0  0  0  0  0  0
   -0.6125   -2.5771   -3.9041 C   0  0  0  0  0  0  0  0  0  0  0  0
   -0.8274   -3.2955   -5.0693 C   0  0  0  0  0  0  0  0  0  0  0  0
   -0.0181   -3.3355   -6.1874 C   0  0  0  0  0  0  0  0  0  0  0  0
    1.1286   -2.5709   -6.1250 C   0  0  0  0  0  0  0  0  0  0  0  0
    1.3705   -1.8325   -4.9550 C   0  0  0  0  0  0  0  0  0  0  0  0
    0.5336   -1.8203   -3.8572 C   0  0  0  0  0  0  0  0  0  0  0  0
    1.1220   -0.9833   -2.9345 O   0  0  0  0  0  0  0  0  0  0  0  0
   -4.5881   -1.0708    2.5818 C   0  0  0  0  0  0  0  0  0  0  0  0
   -5.0105   -1.1540    1.3764 O   0  0  0  0  0  0  0  0  0  0  0  0
   -5.3108   -0.1037    3.1937 O   0  0  0  0  0  0  0  0  0  0  0  0
    1.4340    0.3575   -0.2024 O   0  0  0  0  0  0  0  0  0  0  0  0
   -2.5219    1.4782    0.1270 C   0  0  0  0  0  0  0  0  0  0  0  0
   -3.4273    0.8087   -0.4229 O   0  0  0  0  0  0  0  0  0  0  0  0
   -8.4046    1.0861    3.2191 H   0  0  0  0  0  0  0  0  0  0  0  0
   -8.0012   -0.6269    3.2866 H   0  0  0  0  0  0  0  0  0  0  0  0
   -7.3364    0.5493    4.5400 H   0  0  0  0  0  0  0  0  0  0  0  0
   -6.5736    0.3212    1.5701 H   0  0  0  0  0  0  0  0  0  0  0  0
   -5.8323    2.3223    3.7420 H   0  0  0  0  0  0  0  0  0  0  0  0
   -7.0606    2.6177    2.5202 H   0  0  0  0  0  0  0  0  0  0  0  0
   -4.9299    3.7067    1.8932 H   0  0  0  0  0  0  0  0  0  0  0  0
   -6.0155    1.7794    0.2333 H   0  0  0  0  0  0  0  0  0  0  0  0
   -3.6030    1.7228    3.0765 H   0  0  0  0  0  0  0  0  0  0  0  0
   -1.7276    2.2968    1.9467 H   0  0  0  0  0  0  0  0  0  0  0  0
   -3.4828    3.9265    0.0463 H   0  0  0  0  0  0  0  0  0  0  0  0
   -2.6549    4.5469    1.5598 H   0  0  0  0  0  0  0  0  0  0  0  0
   -0.5813    3.3914    0.4980 H   0  0  0  0  0  0  0  0  0  0  0  0
   -1.0385    5.0163   -0.0509 H   0  0  0  0  0  0  0  0  0  0  0  0
   -2.4937    3.3802   -1.8440 H   0  0  0  0  0  0  0  0  0  0  0  0
   -0.8495    4.0098   -2.1092 H   0  0  0  0  0  0  0  0  0  0  0  0
    0.1020    2.1073   -0.8859 H   0  0  0  0  0  0  0  0  0  0  0  0
   -0.5113    1.7642   -2.5016 H   0  0  0  0  0  0  0  0  0  0  0  0
    2.0099   -2.3764    1.3750 H   0  0  0  0  0  0  0  0  0  0  0  0
    3.1011   -2.1915   -1.4580 H   0  0  0  0  0  0  0  0  0  0  0  0
    4.1585   -0.8255    0.9877 H   0  0  0  0  0  0  0  0  0  0  0  0
    6.2574   -1.7067   -0.1697 H   0  0  0  0  0  0  0  0  0  0  0  0
    5.4116   -1.6408   -1.7190 H   0  0  0  0  0  0  0  0  0  0  0  0
    6.9172    0.2019   -1.4506 H   0  0  0  0  0  0  0  0  0  0  0  0
    5.2743    0.8407   -1.5765 H   0  0  0  0  0  0  0  0  0  0  0  0
    5.1248    0.9695    0.9152 H   0  0  0  0  0  0  0  0  0  0  0  0
    6.8173    0.3567    1.0519 H   0  0  0  0  0  0  0  0  0  0  0  0
    5.8703    2.9017   -0.2904 H   0  0  0  0  0  0  0  0  0  0  0  0
    6.7363    2.7708    1.3052 H   0  0  0  0  0  0  0  0  0  0  0  0
    8.2460    3.4574   -0.4244 H   0  0  0  0  0  0  0  0  0  0  0  0
    7.8487    2.0349   -1.4602 H   0  0  0  0  0  0  0  0  0  0  0  0
    9.2003    2.0883    1.3031 H   0  0  0  0  0  0  0  0  0  0  0  0
    8.7462    0.5478    0.4295 H   0  0  0  0  0  0  0  0  0  0  0  0
   12.2291    0.9940   -0.3317 H   0  0  0  0  0  0  0  0  0  0  0  0
    0.0627    0.7165    1.8276 H   0  0  0  0  0  0  0  0  0  0  0  0
    1.1334   -0.2406    2.8738 H   0  0  0  0  0  0  0  0  0  0  0  0
   -0.0082   -2.3055    2.2706 H   0  0  0  0  0  0  0  0  0  0  0  0
   -1.0866   -1.3963    1.1128 H   0  0  0  0  0  0  0  0  0  0  0  0
   -1.7551    0.0879    2.8673 H   0  0  0  0  0  0  0  0  0  0  0  0
   -0.7674   -0.7077    4.0768 H   0  0  0  0  0  0  0  0  0  0  0  0
   -2.8909   -1.6669    4.4045 H   0  0  0  0  0  0  0  0  0  0  0  0
   -1.9495   -2.9311    3.6099 H   0  0  0  0  0  0  0  0  0  0  0  0
   -4.1110   -3.0406    2.9935 H   0  0  0  0  0  0  0  0  0  0  0  0
   -3.2333   -1.7318    0.5538 H   0  0  0  0  0  0  0  0  0  0  0  0
   -3.3609   -4.6039   -1.6468 H   0  0  0  0  0  0  0  0  0  0  0  0
   -4.0696   -1.6604   -1.4373 H   0  0  0  0  0  0  0  0  0  0  0  0
   -4.6993   -3.0215   -2.5268 H   0  0  0  0  0  0  0  0  0  0  0  0
   -1.7367   -3.9160   -5.1593 H   0  0  0  0  0  0  0  0  0  0  0  0
   -0.2695   -3.9255   -7.0484 H   0  0  0  0  0  0  0  0  0  0  0  0
    1.7613   -2.6067   -7.0081 H   0  0  0  0  0  0  0  0  0  0  0  0
    2.3129   -1.2972   -5.0912 H   0  0  0  0  0  0  0  0  0  0  0  0
  1  2  1  0
  2  3  1  0
  3  4  1  0
  4  5  1  0
  4  6  1  0
  6  7  1  0
  7  8  1  0
  8  9  1  0
  9 10  1  0
 10 11  1  0
 11 12  1  0
 12 13  1  0
 14 13  1  6
 14 15  1  0
 15 16  1  0
 16 17  1  0
 17 18  2  0
 18 19  1  0
 19 20  1  0
 20 21  1  0
 21 22  1  0
 22 23  1  0
 23 24  1  0
 24 25  1  0
 25 26  1  0
 25 27  2  0
 16 28  1  0
 28 29  1  6
 29 30  1  0
 30 31  1  0
 31 32  1  0
 32 33  1  0
 33 34  1  0
 34 35  1  0
 35 36  2  0
 35 37  1  0
 37 38  1  0
 38 39  1  0
 39 40  1  0
 40 41  2  0
 40 42  1  0
 42 43  2  0
 43 44  1  0
 44 45  2  0
 45 46  1  0
 46 47  2  0
 47 48  1  0
 33 49  1  0
 49 50  2  0
 49 51  1  0
 28 52  1  0
 12 53  1  0
 53 54  2  0
 51  2  1  0
 53  7  1  0
 48 14  1  0
 52 14  1  0
 41 37  1  0
 47 42  1  0
  1 55  1  0
  1 56  1  0
  1 57  1  0
  2 58  1  6
  3 59  1  0
  3 60  1  0
  4 61  1  6
  5 62  1  0
  6 63  1  0
  7 64  1  1
  8 65  1  0
  8 66  1  0
  9 67  1  0
  9 68  1  0
 10 69  1  0
 10 70  1  0
 11 71  1  0
 11 72  1  0
 16 73  1  1
 17 74  1  0
 18 75  1  0
 19 76  1  0
 19 77  1  0
 20 78  1  0
 20 79  1  0
 21 80  1  0
 21 81  1  0
 22 82  1  0
 22 83  1  0
 23 84  1  0
 23 85  1  0
 24 86  1  0
 24 87  1  0
 26 88  1  0
 29 89  1  0
 29 90  1  0
 30 91  1  0
 30 92  1  0
 31 93  1  0
 31 94  1  0
 32 95  1  0
 32 96  1  0
 33 97  1  1
 34 98  1  0
 37 99  1  6
 38100  1  0
 38101  1  0
 43102  1  0
 44103  1  0
 45104  1  0
 46105  1  0
M  END
$$$$
