@<TRIPOS>MOLECULE
*****
 38 37 0 0 0
SMALL
GASTEIGER

@<TRIPOS>ATOM
      1 O          -3.9214   -2.1046    0.4591 O.3     1  UNL1       -0.3950
      2 C          -4.1886   -1.0959   -0.4536 C.3     1  UNL1        0.0442
      3 C          -2.8708   -0.7435   -1.1350 C.3     1  UNL1       -0.0297
      4 C          -1.9056   -0.2750   -0.0461 C.3     1  UNL1       -0.0507
      5 C          -0.6291    0.0637   -0.7256 C.3     1  UNL1       -0.0501
      6 C           0.4825    0.5471    0.1042 C.3     1  UNL1       -0.0390
      7 C           0.1659    1.8225    0.8665 C.3     1  UNL1       -0.0269
      8 C          -0.1878    2.9686   -0.0822 C.3     1  UNL1        0.0445
      9 O          -0.4516    4.0645    0.7661 O.3     1  UNL1       -0.3950
     10 C           1.0516   -0.4283    1.0896 C.3     1  UNL1       -0.0501
     11 C           1.6137   -1.6784    0.5076 C.3     1  UNL1       -0.0507
     12 C           2.7440   -1.4514   -0.4586 C.3     1  UNL1       -0.0297
     13 C           3.8893   -0.7414    0.2272 C.3     1  UNL1        0.0442
     14 O           4.8764   -0.5868   -0.7662 O.3     1  UNL1       -0.3950
     15 H          -4.5322   -2.0979    1.2541 H       1  UNL1        0.2094
     16 H          -4.5112   -0.1806    0.0606 H       1  UNL1        0.0557
     17 H          -4.8964   -1.3868   -1.2473 H       1  UNL1        0.0557
     18 H          -2.4311   -1.6048   -1.6687 H       1  UNL1        0.0287
     19 H          -3.0851    0.1308   -1.7904 H       1  UNL1        0.0287
     20 H          -2.4217    0.5521    0.4523 H       1  UNL1        0.0266
     21 H          -1.8557   -1.1032    0.6799 H       1  UNL1        0.0266
     22 H          -0.8705    0.8686   -1.4538 H       1  UNL1        0.0268
     23 H          -0.3006   -0.7805   -1.3321 H       1  UNL1        0.0268
     24 H           1.3095    0.8139   -0.5924 H       1  UNL1        0.0301
     25 H          -0.6589    1.7364    1.5699 H       1  UNL1        0.0290
     26 H           1.0446    2.1777    1.4425 H       1  UNL1        0.0290
     27 H          -1.1726    2.7111   -0.5268 H       1  UNL1        0.0557
     28 H           0.5873    3.1662   -0.8217 H       1  UNL1        0.0557
     29 H           0.2388    4.7526    0.7366 H       1  UNL1        0.2094
     30 H           1.8539    0.0664    1.6774 H       1  UNL1        0.0268
     31 H           0.2677   -0.7054    1.8250 H       1  UNL1        0.0268
     32 H           2.0590   -2.2469    1.3518 H       1  UNL1        0.0266
     33 H           0.9094   -2.3515    0.0278 H       1  UNL1        0.0266
     34 H           3.1559   -2.4758   -0.6952 H       1  UNL1        0.0287
     35 H           2.4386   -0.9592   -1.3968 H       1  UNL1        0.0287
     36 H           4.2341   -1.3884    1.0609 H       1  UNL1        0.0557
     37 H           3.5840    0.2723    0.6191 H       1  UNL1        0.0557
     38 H           4.3845   -0.3282   -1.5856 H       1  UNL1        0.2094
@<TRIPOS>BOND
     1     1     2    1
     2     2     3    1
     3     3     4    1
     4     4     5    1
     5     5     6    1
     6     6     7    1
     7     7     8    1
     8     8     9    1
     9     6    10    1
    10    10    11    1
    11    11    12    1
    12    12    13    1
    13    13    14    1
    14     1    15    1
    15     2    16    1
    16     2    17    1
    17     3    18    1
    18     3    19    1
    19     4    20    1
    20     4    21    1
    21     5    22    1
    22     5    23    1
    23     6    24    1
    24     7    25    1
    25     7    26    1
    26     8    27    1
    27     8    28    1
    28     9    29    1
    29    10    30    1
    30    10    31    1
    31    11    32    1
    32    11    33    1
    33    12    34    1
    34    12    35    1
    35    13    36    1
    36    13    37    1
    37    14    38    1
