@<TRIPOS>MOLECULE
*****
 64 68 0 0 0
SMALL
GASTEIGER

@<TRIPOS>ATOM
      1 O           1.5569    2.1273   -2.9589 O.2     1  UNL1       -0.2506
      2 C           2.4232    1.2193   -2.8915 C.2     1  UNL1        0.3100
      3 O           3.5934    1.3454   -3.6051 O.3     1  UNL1       -0.4804
      4 C           2.1704    0.0259   -2.0431 C.3     1  UNL1        0.0828
      5 C           0.8437    0.0866   -1.3556 C.3     1  UNL1        0.0900
      6 S          -0.1497   -1.3466   -1.6718 S.O2    1  UNL1       -0.0271
      7 O           0.5467   -2.6086   -1.2612 O.2     1  UNL1       -0.1741
      8 O          -0.4302   -1.4785   -3.1533 O.2     1  UNL1       -0.1741
      9 C          -1.6968   -1.2613   -0.8499 C.3     1  UNL1        0.0700
     10 C          -2.4370   -0.0243   -1.3538 C.3     1  UNL1       -0.0083
     11 C          -3.7654    0.0893   -0.6861 C.ar    1  UNL1       -0.0458
     12 C          -4.8915   -0.5049   -1.2323 C.ar    1  UNL1       -0.0580
     13 C          -6.1303   -0.4146   -0.6343 C.ar    1  UNL1       -0.0538
     14 C          -6.3082    0.2827    0.5545 C.ar    1  UNL1       -0.0179
     15 C          -7.6168    0.3775    1.1870 C.ar    1  UNL1       -0.0178
     16 C          -8.5197   -0.6554    1.0677 C.ar    1  UNL1       -0.0527
     17 C          -9.7744   -0.6059    1.6529 C.ar    1  UNL1       -0.0428
     18 C         -10.0875    0.5237    2.3640 C.ar    1  UNL1        0.0410
     19 CL        -11.6647    0.6336    3.1237 Cl      1  UNL1       -0.0835
     20 C          -9.1899    1.5669    2.4909 C.ar    1  UNL1       -0.0428
     21 C          -7.9343    1.4982    1.8956 C.ar    1  UNL1       -0.0527
     22 C          -5.1843    0.8725    1.0944 C.ar    1  UNL1       -0.0538
     23 C          -3.9376    0.7823    0.4936 C.ar    1  UNL1       -0.0580
     24 C           1.1541    0.1214    0.1187 C.3     1  UNL1       -0.0296
     25 C           2.4628   -0.6257    0.1899 C.3     1  UNL1       -0.0460
     26 C           3.2263   -0.0164   -0.9667 C.3     1  UNL1       -0.0065
     27 C           4.3838   -0.8822   -1.4032 C.3     1  UNL1        0.0505
     28 N           5.3700   -0.9085   -0.3712 N.ar    1  UNL1       -0.2101
     29 N           5.3149   -1.8347    0.5659 N.ar    1  UNL1       -0.0621
     30 N           6.1980   -1.8985    1.5321 N.ar    1  UNL1       -0.1308
     31 C           7.2039   -1.0137    1.6059 C.ar    1  UNL1        0.1001
     32 C           8.1439   -1.0626    2.6139 C.ar    1  UNL1       -0.0337
     33 C           9.1545   -0.1250    2.6355 C.ar    1  UNL1       -0.0597
     34 C           9.2414    0.8568    1.6712 C.ar    1  UNL1       -0.0609
     35 C           8.3035    0.9136    0.6570 C.ar    1  UNL1       -0.0473
     36 C           7.3111   -0.0235    0.6532 C.ar    1  UNL1        0.0680
     37 C           6.3464    0.0079   -0.3611 C.ar    1  UNL1        0.2778
     38 O           6.3639    0.8718   -1.2696 O.2     1  UNL1       -0.2655
     39 H           3.8492    2.1881   -4.1310 H       1  UNL1        0.2951
     40 H           2.2340   -0.8683   -2.6993 H       1  UNL1        0.0436
     41 H           0.3436    1.0172   -1.6998 H       1  UNL1        0.0544
     42 H          -2.2753   -2.1718   -0.9912 H       1  UNL1        0.0503
     43 H          -1.4918   -1.1533    0.2536 H       1  UNL1        0.0503
     44 H          -2.5419   -0.1500   -2.4516 H       1  UNL1        0.0329
     45 H          -1.8262    0.8881   -1.2064 H       1  UNL1        0.0329
     46 H          -4.7538   -1.0541   -2.1681 H       1  UNL1        0.0620
     47 H          -7.0154   -0.8850   -1.0688 H       1  UNL1        0.0624
     48 H          -8.2750   -1.5464    0.5079 H       1  UNL1        0.0624
     49 H         -10.4491   -1.4524    1.5261 H       1  UNL1        0.0632
     50 H          -9.4404    2.4438    3.0463 H       1  UNL1        0.0632
     51 H          -7.2288    2.3257    1.9990 H       1  UNL1        0.0624
     52 H          -5.3139    1.4187    2.0218 H       1  UNL1        0.0624
     53 H          -3.0598    1.2551    0.9347 H       1  UNL1        0.0620
     54 H           0.3618   -0.3511    0.7308 H       1  UNL1        0.0284
     55 H           1.3383    1.1801    0.4247 H       1  UNL1        0.0284
     56 H           2.2766   -1.6818   -0.0283 H       1  UNL1        0.0269
     57 H           2.9835   -0.4645    1.1580 H       1  UNL1        0.0269
     58 H           3.5281    0.9938   -0.6780 H       1  UNL1        0.0327
     59 H           3.9829   -1.8927   -1.6512 H       1  UNL1        0.0513
     60 H           4.8270   -0.4291   -2.3030 H       1  UNL1        0.0513
     61 H           8.0656   -1.8373    3.3648 H       1  UNL1        0.0639
     62 H           9.8926   -0.1632    3.4263 H       1  UNL1        0.0618
     63 H          10.0246    1.5928    1.6779 H       1  UNL1        0.0618
     64 H           8.3691    1.6766   -0.0943 H       1  UNL1        0.0626
@<TRIPOS>BOND
     1     1     2    2
     2     2     3    1
     3     2     4    1
     4     4     5    1
     5     5     6    1
     6     6     7    2
     7     6     8    2
     8     6     9    1
     9     9    10    1
    10    10    11    1
    11    11    12   ar
    12    12    13   ar
    13    13    14   ar
    14    14    15    1
    15    15    16   ar
    16    16    17   ar
    17    17    18   ar
    18    18    19    1
    19    18    20   ar
    20    20    21   ar
    21    14    22   ar
    22    22    23   ar
    23     5    24    1
    24    24    25    1
    25    25    26    1
    26    26    27    1
    27    27    28    1
    28    28    29   ar
    29    29    30   ar
    30    30    31   ar
    31    31    32   ar
    32    32    33   ar
    33    33    34   ar
    34    34    35   ar
    35    35    36   ar
    36    36    37   ar
    37    37    38    2
    38    26     4    1
    39    37    28   ar
    40    23    11   ar
    41    36    31   ar
    42    21    15   ar
    43     3    39    1
    44     4    40    1
    45     5    41    1
    46     9    42    1
    47     9    43    1
    48    10    44    1
    49    10    45    1
    50    12    46    1
    51    13    47    1
    52    16    48    1
    53    17    49    1
    54    20    50    1
    55    21    51    1
    56    22    52    1
    57    23    53    1
    58    24    54    1
    59    24    55    1
    60    25    56    1
    61    25    57    1
    62    26    58    1
    63    27    59    1
    64    27    60    1
    65    32    61    1
    66    33    62    1
    67    34    63    1
    68    35    64    1
