
     RDKit          3D

 73 75  0  0  0  0  0  0  0  0999 V2000
   -1.0066   -1.0054    3.9759 C   0  0  0  0  0  0  0  0  0  0  0  0
   -0.7809   -1.2083    2.6201 O   0  0  0  0  0  0  0  0  0  0  0  0
   -1.7175   -1.1247    1.6048 C   0  0  0  0  0  0  0  0  0  0  0  0
   -2.9846   -0.8078    2.0143 N   0  0  0  0  0  0  0  0  0  0  0  0
   -3.9668   -0.7018    1.1120 C   0  0  0  0  0  0  0  0  0  0  0  0
   -5.2833   -0.3617    1.5306 N   0  0  0  0  0  0  0  0  0  0  0  0
   -5.8205    0.9790    1.3561 C   0  0  0  0  0  0  0  0  0  0  0  0
   -5.9090    1.3190   -0.1245 C   0  0  0  0  0  0  0  0  0  0  0  0
   -6.7986    0.4031   -0.8713 C   0  0  0  0  0  0  0  0  0  0  0  0
   -8.2321    0.3556   -0.5128 C   0  0  0  0  0  0  0  0  0  0  0  0
   -9.0247    1.5023   -0.6866 N   0  0  0  0  0  0  0  0  0  0  0  0
   -8.8351    2.6373    0.1201 C   0  0  0  0  0  0  0  0  0  0  0  0
  -10.4142    1.2174   -0.9975 C   0  0  0  0  0  0  0  0  0  0  0  0
   -3.6840   -0.9107   -0.1902 N   0  0  0  0  0  0  0  0  0  0  0  0
   -2.4504   -1.2210   -0.6097 C   0  0  0  0  0  0  0  0  0  0  0  0
   -1.3920   -1.3422    0.3053 C   0  0  0  0  0  0  0  0  0  0  0  0
   -0.0859   -1.6935   -0.1802 C   0  0  0  0  0  0  0  0  0  0  0  0
    0.0979   -1.8547   -1.4532 O   0  0  0  0  0  0  0  0  0  0  0  0
    1.0560   -1.8855    0.6190 N   0  0  0  0  0  0  0  0  0  0  0  0
    2.3195   -2.2305    0.0395 C   0  0  0  0  0  0  0  0  0  0  0  0
    3.2354   -1.2563   -0.2848 C   0  0  0  0  0  0  0  0  0  0  0  0
    4.4367   -1.6597   -0.8597 C   0  0  0  0  0  0  0  0  0  0  0  0
    5.4860   -0.7287   -1.2327 C   0  0  0  0  0  0  0  0  0  0  0  0
    6.5070   -1.1567   -1.8189 O   0  0  0  0  0  0  0  0  0  0  0  0
    5.4478    0.6735   -0.9777 N   0  0  0  0  0  0  0  0  0  0  0  0
    6.4995    1.5467   -1.3609 C   0  0  0  0  0  0  0  0  0  0  0  0
    6.5517    2.2098   -2.5459 C   0  0  0  0  0  0  0  0  0  0  0  0
    7.6197    3.0554   -2.8732 C   0  0  0  0  0  0  0  0  0  0  0  0
    8.6341    3.2043   -1.9543 C   0  0  0  0  0  0  0  0  0  0  0  0
    8.6105    2.5372   -0.7285 C   0  0  0  0  0  0  0  0  0  0  0  0
    9.7331    2.7354    0.2253 C   0  0  0  0  0  0  0  0  0  0  0  0
   10.3124    1.4858    0.4546 F   0  0  0  0  0  0  0  0  0  0  0  0
   10.7091    3.5226   -0.3726 F   0  0  0  0  0  0  0  0  0  0  0  0
    9.3712    3.3140    1.4024 F   0  0  0  0  0  0  0  0  0  0  0  0
    7.5413    1.7223   -0.4596 C   0  0  0  0  0  0  0  0  0  0  0  0
    7.5049    0.9999    0.8465 C   0  0  0  0  0  0  0  0  0  0  0  0
    4.6579   -3.0081   -1.0794 C   0  0  0  0  0  0  0  0  0  0  0  0
    3.7254   -3.9787   -0.7467 C   0  0  0  0  0  0  0  0  0  0  0  0
    2.5560   -3.5664   -0.1849 C   0  0  0  0  0  0  0  0  0  0  0  0
    1.5431   -4.6213    0.1744 C   0  0  0  0  0  0  0  0  0  0  0  0
   -1.1694   -1.9622    4.5325 H   0  0  0  0  0  0  0  0  0  0  0  0
   -0.0503   -0.5803    4.3996 H   0  0  0  0  0  0  0  0  0  0  0  0
   -1.7811   -0.2464    4.2085 H   0  0  0  0  0  0  0  0  0  0  0  0
   -5.8768   -1.0787    1.9704 H   0  0  0  0  0  0  0  0  0  0  0  0
   -6.8334    1.0685    1.7771 H   0  0  0  0  0  0  0  0  0  0  0  0
   -5.1924    1.7209    1.8839 H   0  0  0  0  0  0  0  0  0  0  0  0
   -4.8556    1.1215   -0.5090 H   0  0  0  0  0  0  0  0  0  0  0  0
   -6.0804    2.3673   -0.3211 H   0  0  0  0  0  0  0  0  0  0  0  0
   -6.3982   -0.6474   -0.7698 H   0  0  0  0  0  0  0  0  0  0  0  0
   -6.6937    0.6142   -1.9618 H   0  0  0  0  0  0  0  0  0  0  0  0
   -8.3758   -0.0479    0.5260 H   0  0  0  0  0  0  0  0  0  0  0  0
   -8.6855   -0.4647   -1.1594 H   0  0  0  0  0  0  0  0  0  0  0  0
   -9.8429    3.1894    0.1276 H   0  0  0  0  0  0  0  0  0  0  0  0
   -8.6636    2.3804    1.1705 H   0  0  0  0  0  0  0  0  0  0  0  0
   -8.1540    3.4193   -0.2846 H   0  0  0  0  0  0  0  0  0  0  0  0
  -10.4215    0.4836   -1.8263 H   0  0  0  0  0  0  0  0  0  0  0  0
  -10.8466    0.7082   -0.1064 H   0  0  0  0  0  0  0  0  0  0  0  0
  -11.0072    2.1200   -1.1657 H   0  0  0  0  0  0  0  0  0  0  0  0
   -2.2215   -1.3868   -1.6422 H   0  0  0  0  0  0  0  0  0  0  0  0
    1.0127   -1.7851    1.6375 H   0  0  0  0  0  0  0  0  0  0  0  0
    3.0467   -0.2077   -0.1058 H   0  0  0  0  0  0  0  0  0  0  0  0
    4.6080    1.0355   -0.4934 H   0  0  0  0  0  0  0  0  0  0  0  0
    5.7392    2.0739   -3.2495 H   0  0  0  0  0  0  0  0  0  0  0  0
    7.6563    3.5776   -3.8130 H   0  0  0  0  0  0  0  0  0  0  0  0
    9.4725    3.8553   -2.1906 H   0  0  0  0  0  0  0  0  0  0  0  0
    7.8757    1.6137    1.6868 H   0  0  0  0  0  0  0  0  0  0  0  0
    6.4570    0.7214    1.1094 H   0  0  0  0  0  0  0  0  0  0  0  0
    8.1523    0.0948    0.7619 H   0  0  0  0  0  0  0  0  0  0  0  0
    5.5756   -3.3802   -1.5255 H   0  0  0  0  0  0  0  0  0  0  0  0
    3.8929   -5.0324   -0.9163 H   0  0  0  0  0  0  0  0  0  0  0  0
    0.7210   -4.6631   -0.5475 H   0  0  0  0  0  0  0  0  0  0  0  0
    1.1134   -4.3539    1.1682 H   0  0  0  0  0  0  0  0  0  0  0  0
    2.0564   -5.5977    0.3326 H   0  0  0  0  0  0  0  0  0  0  0  0
  1  2  1  0
  2  3  1  0
  3  4  2  0
  4  5  1  0
  5  6  1  0
  6  7  1  0
  7  8  1  0
  8  9  1  0
  9 10  1  0
 10 11  1  0
 11 12  1  0
 11 13  1  0
  5 14  2  0
 14 15  1  0
 15 16  2  0
 16 17  1  0
 17 18  2  0
 17 19  1  0
 19 20  1  0
 20 21  2  0
 21 22  1  0
 22 23  1  0
 23 24  2  0
 23 25  1  0
 25 26  1  0
 26 27  2  0
 27 28  1  0
 28 29  2  0
 29 30  1  0
 30 31  1  0
 31 32  1  0
 31 33  1  0
 31 34  1  0
 30 35  2  0
 35 36  1  0
 22 37  2  0
 37 38  1  0
 38 39  2  0
 39 40  1  0
 16  3  1  0
 39 20  1  0
 35 26  1  0
  1 41  1  0
  1 42  1  0
  1 43  1  0
  6 44  1  0
  7 45  1  0
  7 46  1  0
  8 47  1  0
  8 48  1  0
  9 49  1  0
  9 50  1  0
 10 51  1  0
 10 52  1  0
 12 53  1  0
 12 54  1  0
 12 55  1  0
 13 56  1  0
 13 57  1  0
 13 58  1  0
 15 59  1  0
 19 60  1  0
 21 61  1  0
 25 62  1  0
 27 63  1  0
 28 64  1  0
 29 65  1  0
 36 66  1  0
 36 67  1  0
 36 68  1  0
 37 69  1  0
 38 70  1  0
 40 71  1  0
 40 72  1  0
 40 73  1  0
M  END
$$$$
