@<TRIPOS>MOLECULE
*****
 73 75 0 0 0
SMALL
GASTEIGER

@<TRIPOS>ATOM
      1 C          -1.0066   -1.0054    3.9759 C.3     1  UNL1        0.0804
      2 O          -0.7809   -1.2083    2.6201 O.3     1  UNL1       -0.4790
      3 C          -1.7175   -1.1247    1.6048 C.ar    1  UNL1        0.2313
      4 N          -2.9846   -0.8078    2.0143 N.ar    1  UNL1       -0.1788
      5 C          -3.9668   -0.7018    1.1120 C.ar    1  UNL1        0.2183
      6 N          -5.2833   -0.3617    1.5306 N.pl3   1  UNL1       -0.3134
      7 C          -5.8205    0.9790    1.3561 C.3     1  UNL1        0.0118
      8 C          -5.9090    1.3190   -0.1245 C.3     1  UNL1       -0.0362
      9 C          -6.7986    0.4031   -0.8713 C.3     1  UNL1       -0.0388
     10 C          -8.2321    0.3556   -0.5128 C.3     1  UNL1       -0.0016
     11 N          -9.0247    1.5023   -0.6866 N.3     1  UNL1       -0.3083
     12 C          -8.8351    2.6373    0.1201 C.3     1  UNL1       -0.0131
     13 C         -10.4142    1.2174   -0.9975 C.3     1  UNL1       -0.0131
     14 N          -3.6840   -0.9107   -0.1902 N.ar    1  UNL1       -0.2220
     15 C          -2.4504   -1.2210   -0.6097 C.ar    1  UNL1        0.0485
     16 C          -1.3920   -1.3422    0.3053 C.ar    1  UNL1        0.1165
     17 C          -0.0859   -1.6935   -0.1802 C.2     1  UNL1        0.2549
     18 O           0.0979   -1.8547   -1.4532 O.2     1  UNL1       -0.2696
     19 N           1.0560   -1.8855    0.6190 N.am    1  UNL1       -0.2811
     20 C           2.3195   -2.2305    0.0395 C.ar    1  UNL1        0.0373
     21 C           3.2354   -1.2563   -0.2848 C.ar    1  UNL1       -0.0281
     22 C           4.4367   -1.6597   -0.8597 C.ar    1  UNL1        0.0388
     23 C           5.4860   -0.7287   -1.2327 C.2     1  UNL1        0.2483
     24 O           6.5070   -1.1567   -1.8189 O.2     1  UNL1       -0.2699
     25 N           5.4478    0.6735   -0.9777 N.am    1  UNL1       -0.2813
     26 C           6.4995    1.5467   -1.3609 C.ar    1  UNL1        0.0371
     27 C           6.5517    2.2098   -2.5459 C.ar    1  UNL1       -0.0402
     28 C           7.6197    3.0554   -2.8732 C.ar    1  UNL1       -0.0595
     29 C           8.6341    3.2043   -1.9543 C.ar    1  UNL1       -0.0497
     30 C           8.6105    2.5372   -0.7285 C.ar    1  UNL1        0.0595
     31 C           9.7331    2.7354    0.2253 C.3     1  UNL1        0.4177
     32 F          10.3124    1.4858    0.4546 F       1  UNL1       -0.1659
     33 F          10.7091    3.5226   -0.3726 F       1  UNL1       -0.1659
     34 F           9.3712    3.3140    1.4024 F       1  UNL1       -0.1659
     35 C           7.5413    1.7223   -0.4596 C.ar    1  UNL1       -0.0176
     36 C           7.5049    0.9999    0.8465 C.3     1  UNL1       -0.0374
     37 C           4.6579   -3.0081   -1.0794 C.ar    1  UNL1       -0.0493
     38 C           3.7254   -3.9787   -0.7467 C.ar    1  UNL1       -0.0564
     39 C           2.5560   -3.5664   -0.1849 C.ar    1  UNL1       -0.0292
     40 C           1.5431   -4.6213    0.1744 C.3     1  UNL1       -0.0380
     41 H          -1.1694   -1.9622    4.5325 H       1  UNL1        0.0660
     42 H          -0.0503   -0.5803    4.3996 H       1  UNL1        0.0660
     43 H          -1.7811   -0.2464    4.2085 H       1  UNL1        0.0660
     44 H          -5.8768   -1.0787    1.9704 H       1  UNL1        0.1489
     45 H          -6.8334    1.0685    1.7771 H       1  UNL1        0.0462
     46 H          -5.1924    1.7209    1.8839 H       1  UNL1        0.0462
     47 H          -4.8556    1.1215   -0.5090 H       1  UNL1        0.0281
     48 H          -6.0804    2.3673   -0.3211 H       1  UNL1        0.0281
     49 H          -6.3982   -0.6474   -0.7698 H       1  UNL1        0.0278
     50 H          -6.6937    0.6142   -1.9618 H       1  UNL1        0.0278
     51 H          -8.3758   -0.0479    0.5260 H       1  UNL1        0.0426
     52 H          -8.6855   -0.4647   -1.1594 H       1  UNL1        0.0426
     53 H          -9.8429    3.1894    0.1276 H       1  UNL1        0.0391
     54 H          -8.6636    2.3804    1.1705 H       1  UNL1        0.0391
     55 H          -8.1540    3.4193   -0.2846 H       1  UNL1        0.0391
     56 H         -10.4215    0.4836   -1.8263 H       1  UNL1        0.0391
     57 H         -10.8466    0.7082   -0.1064 H       1  UNL1        0.0391
     58 H         -11.0072    2.1200   -1.1657 H       1  UNL1        0.0391
     59 H          -2.2215   -1.3868   -1.6422 H       1  UNL1        0.0840
     60 H           1.0127   -1.7851    1.6375 H       1  UNL1        0.1551
     61 H           3.0467   -0.2077   -0.1058 H       1  UNL1        0.0644
     62 H           4.6080    1.0355   -0.4934 H       1  UNL1        0.1551
     63 H           5.7392    2.0739   -3.2495 H       1  UNL1        0.0636
     64 H           7.6563    3.5776   -3.8130 H       1  UNL1        0.0618
     65 H           9.4725    3.8553   -2.1906 H       1  UNL1        0.0623
     66 H           7.8757    1.6137    1.6868 H       1  UNL1        0.0278
     67 H           6.4570    0.7214    1.1094 H       1  UNL1        0.0278
     68 H           8.1523    0.0948    0.7619 H       1  UNL1        0.0278
     69 H           5.5756   -3.3802   -1.5255 H       1  UNL1        0.0625
     70 H           3.8929   -5.0324   -0.9163 H       1  UNL1        0.0621
     71 H           0.7210   -4.6631   -0.5475 H       1  UNL1        0.0278
     72 H           1.1134   -4.3539    1.1682 H       1  UNL1        0.0278
     73 H           2.0564   -5.5977    0.3326 H       1  UNL1        0.0278
@<TRIPOS>BOND
     1     1     2    1
     2     2     3    1
     3     3     4   ar
     4     4     5   ar
     5     5     6    1
     6     6     7    1
     7     7     8    1
     8     8     9    1
     9     9    10    1
    10    10    11    1
    11    11    12    1
    12    11    13    1
    13     5    14   ar
    14    14    15   ar
    15    15    16   ar
    16    16    17    1
    17    17    18    2
    18    17    19   am
    19    19    20    1
    20    20    21   ar
    21    21    22   ar
    22    22    23    1
    23    23    24    2
    24    23    25   am
    25    25    26    1
    26    26    27   ar
    27    27    28   ar
    28    28    29   ar
    29    29    30   ar
    30    30    31    1
    31    31    32    1
    32    31    33    1
    33    31    34    1
    34    30    35   ar
    35    35    36    1
    36    22    37   ar
    37    37    38   ar
    38    38    39   ar
    39    39    40    1
    40    16     3   ar
    41    39    20   ar
    42    35    26   ar
    43     1    41    1
    44     1    42    1
    45     1    43    1
    46     6    44    1
    47     7    45    1
    48     7    46    1
    49     8    47    1
    50     8    48    1
    51     9    49    1
    52     9    50    1
    53    10    51    1
    54    10    52    1
    55    12    53    1
    56    12    54    1
    57    12    55    1
    58    13    56    1
    59    13    57    1
    60    13    58    1
    61    15    59    1
    62    19    60    1
    63    21    61    1
    64    25    62    1
    65    27    63    1
    66    28    64    1
    67    29    65    1
    68    36    66    1
    69    36    67    1
    70    36    68    1
    71    37    69    1
    72    38    70    1
    73    40    71    1
    74    40    72    1
    75    40    73    1
