@<TRIPOS>MOLECULE
*****
 54 57 0 0 0
SMALL
GASTEIGER

@<TRIPOS>ATOM
      1 C           4.4684    0.0605    3.0247 C.3     1  UNL1       -0.0279
      2 C           5.0187   -0.3038    1.6792 C.3     1  UNL1        0.0991
      3 C           6.1993   -1.2524    1.7761 C.3     1  UNL1       -0.0279
      4 O           4.0202   -0.9936    0.9574 O.3     1  UNL1       -0.4477
      5 C           3.6036   -0.4133   -0.2599 C.2     1  UNL1        0.4008
      6 O           4.1327    0.6680   -0.6361 O.2     1  UNL1       -0.2265
      7 N           2.6202   -1.0012   -1.0653 N.am    1  UNL1       -0.2755
      8 C           2.1406   -0.4841   -2.3119 C.3     1  UNL1        0.0587
      9 C           1.5436    0.8528   -2.0925 C.ar    1  UNL1        0.0803
     10 C           2.0948    2.0945   -2.2061 C.ar    1  UNL1        0.0529
     11 N           1.1695    3.0445   -1.9085 N.ar    1  UNL1       -0.2343
     12 C           0.0163    2.3842   -1.6022 C.ar    1  UNL1        0.1544
     13 C          -1.2369    2.8230   -1.2296 C.ar    1  UNL1       -0.0153
     14 C          -2.2033    1.8745   -0.9858 C.ar    1  UNL1       -0.0290
     15 C          -1.9586    0.4951   -1.1019 C.ar    1  UNL1        0.1103
     16 C          -3.0195   -0.4507   -0.8098 C.ar    1  UNL1        0.0968
     17 C          -3.5285   -0.5923    0.4850 C.ar    1  UNL1        0.0982
     18 C          -3.1006    0.1255    1.6614 C.ar    1  UNL1        0.0027
     19 C          -4.0283    0.8104    2.4016 C.ar    1  UNL1       -0.0498
     20 C          -3.6638    1.5283    3.5390 C.ar    1  UNL1       -0.0258
     21 C          -2.3617    1.5460    3.9167 C.ar    1  UNL1        0.1234
     22 F          -1.9987    2.2476    5.0263 F       1  UNL1       -0.2055
     23 C          -1.4243    0.8512    3.1649 C.ar    1  UNL1       -0.0258
     24 C          -1.7861    0.1349    2.0306 C.ar    1  UNL1       -0.0498
     25 N          -4.4960   -1.5156    0.3834 N.ar    1  UNL1       -0.2351
     26 C          -4.6007   -1.9355   -0.8821 C.ar    1  UNL1        0.0973
     27 N          -3.6701   -1.2667   -1.6403 N.ar    1  UNL1       -0.3229
     28 C          -3.4472   -1.4526   -3.0483 C.3     1  UNL1        0.0852
     29 C          -2.5441   -2.6119   -3.3650 C.3     1  UNL1        0.2569
     30 F          -1.3186   -2.4297   -2.7879 F       1  UNL1       -0.2073
     31 F          -2.3877   -2.7269   -4.7348 F       1  UNL1       -0.2073
     32 N          -0.7111    0.1908   -1.4697 N.ar    1  UNL1       -0.1632
     33 N           0.2467    1.0647   -1.7143 N.ar    1  UNL1       -0.2151
     34 H           5.3166    0.2394    3.7364 H       1  UNL1        0.0265
     35 H           3.9436    1.0316    2.9215 H       1  UNL1        0.0265
     36 H           3.7567   -0.6835    3.4297 H       1  UNL1        0.0265
     37 H           5.3313    0.6285    1.1660 H       1  UNL1        0.0729
     38 H           6.0761   -2.0017    2.5819 H       1  UNL1        0.0265
     39 H           6.2519   -1.8133    0.8169 H       1  UNL1        0.0265
     40 H           7.1480   -0.7315    1.9341 H       1  UNL1        0.0265
     41 H           2.1914   -1.9064   -0.7286 H       1  UNL1        0.1524
     42 H           1.4206   -1.1721   -2.8024 H       1  UNL1        0.0528
     43 H           3.0449   -0.3371   -2.9651 H       1  UNL1        0.0528
     44 H           3.1056    2.3461   -2.4924 H       1  UNL1        0.0849
     45 H          -1.4670    3.8902   -1.1290 H       1  UNL1        0.0655
     46 H          -3.2068    2.1590   -0.6916 H       1  UNL1        0.0641
     47 H          -5.0828    0.8388    2.1588 H       1  UNL1        0.0625
     48 H          -4.3904    2.0586    4.1102 H       1  UNL1        0.0646
     49 H          -0.4013    0.8982    3.5083 H       1  UNL1        0.0646
     50 H          -1.0095   -0.3766    1.5004 H       1  UNL1        0.0625
     51 H          -5.2907   -2.6654   -1.2364 H       1  UNL1        0.1029
     52 H          -3.1273   -0.5176   -3.5574 H       1  UNL1        0.0548
     53 H          -4.4455   -1.6867   -3.5202 H       1  UNL1        0.0548
     54 H          -2.9536   -3.5644   -2.9353 H       1  UNL1        0.1037
@<TRIPOS>BOND
     1     1     2    1
     2     2     3    1
     3     2     4    1
     4     4     5    1
     5     5     6    2
     6     5     7   am
     7     7     8    1
     8     8     9    1
     9     9    10   ar
    10    10    11   ar
    11    11    12   ar
    12    12    13   ar
    13    13    14   ar
    14    14    15   ar
    15    15    16    1
    16    16    17   ar
    17    17    18    1
    18    18    19   ar
    19    19    20   ar
    20    20    21   ar
    21    21    22    1
    22    21    23   ar
    23    23    24   ar
    24    17    25   ar
    25    25    26   ar
    26    26    27   ar
    27    27    28    1
    28    28    29    1
    29    29    30    1
    30    29    31    1
    31    15    32   ar
    32    32    33   ar
    33    33     9   ar
    34    33    12   ar
    35    27    16   ar
    36    24    18   ar
    37     1    34    1
    38     1    35    1
    39     1    36    1
    40     2    37    1
    41     3    38    1
    42     3    39    1
    43     3    40    1
    44     7    41    1
    45     8    42    1
    46     8    43    1
    47    10    44    1
    48    13    45    1
    49    14    46    1
    50    19    47    1
    51    20    48    1
    52    23    49    1
    53    24    50    1
    54    26    51    1
    55    28    52    1
    56    28    53    1
    57    29    54    1
