@<TRIPOS>MOLECULE
*****
 72 75 0 0 0
SMALL
GASTEIGER

@<TRIPOS>ATOM
      1 C           5.2656    0.7267    1.1406 C.3     1  UNL1       -0.0353
      2 C           5.6978   -0.3293    0.2143 C.ar    1  UNL1        0.0112
      3 C           4.9134   -1.2475   -0.4355 C.ar    1  UNL1        0.1938
      4 C           3.4687   -1.3801   -0.4594 C.2     1  UNL1        0.2839
      5 O           2.9928   -2.4869   -0.9142 O.2     1  UNL1       -0.2665
      6 N           2.5130   -0.4492   -0.0514 N.am    1  UNL1       -0.2790
      7 C           1.0916   -0.7243   -0.1274 C.ar    1  UNL1        0.0338
      8 C           0.3737   -0.4036   -1.2603 C.ar    1  UNL1       -0.0399
      9 C          -0.9845   -0.6543   -1.3622 C.ar    1  UNL1       -0.0523
     10 C          -1.6646   -1.2420   -0.3130 C.ar    1  UNL1       -0.0178
     11 C          -3.0762   -1.5350   -0.3425 C.ar    1  UNL1       -0.0178
     12 C          -3.8433   -1.5103    0.7984 C.ar    1  UNL1       -0.0522
     13 C          -5.1936   -1.7881    0.7849 C.ar    1  UNL1       -0.0348
     14 C          -5.8135   -2.1009   -0.3887 C.ar    1  UNL1        0.1053
     15 S          -7.5170   -2.4630   -0.5387 S.O2    1  UNL1        0.0591
     16 O          -7.9815   -3.0069    0.7747 O.2     1  UNL1       -0.1530
     17 O          -7.6914   -3.5060   -1.6155 O.2     1  UNL1       -0.1530
     18 N          -8.3293   -1.0031   -0.9594 N.3     1  UNL1       -0.1759
     19 C          -8.1423   -0.0423    0.0914 C.3     1  UNL1        0.1276
     20 C          -9.4644    0.3470    0.6444 C.2     1  UNL1        0.3238
     21 O          -9.5236    1.1886    1.5864 O.2     1  UNL1       -0.2492
     22 O         -10.6115   -0.2070    0.1315 O.3     1  UNL1       -0.4795
     23 C          -7.4030    1.1897   -0.4277 C.3     1  UNL1       -0.0194
     24 C          -8.2220    1.8102   -1.5313 C.3     1  UNL1       -0.0607
     25 C          -7.2552    2.1774    0.7085 C.3     1  UNL1       -0.0607
     26 C          -5.0763   -2.1362   -1.5575 C.ar    1  UNL1       -0.0348
     27 C          -3.7067   -1.8507   -1.5192 C.ar    1  UNL1       -0.0522
     28 C          -0.9577   -1.5685    0.8279 C.ar    1  UNL1       -0.0523
     29 C           0.3955   -1.3089    0.9064 C.ar    1  UNL1       -0.0399
     30 O           5.7595   -2.0431   -1.0881 O.2     1  UNL1       -0.4498
     31 C           6.9955   -1.6832   -0.8911 C.ar    1  UNL1        0.1398
     32 C           8.2030   -2.2033   -1.3529 C.ar    1  UNL1       -0.0171
     33 C           9.3754   -1.6013   -0.9663 C.ar    1  UNL1       -0.0363
     34 C           9.3956   -0.5012   -0.1395 C.ar    1  UNL1        0.0834
     35 CL         10.9181    0.1883    0.3110 Cl      1  UNL1       -0.0797
     36 C           8.2046    0.0386    0.3337 C.ar    1  UNL1        0.1501
     37 O           8.2373    1.1592    1.1672 O.3     1  UNL1       -0.4872
     38 C           8.2790    2.4330    0.5906 C.3     1  UNL1        0.0947
     39 C           7.2320    3.4005    1.0091 C.3     1  UNL1       -0.0281
     40 C           9.6379    3.0983    0.8164 C.3     1  UNL1       -0.0281
     41 C           7.0473   -0.5733   -0.0572 C.ar    1  UNL1        0.0669
     42 H           4.8608    1.6051    0.6243 H       1  UNL1        0.0279
     43 H           4.4479    0.3572    1.8379 H       1  UNL1        0.0279
     44 H           6.0732    0.9910    1.8740 H       1  UNL1        0.0279
     45 H           2.8169    0.4763    0.2998 H       1  UNL1        0.1552
     46 H           0.9203    0.0626   -2.0890 H       1  UNL1        0.0636
     47 H          -1.5357   -0.3891   -2.2770 H       1  UNL1        0.0624
     48 H          -3.3351   -1.2578    1.7307 H       1  UNL1        0.0624
     49 H          -5.7583   -1.7636    1.6937 H       1  UNL1        0.0637
     50 H          -7.8448   -0.6428   -1.8292 H       1  UNL1        0.1489
     51 H          -7.5466   -0.4005    0.9391 H       1  UNL1        0.0595
     52 H         -11.5081    0.1830    0.4267 H       1  UNL1        0.2951
     53 H          -6.4193    0.8972   -0.8222 H       1  UNL1        0.0316
     54 H          -7.9489    1.3789   -2.5070 H       1  UNL1        0.0233
     55 H          -9.3007    1.6990   -1.3169 H       1  UNL1        0.0233
     56 H          -7.9850    2.9081   -1.5263 H       1  UNL1        0.0233
     57 H          -8.1245    2.8661    0.6827 H       1  UNL1        0.0233
     58 H          -7.2286    1.6513    1.6951 H       1  UNL1        0.0233
     59 H          -6.3338    2.8003    0.5800 H       1  UNL1        0.0233
     60 H          -5.5249   -2.3780   -2.5027 H       1  UNL1        0.0637
     61 H          -3.1108   -1.8722   -2.4193 H       1  UNL1        0.0624
     62 H          -1.4568   -2.0392    1.6902 H       1  UNL1        0.0624
     63 H           0.9267   -1.5700    1.8015 H       1  UNL1        0.0636
     64 H           8.1405   -3.0635   -1.9981 H       1  UNL1        0.0655
     65 H          10.3069   -2.0103   -1.3269 H       1  UNL1        0.0634
     66 H           8.2046    2.3038   -0.5278 H       1  UNL1        0.0727
     67 H           6.8902    3.2363    2.0732 H       1  UNL1        0.0265
     68 H           7.6593    4.4217    1.0087 H       1  UNL1        0.0265
     69 H           6.3608    3.4448    0.3229 H       1  UNL1        0.0265
     70 H          10.0542    2.6492    1.7374 H       1  UNL1        0.0265
     71 H           9.4705    4.1835    1.0783 H       1  UNL1        0.0265
     72 H          10.2893    3.0634   -0.0547 H       1  UNL1        0.0265
@<TRIPOS>BOND
     1     1     2    1
     2     2     3   ar
     3     3     4    1
     4     4     5    2
     5     4     6   am
     6     6     7    1
     7     7     8   ar
     8     8     9   ar
     9     9    10   ar
    10    10    11    1
    11    11    12   ar
    12    12    13   ar
    13    13    14   ar
    14    14    15    1
    15    15    16    2
    16    15    17    2
    17    15    18    1
    18    18    19    1
    19    19    20    1
    20    20    21    2
    21    20    22    1
    22    19    23    1
    23    23    24    1
    24    23    25    1
    25    14    26   ar
    26    26    27   ar
    27    10    28   ar
    28    28    29   ar
    29     3    30   ar
    30    30    31   ar
    31    31    32   ar
    32    32    33   ar
    33    33    34   ar
    34    34    35    1
    35    34    36   ar
    36    36    37    1
    37    37    38    1
    38    38    39    1
    39    38    40    1
    40    36    41   ar
    41    41     2   ar
    42    29     7   ar
    43    41    31   ar
    44    27    11   ar
    45     1    42    1
    46     1    43    1
    47     1    44    1
    48     6    45    1
    49     8    46    1
    50     9    47    1
    51    12    48    1
    52    13    49    1
    53    18    50    1
    54    19    51    1
    55    22    52    1
    56    23    53    1
    57    24    54    1
    58    24    55    1
    59    24    56    1
    60    25    57    1
    61    25    58    1
    62    25    59    1
    63    26    60    1
    64    27    61    1
    65    28    62    1
    66    29    63    1
    67    32    64    1
    68    33    65    1
    69    38    66    1
    70    39    67    1
    71    39    68    1
    72    39    69    1
    73    40    70    1
    74    40    71    1
    75    40    72    1
