
     RDKit          3D

 55 58  0  0  0  0  0  0  0  0999 V2000
    7.8670    2.4453   -1.2485 C   0  0  0  0  0  0  0  0  0  0  0  0
    7.2331    1.3098   -0.5411 C   0  0  0  0  0  0  0  0  0  0  0  0
    7.8588    0.8239    0.5871 C   0  0  0  0  0  0  0  0  0  0  0  0
    7.2810   -0.2263    1.2460 C   0  0  0  0  0  0  0  0  0  0  0  0
    6.0831   -0.7965    0.7891 C   0  0  0  0  0  0  0  0  0  0  0  0
    5.5622   -1.9469    1.4724 C   0  0  0  0  0  0  0  0  0  0  0  0
    4.5675   -2.5668    1.0709 O   0  0  0  0  0  0  0  0  0  0  0  0
    6.1676   -2.4178    2.6350 O   0  0  0  0  0  0  0  0  0  0  0  0
    5.4496   -0.3216   -0.3286 C   0  0  0  0  0  0  0  0  0  0  0  0
    4.2894   -0.7836   -0.8690 O   0  0  0  0  0  0  0  0  0  0  0  0
    3.0122   -0.7282   -0.3500 C   0  0  0  0  0  0  0  0  0  0  0  0
    2.0029   -1.3293   -1.0482 N   0  0  0  0  0  0  0  0  0  0  0  0
    0.7409   -1.3050   -0.5956 C   0  0  0  0  0  0  0  0  0  0  0  0
   -0.2946   -1.9290   -1.3264 O   0  0  0  0  0  0  0  0  0  0  0  0
   -1.6091   -1.9294   -0.8997 C   0  0  0  0  0  0  0  0  0  0  0  0
   -2.0174   -2.9945   -0.1080 C   0  0  0  0  0  0  0  0  0  0  0  0
   -3.3272   -2.9966    0.3187 C   0  0  0  0  0  0  0  0  0  0  0  0
   -3.7457   -4.0719    1.1196 O   0  0  0  0  0  0  0  0  0  0  0  0
   -4.2040   -1.9841   -0.0231 C   0  0  0  0  0  0  0  0  0  0  0  0
   -3.8053   -0.9234   -0.8091 C   0  0  0  0  0  0  0  0  0  0  0  0
   -4.6931    0.1687   -1.1945 C   0  0  0  0  0  0  0  0  0  0  0  0
   -4.5756    0.8544   -2.3852 C   0  0  0  0  0  0  0  0  0  0  0  0
   -5.4301    1.8867   -2.7251 C   0  0  0  0  0  0  0  0  0  0  0  0
   -6.4451    2.2752   -1.8763 C   0  0  0  0  0  0  0  0  0  0  0  0
   -6.5692    1.5944   -0.6837 C   0  0  0  0  0  0  0  0  0  0  0  0
   -7.6706    2.0149    0.2406 C   0  0  0  0  0  0  0  0  0  0  0  0
   -7.2471    3.0328    1.1569 N   0  0  0  0  0  0  0  0  0  0  0  0
   -5.7124    0.5644   -0.3506 C   0  0  0  0  0  0  0  0  0  0  0  0
   -2.4966   -0.9148   -1.2395 C   0  0  0  0  0  0  0  0  0  0  0  0
    0.3591   -0.6910    0.5780 C   0  0  0  0  0  0  0  0  0  0  0  0
   -0.9410   -0.7054    0.9787 F   0  0  0  0  0  0  0  0  0  0  0  0
    1.3490   -0.0731    1.3105 C   0  0  0  0  0  0  0  0  0  0  0  0
    2.6448   -0.1136    0.8187 C   0  0  0  0  0  0  0  0  0  0  0  0
    3.5983    0.5131    1.5511 F   0  0  0  0  0  0  0  0  0  0  0  0
    6.0595    0.7528   -0.9882 C   0  0  0  0  0  0  0  0  0  0  0  0
    7.1542    2.8465   -2.0106 H   0  0  0  0  0  0  0  0  0  0  0  0
    8.8476    2.1795   -1.6813 H   0  0  0  0  0  0  0  0  0  0  0  0
    8.0349    3.2623   -0.5165 H   0  0  0  0  0  0  0  0  0  0  0  0
    8.7935    1.2643    0.9496 H   0  0  0  0  0  0  0  0  0  0  0  0
    7.7757   -0.6074    2.1347 H   0  0  0  0  0  0  0  0  0  0  0  0
    5.9709   -3.3459    3.0029 H   0  0  0  0  0  0  0  0  0  0  0  0
   -1.3146   -3.7824    0.1513 H   0  0  0  0  0  0  0  0  0  0  0  0
   -3.7550   -3.9765    2.1098 H   0  0  0  0  0  0  0  0  0  0  0  0
   -5.2154   -1.9930    0.3109 H   0  0  0  0  0  0  0  0  0  0  0  0
   -3.7805    0.5593   -3.0641 H   0  0  0  0  0  0  0  0  0  0  0  0
   -5.3354    2.4286   -3.6698 H   0  0  0  0  0  0  0  0  0  0  0  0
   -7.1148    3.0877   -2.1477 H   0  0  0  0  0  0  0  0  0  0  0  0
   -8.0849    1.1558    0.7971 H   0  0  0  0  0  0  0  0  0  0  0  0
   -8.5046    2.4314   -0.3669 H   0  0  0  0  0  0  0  0  0  0  0  0
   -6.8595    2.6809    2.0467 H   0  0  0  0  0  0  0  0  0  0  0  0
   -6.7016    3.7812    0.7164 H   0  0  0  0  0  0  0  0  0  0  0  0
   -5.8252    0.0390    0.5929 H   0  0  0  0  0  0  0  0  0  0  0  0
   -2.1491   -0.0945   -1.8595 H   0  0  0  0  0  0  0  0  0  0  0  0
    1.1106    0.4266    2.2423 H   0  0  0  0  0  0  0  0  0  0  0  0
    5.6114    1.1690   -1.8737 H   0  0  0  0  0  0  0  0  0  0  0  0
  1  2  1  0
  2  3  2  0
  3  4  1  0
  4  5  2  0
  5  6  1  0
  6  7  2  0
  6  8  1  0
  5  9  1  0
  9 10  1  0
 10 11  1  0
 11 12  2  0
 12 13  1  0
 13 14  1  0
 14 15  1  0
 15 16  2  0
 16 17  1  0
 17 18  1  0
 17 19  2  0
 19 20  1  0
 20 21  1  0
 21 22  2  0
 22 23  1  0
 23 24  2  0
 24 25  1  0
 25 26  1  0
 26 27  1  0
 25 28  2  0
 20 29  2  0
 13 30  2  0
 30 31  1  0
 30 32  1  0
 32 33  2  0
 33 34  1  0
  9 35  2  0
 35  2  1  0
 33 11  1  0
 29 15  1  0
 28 21  1  0
  1 36  1  0
  1 37  1  0
  1 38  1  0
  3 39  1  0
  4 40  1  0
  8 41  1  0
 16 42  1  0
 18 43  1  0
 19 44  1  0
 22 45  1  0
 23 46  1  0
 24 47  1  0
 26 48  1  0
 26 49  1  0
 27 50  1  0
 27 51  1  0
 28 52  1  0
 29 53  1  0
 32 54  1  0
 35 55  1  0
M  END
$$$$
