@<TRIPOS>MOLECULE
*****
 55 58 0 0 0
SMALL
GASTEIGER

@<TRIPOS>ATOM
      1 C           7.8670    2.4453   -1.2485 C.3     1  UNL1       -0.0396
      2 C           7.2331    1.3098   -0.5411 C.ar    1  UNL1       -0.0469
      3 C           7.8588    0.8239    0.5871 C.ar    1  UNL1       -0.0578
      4 C           7.2810   -0.2263    1.2460 C.ar    1  UNL1       -0.0439
      5 C           6.0831   -0.7965    0.7891 C.ar    1  UNL1        0.1010
      6 C           5.5622   -1.9469    1.4724 C.2     1  UNL1        0.3404
      7 O           4.5675   -2.5668    1.0709 O.2     1  UNL1       -0.2450
      8 O           6.1676   -2.4178    2.6350 O.3     1  UNL1       -0.4770
      9 C           5.4496   -0.3216   -0.3286 C.ar    1  UNL1        0.1447
     10 O           4.2894   -0.7836   -0.8690 O.3     1  UNL1       -0.4348
     11 C           3.0122   -0.7282   -0.3500 C.ar    1  UNL1        0.2598
     12 N           2.0029   -1.3293   -1.0482 N.ar    1  UNL1       -0.1722
     13 C           0.7409   -1.3050   -0.5956 C.ar    1  UNL1        0.2598
     14 O          -0.2946   -1.9290   -1.3264 O.3     1  UNL1       -0.4355
     15 C          -1.6091   -1.9294   -0.8997 C.ar    1  UNL1        0.1345
     16 C          -2.0174   -2.9945   -0.1080 C.ar    1  UNL1        0.0222
     17 C          -3.3272   -2.9966    0.3187 C.ar    1  UNL1        0.1209
     18 O          -3.7457   -4.0719    1.1196 O.3     1  UNL1       -0.5066
     19 C          -4.2040   -1.9841   -0.0231 C.ar    1  UNL1       -0.0122
     20 C          -3.8053   -0.9234   -0.8091 C.ar    1  UNL1       -0.0110
     21 C          -4.6931    0.1687   -1.1945 C.ar    1  UNL1       -0.0174
     22 C          -4.5756    0.8544   -2.3852 C.ar    1  UNL1       -0.0540
     23 C          -5.4301    1.8867   -2.7251 C.ar    1  UNL1       -0.0609
     24 C          -6.4451    2.2752   -1.8763 C.ar    1  UNL1       -0.0573
     25 C          -6.5692    1.5944   -0.6837 C.ar    1  UNL1       -0.0332
     26 C          -7.6706    2.0149    0.2406 C.3     1  UNL1        0.0186
     27 N          -7.2471    3.0328    1.1569 N.3     1  UNL1       -0.3261
     28 C          -5.7124    0.5644   -0.3506 C.ar    1  UNL1       -0.0496
     29 C          -2.4966   -0.9148   -1.2395 C.ar    1  UNL1       -0.0113
     30 C           0.3591   -0.6910    0.5780 C.ar    1  UNL1        0.1879
     31 F          -0.9410   -0.7054    0.9787 F       1  UNL1       -0.1998
     32 C           1.3490   -0.0731    1.3105 C.ar    1  UNL1        0.0194
     33 C           2.6448   -0.1136    0.8187 C.ar    1  UNL1        0.1879
     34 F           3.5983    0.5131    1.5511 F       1  UNL1       -0.1998
     35 C           6.0595    0.7528   -0.9882 C.ar    1  UNL1       -0.0155
     36 H           7.1542    2.8465   -2.0106 H       1  UNL1        0.0278
     37 H           8.8476    2.1795   -1.6813 H       1  UNL1        0.0278
     38 H           8.0349    3.2623   -0.5165 H       1  UNL1        0.0278
     39 H           8.7935    1.2643    0.9496 H       1  UNL1        0.0620
     40 H           7.7757   -0.6074    2.1347 H       1  UNL1        0.0627
     41 H           5.9709   -3.3459    3.0029 H       1  UNL1        0.2954
     42 H          -1.3146   -3.7824    0.1513 H       1  UNL1        0.0691
     43 H          -3.7550   -3.9765    2.1098 H       1  UNL1        0.2921
     44 H          -5.2154   -1.9930    0.3109 H       1  UNL1        0.0660
     45 H          -3.7805    0.5593   -3.0641 H       1  UNL1        0.0624
     46 H          -5.3354    2.4286   -3.6698 H       1  UNL1        0.0618
     47 H          -7.1148    3.0877   -2.1477 H       1  UNL1        0.0621
     48 H          -8.0849    1.1558    0.7971 H       1  UNL1        0.0471
     49 H          -8.5046    2.4314   -0.3669 H       1  UNL1        0.0471
     50 H          -6.8595    2.6809    2.0467 H       1  UNL1        0.1185
     51 H          -6.7016    3.7812    0.7164 H       1  UNL1        0.1185
     52 H          -5.8252    0.0390    0.5929 H       1  UNL1        0.0627
     53 H          -2.1491   -0.0945   -1.8595 H       1  UNL1        0.0660
     54 H           1.1106    0.4266    2.2423 H       1  UNL1        0.0678
     55 H           5.6114    1.1690   -1.8737 H       1  UNL1        0.0657
@<TRIPOS>BOND
     1     1     2    1
     2     2     3   ar
     3     3     4   ar
     4     4     5   ar
     5     5     6    1
     6     6     7    2
     7     6     8    1
     8     5     9   ar
     9     9    10    1
    10    10    11    1
    11    11    12   ar
    12    12    13   ar
    13    13    14    1
    14    14    15    1
    15    15    16   ar
    16    16    17   ar
    17    17    18    1
    18    17    19   ar
    19    19    20   ar
    20    20    21    1
    21    21    22   ar
    22    22    23   ar
    23    23    24   ar
    24    24    25   ar
    25    25    26    1
    26    26    27    1
    27    25    28   ar
    28    20    29   ar
    29    13    30   ar
    30    30    31    1
    31    30    32   ar
    32    32    33   ar
    33    33    34    1
    34     9    35   ar
    35    35     2   ar
    36    33    11   ar
    37    29    15   ar
    38    28    21   ar
    39     1    36    1
    40     1    37    1
    41     1    38    1
    42     3    39    1
    43     4    40    1
    44     8    41    1
    45    16    42    1
    46    18    43    1
    47    19    44    1
    48    22    45    1
    49    23    46    1
    50    24    47    1
    51    26    48    1
    52    26    49    1
    53    27    50    1
    54    27    51    1
    55    28    52    1
    56    29    53    1
    57    32    54    1
    58    35    55    1
