
     RDKit          3D

 62 65  0  0  0  0  0  0  0  0999 V2000
    1.8244   -1.4142   -1.4971 O   0  0  0  0  0  0  0  0  0  0  0  0
    1.5079   -0.7920   -0.4726 C   0  0  0  0  0  0  0  0  0  0  0  0
    2.5706   -0.6561    0.4947 N   0  0  0  0  0  0  0  0  0  0  0  0
    3.8821   -1.2228    0.2293 C   0  0  0  0  0  0  0  0  0  0  0  0
    4.8334   -0.9968    1.3461 C   0  0  0  0  0  0  0  0  0  0  0  0
    5.1076    0.4392    1.6818 C   0  0  0  0  0  0  0  0  0  0  0  0
    5.6779    1.2123    0.6252 N   0  0  0  0  0  0  0  0  0  0  0  0
    7.1060    1.3544    0.3820 C   0  0  0  0  0  0  0  0  0  0  0  0
    7.2535    2.5177   -0.5419 C   0  0  0  0  0  0  0  0  0  0  0  0
    5.9803    2.6867   -1.0976 O   0  0  0  0  0  0  0  0  0  0  0  0
    5.0349    1.9767   -0.3765 C   0  0  0  0  0  0  0  0  0  0  0  0
    3.7855    2.0148   -0.5908 O   0  0  0  0  0  0  0  0  0  0  0  0
    0.1954   -0.2267   -0.2007 C   0  0  0  0  0  0  0  0  0  0  0  0
    0.1347    0.9417    0.5995 C   0  0  0  0  0  0  0  0  0  0  0  0
   -0.9711    1.6411    0.8011 N   0  0  0  0  0  0  0  0  0  0  0  0
   -2.1013    1.2286    0.2195 C   0  0  0  0  0  0  0  0  0  0  0  0
   -3.2870    2.0025    0.4509 N   0  0  0  0  0  0  0  0  0  0  0  0
   -4.5588    1.6239   -0.1399 C   0  0  0  0  0  0  0  0  0  0  0  0
   -5.6346    2.5626    0.2393 C   0  0  0  0  0  0  0  0  0  0  0  0
   -6.5700    2.2054    1.2019 C   0  0  0  0  0  0  0  0  0  0  0  0
   -7.5634    3.0731    1.5541 C   0  0  0  0  0  0  0  0  0  0  0  0
   -8.7677    2.6586    2.7684 Cl  0  0  0  0  0  0  0  0  0  0  0  0
   -7.6447    4.3116    0.9554 C   0  0  0  0  0  0  0  0  0  0  0  0
   -6.7297    4.6891   -0.0014 C   0  0  0  0  0  0  0  0  0  0  0  0
   -5.7427    3.8051   -0.3394 C   0  0  0  0  0  0  0  0  0  0  0  0
   -4.5840    4.2824   -1.5517 Cl  0  0  0  0  0  0  0  0  0  0  0  0
   -2.0778    0.1524   -0.5228 N   0  0  0  0  0  0  0  0  0  0  0  0
   -0.9639   -0.6352   -0.7795 C   0  0  0  0  0  0  0  0  0  0  0  0
   -1.1747   -1.8499   -1.4665 N   0  0  0  0  0  0  0  0  0  0  0  0
   -0.4017   -3.0306   -1.6369 C   0  0  0  0  0  0  0  0  0  0  0  0
    0.0511   -3.6600   -0.3512 C   0  0  0  0  0  0  0  0  0  0  0  0
   -0.7556   -4.8864   -0.0829 C   0  0  0  0  0  0  0  0  0  0  0  0
   -2.0077   -4.6178   -0.8931 C   0  0  0  0  0  0  0  0  0  0  0  0
   -1.4141   -4.1103   -2.1707 C   0  0  0  0  0  0  0  0  0  0  0  0
    2.4129   -0.1613    1.3865 H   0  0  0  0  0  0  0  0  0  0  0  0
    3.8320   -2.2854   -0.0287 H   0  0  0  0  0  0  0  0  0  0  0  0
    4.2975   -0.6867   -0.6738 H   0  0  0  0  0  0  0  0  0  0  0  0
    5.8400   -1.4372    1.0782 H   0  0  0  0  0  0  0  0  0  0  0  0
    4.5049   -1.4929    2.2846 H   0  0  0  0  0  0  0  0  0  0  0  0
    5.8219    0.4199    2.5563 H   0  0  0  0  0  0  0  0  0  0  0  0
    4.2134    0.9701    2.0691 H   0  0  0  0  0  0  0  0  0  0  0  0
    7.4413    0.4324   -0.1467 H   0  0  0  0  0  0  0  0  0  0  0  0
    7.6460    1.5105    1.3181 H   0  0  0  0  0  0  0  0  0  0  0  0
    7.9965    2.3016   -1.3432 H   0  0  0  0  0  0  0  0  0  0  0  0
    7.5814    3.4352   -0.0105 H   0  0  0  0  0  0  0  0  0  0  0  0
    1.0678    1.2514    1.0515 H   0  0  0  0  0  0  0  0  0  0  0  0
   -3.2702    2.8524    1.0452 H   0  0  0  0  0  0  0  0  0  0  0  0
   -4.8284    0.5778    0.1785 H   0  0  0  0  0  0  0  0  0  0  0  0
   -4.4892    1.5695   -1.2497 H   0  0  0  0  0  0  0  0  0  0  0  0
   -6.5238    1.2425    1.6812 H   0  0  0  0  0  0  0  0  0  0  0  0
   -8.4255    5.0007    1.2283 H   0  0  0  0  0  0  0  0  0  0  0  0
   -6.8254    5.6675   -0.4485 H   0  0  0  0  0  0  0  0  0  0  0  0
   -2.1418   -1.8401   -1.9884 H   0  0  0  0  0  0  0  0  0  0  0  0
    0.3311   -3.0327   -2.4572 H   0  0  0  0  0  0  0  0  0  0  0  0
    1.1253   -3.9417   -0.4196 H   0  0  0  0  0  0  0  0  0  0  0  0
   -0.1353   -2.9422    0.4856 H   0  0  0  0  0  0  0  0  0  0  0  0
   -0.9961   -5.0591    0.9877 H   0  0  0  0  0  0  0  0  0  0  0  0
   -0.2263   -5.7837   -0.4426 H   0  0  0  0  0  0  0  0  0  0  0  0
   -2.6055   -3.8262   -0.3991 H   0  0  0  0  0  0  0  0  0  0  0  0
   -2.6352   -5.5016   -1.0100 H   0  0  0  0  0  0  0  0  0  0  0  0
   -0.8708   -4.9252   -2.6619 H   0  0  0  0  0  0  0  0  0  0  0  0
   -2.1332   -3.5966   -2.8354 H   0  0  0  0  0  0  0  0  0  0  0  0
  1  2  2  0
  2  3  1  0
  3  4  1  0
  4  5  1  0
  5  6  1  0
  6  7  1  0
  7  8  1  0
  8  9  1  0
  9 10  1  0
 10 11  1  0
 11 12  2  0
  2 13  1  0
 13 14  2  0
 14 15  1  0
 15 16  2  0
 16 17  1  0
 17 18  1  0
 18 19  1  0
 19 20  2  0
 20 21  1  0
 21 22  1  0
 21 23  2  0
 23 24  1  0
 24 25  2  0
 25 26  1  0
 16 27  1  0
 27 28  2  0
 28 29  1  0
 29 30  1  0
 30 31  1  0
 31 32  1  0
 32 33  1  0
 33 34  1  0
 11  7  1  0
 28 13  1  0
 34 30  1  0
 25 19  1  0
  3 35  1  0
  4 36  1  0
  4 37  1  0
  5 38  1  0
  5 39  1  0
  6 40  1  0
  6 41  1  0
  8 42  1  0
  8 43  1  0
  9 44  1  0
  9 45  1  0
 14 46  1  0
 17 47  1  0
 18 48  1  0
 18 49  1  0
 20 50  1  0
 23 51  1  0
 24 52  1  0
 29 53  1  0
 30 54  1  0
 31 55  1  0
 31 56  1  0
 32 57  1  0
 32 58  1  0
 33 59  1  0
 33 60  1  0
 34 61  1  0
 34 62  1  0
M  END
$$$$
