@<TRIPOS>MOLECULE
*****
 62 65 0 0 0
SMALL
GASTEIGER

@<TRIPOS>ATOM
      1 O           1.8244   -1.4142   -1.4971 O.2     1  UNL1       -0.2700
      2 C           1.5079   -0.7920   -0.4726 C.2     1  UNL1        0.2489
      3 N           2.5706   -0.6561    0.4947 N.am    1  UNL1       -0.3112
      4 C           3.8821   -1.2228    0.2293 C.3     1  UNL1        0.0133
      5 C           4.8334   -0.9968    1.3461 C.3     1  UNL1       -0.0214
      6 C           5.1076    0.4392    1.6818 C.3     1  UNL1        0.0193
      7 N           5.6779    1.2123    0.6252 N.am    1  UNL1       -0.2642
      8 C           7.1060    1.3544    0.3820 C.3     1  UNL1        0.0521
      9 C           7.2535    2.5177   -0.5419 C.3     1  UNL1        0.1098
     10 O           5.9803    2.6867   -1.0976 O.3     1  UNL1       -0.4487
     11 C           5.0349    1.9767   -0.3765 C.2     1  UNL1        0.4030
     12 O           3.7855    2.0148   -0.5908 O.2     1  UNL1       -0.2263
     13 C           0.1954   -0.2267   -0.2007 C.ar    1  UNL1        0.0945
     14 C           0.1347    0.9417    0.5995 C.ar    1  UNL1        0.0466
     15 N          -0.9711    1.6411    0.8011 N.ar    1  UNL1       -0.2221
     16 C          -2.1013    1.2286    0.2195 C.ar    1  UNL1        0.2171
     17 N          -3.2870    2.0025    0.4509 N.pl3   1  UNL1       -0.3093
     18 C          -4.5588    1.6239   -0.1399 C.3     1  UNL1        0.0385
     19 C          -5.6346    2.5626    0.2393 C.ar    1  UNL1       -0.0107
     20 C          -6.5700    2.2054    1.2019 C.ar    1  UNL1       -0.0373
     21 C          -7.5634    3.0731    1.5541 C.ar    1  UNL1        0.0414
     22 CL         -8.7677    2.6586    2.7684 Cl      1  UNL1       -0.0835
     23 C          -7.6447    4.3116    0.9554 C.ar    1  UNL1       -0.0420
     24 C          -6.7297    4.6891   -0.0014 C.ar    1  UNL1       -0.0417
     25 C          -5.7427    3.8051   -0.3394 C.ar    1  UNL1        0.0457
     26 CL         -4.5840    4.2824   -1.5517 Cl      1  UNL1       -0.0832
     27 N          -2.0778    0.1524   -0.5228 N.ar    1  UNL1       -0.1990
     28 C          -0.9639   -0.6352   -0.7795 C.ar    1  UNL1        0.1362
     29 N          -1.1747   -1.8499   -1.4665 N.pl3   1  UNL1       -0.3255
     30 C          -0.4017   -3.0306   -1.6369 C.3     1  UNL1        0.0220
     31 C           0.0511   -3.6600   -0.3512 C.3     1  UNL1       -0.0345
     32 C          -0.7556   -4.8864   -0.0829 C.3     1  UNL1       -0.0513
     33 C          -2.0077   -4.6178   -0.8931 C.3     1  UNL1       -0.0513
     34 C          -1.4141   -4.1103   -2.1707 C.3     1  UNL1       -0.0345
     35 H           2.4129   -0.1613    1.3865 H       1  UNL1        0.1490
     36 H           3.8320   -2.2854   -0.0287 H       1  UNL1        0.0462
     37 H           4.2975   -0.6867   -0.6738 H       1  UNL1        0.0462
     38 H           5.8400   -1.4372    1.0782 H       1  UNL1        0.0295
     39 H           4.5049   -1.4929    2.2846 H       1  UNL1        0.0295
     40 H           5.8219    0.4199    2.5563 H       1  UNL1        0.0466
     41 H           4.2134    0.9701    2.0691 H       1  UNL1        0.0466
     42 H           7.4413    0.4324   -0.1467 H       1  UNL1        0.0499
     43 H           7.6460    1.5105    1.3181 H       1  UNL1        0.0499
     44 H           7.9965    2.3016   -1.3432 H       1  UNL1        0.0714
     45 H           7.5814    3.4352   -0.0105 H       1  UNL1        0.0714
     46 H           1.0678    1.2514    1.0515 H       1  UNL1        0.0839
     47 H          -3.2702    2.8524    1.0452 H       1  UNL1        0.1492
     48 H          -4.8284    0.5778    0.1785 H       1  UNL1        0.0512
     49 H          -4.4892    1.5695   -1.2497 H       1  UNL1        0.0512
     50 H          -6.5238    1.2425    1.6812 H       1  UNL1        0.0636
     51 H          -8.4255    5.0007    1.2283 H       1  UNL1        0.0633
     52 H          -6.8254    5.6675   -0.4485 H       1  UNL1        0.0633
     53 H          -2.1418   -1.8401   -1.9884 H       1  UNL1        0.1478
     54 H           0.3311   -3.0327   -2.4572 H       1  UNL1        0.0498
     55 H           1.1253   -3.9417   -0.4196 H       1  UNL1        0.0283
     56 H          -0.1353   -2.9422    0.4856 H       1  UNL1        0.0283
     57 H          -0.9961   -5.0591    0.9877 H       1  UNL1        0.0266
     58 H          -0.2263   -5.7837   -0.4426 H       1  UNL1        0.0266
     59 H          -2.6055   -3.8262   -0.3991 H       1  UNL1        0.0266
     60 H          -2.6352   -5.5016   -1.0100 H       1  UNL1        0.0266
     61 H          -0.8708   -4.9252   -2.6619 H       1  UNL1        0.0283
     62 H          -2.1332   -3.5966   -2.8354 H       1  UNL1        0.0283
@<TRIPOS>BOND
     1     1     2    2
     2     2     3   am
     3     3     4    1
     4     4     5    1
     5     5     6    1
     6     6     7    1
     7     7     8    1
     8     8     9    1
     9     9    10    1
    10    10    11    1
    11    11    12    2
    12     2    13    1
    13    13    14   ar
    14    14    15   ar
    15    15    16   ar
    16    16    17    1
    17    17    18    1
    18    18    19    1
    19    19    20   ar
    20    20    21   ar
    21    21    22    1
    22    21    23   ar
    23    23    24   ar
    24    24    25   ar
    25    25    26    1
    26    16    27   ar
    27    27    28   ar
    28    28    29    1
    29    29    30    1
    30    30    31    1
    31    31    32    1
    32    32    33    1
    33    33    34    1
    34    11     7   am
    35    28    13   ar
    36    34    30    1
    37    25    19   ar
    38     3    35    1
    39     4    36    1
    40     4    37    1
    41     5    38    1
    42     5    39    1
    43     6    40    1
    44     6    41    1
    45     8    42    1
    46     8    43    1
    47     9    44    1
    48     9    45    1
    49    14    46    1
    50    17    47    1
    51    18    48    1
    52    18    49    1
    53    20    50    1
    54    23    51    1
    55    24    52    1
    56    29    53    1
    57    30    54    1
    58    31    55    1
    59    31    56    1
    60    32    57    1
    61    32    58    1
    62    33    59    1
    63    33    60    1
    64    34    61    1
    65    34    62    1
