@<TRIPOS>MOLECULE
*****
 44 46 0 0 0
SMALL
GASTEIGER

@<TRIPOS>ATOM
      1 C          -4.0170   -1.0394   -2.1043 C.3     1  UNL1       -0.0478
      2 C          -3.9545   -0.5935   -0.6567 C.3     1  UNL1        0.0291
      3 C          -4.9495    0.5218   -0.4803 C.3     1  UNL1       -0.0359
      4 C          -4.8953    1.1686    0.8677 C.3     1  UNL1       -0.0504
      5 C          -3.5384    0.9195    1.5335 C.3     1  UNL1       -0.0385
      6 C          -2.5095    0.9924    0.4234 C.3     1  UNL1        0.0208
      7 N          -2.5960   -0.1661   -0.4031 N.3     1  UNL1       -0.1738
      8 S          -1.6471   -1.4798    0.1855 S.O2    1  UNL1        0.0611
      9 O          -2.0272   -1.8596    1.5796 O.2     1  UNL1       -0.1528
     10 O          -1.7217   -2.6699   -0.7081 O.2     1  UNL1       -0.1528
     11 C           0.0307   -0.9436    0.1894 C.ar    1  UNL1        0.1056
     12 C           0.5947   -0.3304    1.2792 C.ar    1  UNL1       -0.0336
     13 C           1.9218    0.0886    1.2691 C.ar    1  UNL1       -0.0384
     14 C           2.7194   -0.0973    0.1624 C.ar    1  UNL1        0.0364
     15 N           4.0663    0.3210    0.1331 N.am    1  UNL1       -0.2714
     16 C           4.9492    0.1347   -1.0289 C.3     1  UNL1        0.0202
     17 C           6.2846    0.6715   -0.5868 C.3     1  UNL1       -0.0285
     18 C           6.2353    0.5896    0.9350 C.3     1  UNL1        0.0259
     19 C           4.7957    0.9684    1.1642 C.2     1  UNL1        0.2198
     20 O           4.3062    1.6962    2.0604 O.2     1  UNL1       -0.2753
     21 C           2.1337   -0.7151   -0.9217 C.ar    1  UNL1       -0.0384
     22 C           0.8272   -1.1350   -0.9301 C.ar    1  UNL1       -0.0336
     23 H          -3.3748   -1.9283   -2.2881 H       1  UNL1        0.0245
     24 H          -3.5355   -0.2112   -2.6947 H       1  UNL1        0.0245
     25 H          -5.0352   -1.1417   -2.4858 H       1  UNL1        0.0245
     26 H          -4.2687   -1.4281   -0.0179 H       1  UNL1        0.0477
     27 H          -4.7601    1.2472   -1.3204 H       1  UNL1        0.0281
     28 H          -5.9558    0.0979   -0.6289 H       1  UNL1        0.0281
     29 H          -5.7298    0.9382    1.5284 H       1  UNL1        0.0266
     30 H          -4.9320    2.2821    0.6933 H       1  UNL1        0.0266
     31 H          -3.5767   -0.0807    1.9876 H       1  UNL1        0.0278
     32 H          -3.3306    1.6861    2.2912 H       1  UNL1        0.0278
     33 H          -1.4840    1.1128    0.7848 H       1  UNL1        0.0444
     34 H          -2.8197    1.8729   -0.2123 H       1  UNL1        0.0444
     35 H          -0.0101   -0.1636    2.1834 H       1  UNL1        0.0638
     36 H           2.2800    0.5560    2.1581 H       1  UNL1        0.0637
     37 H           4.6089    0.7516   -1.8786 H       1  UNL1        0.0469
     38 H           5.0329   -0.9253   -1.3115 H       1  UNL1        0.0469
     39 H           7.1273    0.1221   -1.0105 H       1  UNL1        0.0285
     40 H           6.3718    1.7572   -0.8243 H       1  UNL1        0.0285
     41 H           6.3305   -0.4612    1.2765 H       1  UNL1        0.0359
     42 H           6.9250    1.2862    1.4164 H       1  UNL1        0.0359
     43 H           2.7444   -0.8747   -1.8122 H       1  UNL1        0.0637
     44 H           0.3840   -1.6209   -1.7966 H       1  UNL1        0.0638
@<TRIPOS>BOND
     1     1     2    1
     2     2     3    1
     3     3     4    1
     4     4     5    1
     5     5     6    1
     6     6     7    1
     7     7     8    1
     8     8     9    2
     9     8    10    2
    10     8    11    1
    11    11    12   ar
    12    12    13   ar
    13    13    14   ar
    14    14    15    1
    15    15    16    1
    16    16    17    1
    17    17    18    1
    18    18    19    1
    19    19    20    2
    20    14    21   ar
    21    21    22   ar
    22     7     2    1
    23    22    11   ar
    24    19    15   am
    25     1    23    1
    26     1    24    1
    27     1    25    1
    28     2    26    1
    29     3    27    1
    30     3    28    1
    31     4    29    1
    32     4    30    1
    33     5    31    1
    34     5    32    1
    35     6    33    1
    36     6    34    1
    37    12    35    1
    38    13    36    1
    39    16    37    1
    40    16    38    1
    41    17    39    1
    42    17    40    1
    43    18    41    1
    44    18    42    1
    45    21    43    1
    46    22    44    1
