
     RDKit          3D

 43 45  0  0  0  0  0  0  0  0999 V2000
    4.6193    0.9320    0.5214 C   0  0  0  0  0  0  0  0  0  0  0  0
    3.3984    0.1237    0.2889 N   0  0  0  0  0  0  0  0  0  0  0  0
    3.8642   -1.1428   -0.3023 C   0  0  0  0  0  0  0  0  0  0  0  0
    2.6179    0.7515   -0.7727 C   0  0  0  0  0  0  0  0  0  0  0  0
    1.2768    0.0855   -0.8876 C   0  0  0  0  0  0  0  0  0  0  0  0
    0.5595    0.3047    0.4382 C   0  0  0  0  0  0  0  0  0  0  0  0
   -0.7696   -0.2663    0.4783 N   0  0  0  0  0  0  0  0  0  0  0  0
   -0.9019   -1.6699    0.6221 C   0  0  0  0  0  0  0  0  0  0  0  0
    0.1965   -2.4826    0.7721 C   0  0  0  0  0  0  0  0  0  0  0  0
    0.1661   -3.8620    0.9448 C   0  0  0  0  0  0  0  0  0  0  0  0
   -1.0530   -4.4942    0.9712 C   0  0  0  0  0  0  0  0  0  0  0  0
   -2.1909   -3.7344    0.8248 C   0  0  0  0  0  0  0  0  0  0  0  0
   -2.0682   -2.3943    0.6610 C   0  0  0  0  0  0  0  0  0  0  0  0
   -3.6319   -1.5531    0.5008 S   0  0  0  0  0  0  0  0  0  0  0  0
   -3.2229    0.1648    0.3544 C   0  0  0  0  0  0  0  0  0  0  0  0
   -1.9198    0.5614    0.3544 C   0  0  0  0  0  0  0  0  0  0  0  0
   -1.8017    1.9255    0.2194 C   0  0  0  0  0  0  0  0  0  0  0  0
   -2.8374    2.8215    0.0966 C   0  0  0  0  0  0  0  0  0  0  0  0
   -4.1312    2.3449    0.1049 C   0  0  0  0  0  0  0  0  0  0  0  0
   -4.3179    0.9722    0.2387 C   0  0  0  0  0  0  0  0  0  0  0  0
   -2.7256    4.2946   -0.0429 C   0  0  0  0  0  0  0  0  0  0  0  0
   -3.3282    4.6543   -1.2350 F   0  0  0  0  0  0  0  0  0  0  0  0
   -3.4400    4.9249    0.9649 F   0  0  0  0  0  0  0  0  0  0  0  0
   -1.4321    4.7269   -0.0791 F   0  0  0  0  0  0  0  0  0  0  0  0
    5.4995    0.2531    0.5801 H   0  0  0  0  0  0  0  0  0  0  0  0
    4.5617    1.3899    1.5473 H   0  0  0  0  0  0  0  0  0  0  0  0
    4.7936    1.6633   -0.2794 H   0  0  0  0  0  0  0  0  0  0  0  0
    4.9796   -1.1270   -0.3752 H   0  0  0  0  0  0  0  0  0  0  0  0
    3.4987   -1.9487    0.3446 H   0  0  0  0  0  0  0  0  0  0  0  0
    3.4909   -1.2983   -1.3296 H   0  0  0  0  0  0  0  0  0  0  0  0
    2.4496    1.8272   -0.5282 H   0  0  0  0  0  0  0  0  0  0  0  0
    3.2080    0.6826   -1.7310 H   0  0  0  0  0  0  0  0  0  0  0  0
    1.2707   -0.9268   -1.2547 H   0  0  0  0  0  0  0  0  0  0  0  0
    0.6740    0.6824   -1.6461 H   0  0  0  0  0  0  0  0  0  0  0  0
    1.2076   -0.1928    1.2310 H   0  0  0  0  0  0  0  0  0  0  0  0
    0.6287    1.3750    0.6047 H   0  0  0  0  0  0  0  0  0  0  0  0
    1.2073   -2.1119    0.7763 H   0  0  0  0  0  0  0  0  0  0  0  0
    1.0374   -4.4847    1.0592 H   0  0  0  0  0  0  0  0  0  0  0  0
   -1.1047   -5.5656    1.1036 H   0  0  0  0  0  0  0  0  0  0  0  0
   -3.1257   -4.2747    0.8522 H   0  0  0  0  0  0  0  0  0  0  0  0
   -0.8618    2.4477    0.1884 H   0  0  0  0  0  0  0  0  0  0  0  0
   -4.9916    2.9896    0.0159 H   0  0  0  0  0  0  0  0  0  0  0  0
   -5.3500    0.6311    0.2450 H   0  0  0  0  0  0  0  0  0  0  0  0
  1  2  1  0
  2  3  1  0
  2  4  1  0
  4  5  1  0
  5  6  1  0
  6  7  1  0
  7  8  1  0
  8  9  2  0
  9 10  1  0
 10 11  2  0
 11 12  1  0
 12 13  2  0
 13 14  1  0
 14 15  1  0
 15 16  2  0
 16 17  1  0
 17 18  2  0
 18 19  1  0
 19 20  2  0
 18 21  1  0
 21 22  1  0
 21 23  1  0
 21 24  1  0
 16  7  1  0
 13  8  1  0
 20 15  1  0
  1 25  1  0
  1 26  1  0
  1 27  1  0
  3 28  1  0
  3 29  1  0
  3 30  1  0
  4 31  1  0
  4 32  1  0
  5 33  1  0
  5 34  1  0
  6 35  1  0
  6 36  1  0
  9 37  1  0
 10 38  1  0
 11 39  1  0
 12 40  1  0
 17 41  1  0
 19 42  1  0
 20 43  1  0
M  END
$$$$
