@<TRIPOS>MOLECULE
*****
 43 45 0 0 0
SMALL
GASTEIGER

@<TRIPOS>ATOM
      1 C           4.6193    0.9320    0.5214 C.3     1  UNL1       -0.0130
      2 N           3.3984    0.1237    0.2889 N.3     1  UNL1       -0.3083
      3 C           3.8642   -1.1428   -0.3023 C.3     1  UNL1       -0.0130
      4 C           2.6179    0.7515   -0.7727 C.3     1  UNL1       -0.0003
      5 C           1.2768    0.0855   -0.8876 C.3     1  UNL1       -0.0240
      6 C           0.5595    0.3047    0.4382 C.3     1  UNL1        0.0185
      7 N          -0.7696   -0.2663    0.4783 N.pl3   1  UNL1       -0.2983
      8 C          -0.9019   -1.6699    0.6221 C.ar    1  UNL1        0.0479
      9 C           0.1965   -2.4826    0.7721 C.ar    1  UNL1       -0.0393
     10 C           0.1661   -3.8620    0.9448 C.ar    1  UNL1       -0.0599
     11 C          -1.0530   -4.4942    0.9712 C.ar    1  UNL1       -0.0606
     12 C          -2.1909   -3.7344    0.8248 C.ar    1  UNL1       -0.0462
     13 C          -2.0682   -2.3943    0.6610 C.ar    1  UNL1        0.0341
     14 S          -3.6319   -1.5531    0.5008 S.3     1  UNL1       -0.0857
     15 C          -3.2229    0.1648    0.3544 C.ar    1  UNL1        0.0341
     16 C          -1.9198    0.5614    0.3544 C.ar    1  UNL1        0.0484
     17 C          -1.8017    1.9255    0.2194 C.ar    1  UNL1       -0.0276
     18 C          -2.8374    2.8215    0.0966 C.ar    1  UNL1        0.0566
     19 C          -4.1312    2.3449    0.1049 C.ar    1  UNL1       -0.0490
     20 C          -4.3179    0.9722    0.2387 C.ar    1  UNL1       -0.0457
     21 C          -2.7256    4.2946   -0.0429 C.3     1  UNL1        0.4175
     22 F          -3.3282    4.6543   -1.2350 F       1  UNL1       -0.1659
     23 F          -3.4400    4.9249    0.9649 F       1  UNL1       -0.1659
     24 F          -1.4321    4.7269   -0.0791 F       1  UNL1       -0.1659
     25 H           5.4995    0.2531    0.5801 H       1  UNL1        0.0391
     26 H           4.5617    1.3899    1.5473 H       1  UNL1        0.0391
     27 H           4.7936    1.6633   -0.2794 H       1  UNL1        0.0391
     28 H           4.9796   -1.1270   -0.3752 H       1  UNL1        0.0391
     29 H           3.4987   -1.9487    0.3446 H       1  UNL1        0.0391
     30 H           3.4909   -1.2983   -1.3296 H       1  UNL1        0.0391
     31 H           2.4496    1.8272   -0.5282 H       1  UNL1        0.0427
     32 H           3.2080    0.6826   -1.7310 H       1  UNL1        0.0427
     33 H           1.2707   -0.9268   -1.2547 H       1  UNL1        0.0293
     34 H           0.6740    0.6824   -1.6461 H       1  UNL1        0.0293
     35 H           1.2076   -0.1928    1.2310 H       1  UNL1        0.0468
     36 H           0.6287    1.3750    0.6047 H       1  UNL1        0.0468
     37 H           1.2073   -2.1119    0.7763 H       1  UNL1        0.0636
     38 H           1.0374   -4.4847    1.0592 H       1  UNL1        0.0618
     39 H          -1.1047   -5.5656    1.1036 H       1  UNL1        0.0618
     40 H          -3.1257   -4.2747    0.8522 H       1  UNL1        0.0629
     41 H          -0.8618    2.4477    0.1884 H       1  UNL1        0.0642
     42 H          -4.9916    2.9896    0.0159 H       1  UNL1        0.0623
     43 H          -5.3500    0.6311    0.2450 H       1  UNL1        0.0629
@<TRIPOS>BOND
     1     1     2    1
     2     2     3    1
     3     2     4    1
     4     4     5    1
     5     5     6    1
     6     6     7    1
     7     7     8    1
     8     8     9   ar
     9     9    10   ar
    10    10    11   ar
    11    11    12   ar
    12    12    13   ar
    13    13    14    1
    14    14    15    1
    15    15    16   ar
    16    16    17   ar
    17    17    18   ar
    18    18    19   ar
    19    19    20   ar
    20    18    21    1
    21    21    22    1
    22    21    23    1
    23    21    24    1
    24    16     7    1
    25    13     8   ar
    26    20    15   ar
    27     1    25    1
    28     1    26    1
    29     1    27    1
    30     3    28    1
    31     3    29    1
    32     3    30    1
    33     4    31    1
    34     4    32    1
    35     5    33    1
    36     5    34    1
    37     6    35    1
    38     6    36    1
    39     9    37    1
    40    10    38    1
    41    11    39    1
    42    12    40    1
    43    17    41    1
    44    19    42    1
    45    20    43    1
