
     RDKit          3D

 82 86  0  0  0  0  0  0  0  0999 V2000
   -9.2794   -4.1182   -0.1863 C   0  0  0  0  0  0  0  0  0  0  0  0
   -7.9014   -3.7424   -0.5863 C   0  0  0  0  0  0  0  0  0  0  0  0
   -7.1079   -3.0295    0.2934 C   0  0  0  0  0  0  0  0  0  0  0  0
   -5.8388   -2.6773   -0.0631 C   0  0  0  0  0  0  0  0  0  0  0  0
   -5.3694   -3.0447   -1.3076 C   0  0  0  0  0  0  0  0  0  0  0  0
   -3.9767   -2.6987   -1.7630 C   0  0  0  0  0  0  0  0  0  0  0  0
   -3.5244   -1.6893   -0.9178 O   0  0  0  0  0  0  0  0  0  0  0  0
   -2.2743   -1.0932   -0.9881 C   0  0  0  0  0  0  0  0  0  0  0  0
   -1.2969   -1.4117   -1.8902 C   0  0  0  0  0  0  0  0  0  0  0  0
   -0.0700   -0.8054   -1.9340 C   0  0  0  0  0  0  0  0  0  0  0  0
    0.2365    0.1917   -1.0290 C   0  0  0  0  0  0  0  0  0  0  0  0
   -0.7348    0.5248   -0.1182 C   0  0  0  0  0  0  0  0  0  0  0  0
   -1.9668   -0.0861   -0.0745 C   0  0  0  0  0  0  0  0  0  0  0  0
   -0.1508    1.5422    0.6512 C   0  0  0  0  0  0  0  0  0  0  0  0
   -0.9686    2.3365    1.9933 S   0  0  0  0  0  0  0  0  0  0  0  0
   -2.1640    3.5602    1.3439 C   0  0  0  0  0  0  0  0  0  0  0  0
   -3.4356    2.8615    0.8329 C   0  0  0  0  0  0  0  0  0  0  0  0
   -1.5688    4.1903    0.1034 C   0  0  0  0  0  0  0  0  0  0  0  0
   -2.4780    4.6375    2.3367 C   0  0  0  0  0  0  0  0  0  0  0  0
    1.1412    1.7865    0.2027 C   0  0  0  0  0  0  0  0  0  0  0  0
    2.1718    2.6330    0.7517 C   0  0  0  0  0  0  0  0  0  0  0  0
    2.1456    4.0977    0.7674 C   0  0  0  0  0  0  0  0  0  0  0  0
    2.0207    4.7981   -0.5428 C   0  0  0  0  0  0  0  0  0  0  0  0
    3.6402    4.5030    1.1982 C   0  0  0  0  0  0  0  0  0  0  0  0
    1.3821    4.6770    1.8880 C   0  0  0  0  0  0  0  0  0  0  0  0
    0.5681    5.6000    1.8209 O   0  0  0  0  0  0  0  0  0  0  0  0
    1.5912    4.1310    3.1766 O   0  0  0  0  0  0  0  0  0  0  0  0
    1.3486    0.9209   -0.8528 N   0  0  0  0  0  0  0  0  0  0  0  0
    2.5879    0.7633   -1.5945 C   0  0  0  0  0  0  0  0  0  0  0  0
    3.4360   -0.3486   -1.1302 C   0  0  0  0  0  0  0  0  0  0  0  0
    3.4585   -1.5417   -1.8590 C   0  0  0  0  0  0  0  0  0  0  0  0
    4.2140   -2.6361   -1.4671 C   0  0  0  0  0  0  0  0  0  0  0  0
    4.9794   -2.6022   -0.3423 C   0  0  0  0  0  0  0  0  0  0  0  0
    5.7876   -3.7184    0.1348 C   0  0  0  0  0  0  0  0  0  0  0  0
    5.8189   -4.9352   -0.5459 C   0  0  0  0  0  0  0  0  0  0  0  0
    6.6014   -5.9773   -0.0473 C   0  0  0  0  0  0  0  0  0  0  0  0
    7.3049   -5.7289    1.1073 C   0  0  0  0  0  0  0  0  0  0  0  0
    8.0672   -6.7356    1.5977 F   0  0  0  0  0  0  0  0  0  0  0  0
    7.2633   -4.5249    1.7659 C   0  0  0  0  0  0  0  0  0  0  0  0
    6.5058   -3.5563    1.2589 N   0  0  0  0  0  0  0  0  0  0  0  0
    4.9709   -1.4326    0.3904 C   0  0  0  0  0  0  0  0  0  0  0  0
    4.2051   -0.3113    0.0011 C   0  0  0  0  0  0  0  0  0  0  0  0
   -6.1131   -3.7380   -2.1880 N   0  0  0  0  0  0  0  0  0  0  0  0
   -7.3642   -4.0762   -1.8174 C   0  0  0  0  0  0  0  0  0  0  0  0
   -9.9550   -3.2888   -0.5303 H   0  0  0  0  0  0  0  0  0  0  0  0
   -9.6028   -5.0463   -0.6995 H   0  0  0  0  0  0  0  0  0  0  0  0
   -9.3984   -4.1660    0.9052 H   0  0  0  0  0  0  0  0  0  0  0  0
   -7.4631   -2.7400    1.2647 H   0  0  0  0  0  0  0  0  0  0  0  0
   -5.1731   -2.1132    0.6000 H   0  0  0  0  0  0  0  0  0  0  0  0
   -4.0314   -2.4147   -2.8268 H   0  0  0  0  0  0  0  0  0  0  0  0
   -3.3877   -3.6371   -1.6878 H   0  0  0  0  0  0  0  0  0  0  0  0
   -1.5234   -2.1999   -2.6140 H   0  0  0  0  0  0  0  0  0  0  0  0
    0.6452   -1.0961   -2.6725 H   0  0  0  0  0  0  0  0  0  0  0  0
   -2.6720    0.2021    0.6685 H   0  0  0  0  0  0  0  0  0  0  0  0
   -3.2754    2.5311   -0.1914 H   0  0  0  0  0  0  0  0  0  0  0  0
   -3.8044    2.1170    1.5363 H   0  0  0  0  0  0  0  0  0  0  0  0
   -4.1946    3.6760    0.8067 H   0  0  0  0  0  0  0  0  0  0  0  0
   -1.5891    5.2937    0.2396 H   0  0  0  0  0  0  0  0  0  0  0  0
   -0.5704    3.7592   -0.0472 H   0  0  0  0  0  0  0  0  0  0  0  0
   -2.2226    3.9080   -0.7744 H   0  0  0  0  0  0  0  0  0  0  0  0
   -3.4943    4.5229    2.7712 H   0  0  0  0  0  0  0  0  0  0  0  0
   -1.7014    4.5880    3.1538 H   0  0  0  0  0  0  0  0  0  0  0  0
   -2.4350    5.6567    1.9052 H   0  0  0  0  0  0  0  0  0  0  0  0
    3.1621    2.3945    0.1989 H   0  0  0  0  0  0  0  0  0  0  0  0
    2.4707    2.3049    1.8050 H   0  0  0  0  0  0  0  0  0  0  0  0
    2.9921    5.0101   -1.0513 H   0  0  0  0  0  0  0  0  0  0  0  0
    1.4200    4.1951   -1.2863 H   0  0  0  0  0  0  0  0  0  0  0  0
    1.5308    5.7849   -0.4284 H   0  0  0  0  0  0  0  0  0  0  0  0
    3.7263    4.0893    2.2085 H   0  0  0  0  0  0  0  0  0  0  0  0
    3.6125    5.6069    1.1596 H   0  0  0  0  0  0  0  0  0  0  0  0
    4.2752    4.0722    0.4294 H   0  0  0  0  0  0  0  0  0  0  0  0
    0.8044    4.1823    3.8405 H   0  0  0  0  0  0  0  0  0  0  0  0
    2.2452    0.5603   -2.6590 H   0  0  0  0  0  0  0  0  0  0  0  0
    3.1614    1.7022   -1.6641 H   0  0  0  0  0  0  0  0  0  0  0  0
    2.8731   -1.5812   -2.7557 H   0  0  0  0  0  0  0  0  0  0  0  0
    4.1853   -3.5344   -2.0813 H   0  0  0  0  0  0  0  0  0  0  0  0
    5.2579   -5.0847   -1.4354 H   0  0  0  0  0  0  0  0  0  0  0  0
    6.6345   -6.9331   -0.5690 H   0  0  0  0  0  0  0  0  0  0  0  0
    7.8456   -4.3803    2.6823 H   0  0  0  0  0  0  0  0  0  0  0  0
    5.5648   -1.3618    1.2879 H   0  0  0  0  0  0  0  0  0  0  0  0
    4.2524    0.5640    0.6234 H   0  0  0  0  0  0  0  0  0  0  0  0
   -8.0281   -4.6393   -2.4836 H   0  0  0  0  0  0  0  0  0  0  0  0
  1  2  1  0
  2  3  2  0
  3  4  1  0
  4  5  2  0
  5  6  1  0
  6  7  1  0
  7  8  1  0
  8  9  2  0
  9 10  1  0
 10 11  2  0
 11 12  1  0
 12 13  2  0
 12 14  1  0
 14 15  1  0
 15 16  1  0
 16 17  1  0
 16 18  1  0
 16 19  1  0
 14 20  2  0
 20 21  1  0
 21 22  1  0
 22 23  1  0
 22 24  1  0
 22 25  1  0
 25 26  2  0
 25 27  1  0
 20 28  1  0
 28 29  1  0
 29 30  1  0
 30 31  2  0
 31 32  1  0
 32 33  2  0
 33 34  1  0
 34 35  2  0
 35 36  1  0
 36 37  2  0
 37 38  1  0
 37 39  1  0
 39 40  2  0
 33 41  1  0
 41 42  2  0
  5 43  1  0
 43 44  2  0
 44  2  1  0
 13  8  1  0
 42 30  1  0
 28 11  1  0
 40 34  1  0
  1 45  1  0
  1 46  1  0
  1 47  1  0
  3 48  1  0
  4 49  1  0
  6 50  1  0
  6 51  1  0
  9 52  1  0
 10 53  1  0
 13 54  1  0
 17 55  1  0
 17 56  1  0
 17 57  1  0
 18 58  1  0
 18 59  1  0
 18 60  1  0
 19 61  1  0
 19 62  1  0
 19 63  1  0
 21 64  1  0
 21 65  1  0
 23 66  1  0
 23 67  1  0
 23 68  1  0
 24 69  1  0
 24 70  1  0
 24 71  1  0
 27 72  1  0
 29 73  1  0
 29 74  1  0
 31 75  1  0
 32 76  1  0
 35 77  1  0
 36 78  1  0
 39 79  1  0
 41 80  1  0
 42 81  1  0
 44 82  1  0
M  END
$$$$
