@<TRIPOS>MOLECULE
*****
 82 86 0 0 0
SMALL
GASTEIGER

@<TRIPOS>ATOM
      1 C          -9.2794   -4.1182   -0.1863 C.3     1  UNL1       -0.0383
      2 C          -7.9014   -3.7424   -0.5863 C.ar    1  UNL1       -0.0323
      3 C          -7.1079   -3.0295    0.2934 C.ar    1  UNL1       -0.0556
      4 C          -5.8388   -2.6773   -0.0631 C.ar    1  UNL1       -0.0368
      5 C          -5.3694   -3.0447   -1.3076 C.ar    1  UNL1        0.0785
      6 C          -3.9767   -2.6987   -1.7630 C.3     1  UNL1        0.1313
      7 O          -3.5244   -1.6893   -0.9178 O.3     1  UNL1       -0.4858
      8 C          -2.2743   -1.0932   -0.9881 C.ar    1  UNL1        0.1218
      9 C          -1.2969   -1.4117   -1.8902 C.ar    1  UNL1       -0.0179
     10 C          -0.0700   -0.8054   -1.9340 C.ar    1  UNL1       -0.0341
     11 C           0.2365    0.1917   -1.0290 C.ar    1  UNL1        0.0509
     12 C          -0.7348    0.5248   -0.1182 C.ar    1  UNL1        0.0170
     13 C          -1.9668   -0.0861   -0.0745 C.ar    1  UNL1       -0.0097
     14 C          -0.1508    1.5422    0.6512 C.ar    1  UNL1        0.0370
     15 S          -0.9686    2.3365    1.9933 S.3     1  UNL1       -0.1169
     16 C          -2.1640    3.5602    1.3439 C.3     1  UNL1        0.0129
     17 C          -3.4356    2.8615    0.8329 C.3     1  UNL1       -0.0506
     18 C          -1.5688    4.1903    0.1034 C.3     1  UNL1       -0.0506
     19 C          -2.4780    4.6375    2.3367 C.3     1  UNL1       -0.0506
     20 C           1.1412    1.7865    0.2027 C.ar    1  UNL1        0.0346
     21 C           2.1718    2.6330    0.7517 C.3     1  UNL1        0.0040
     22 C           2.1456    4.0977    0.7674 C.3     1  UNL1        0.0673
     23 C           2.0207    4.7981   -0.5428 C.3     1  UNL1       -0.0493
     24 C           3.6402    4.5030    1.1982 C.3     1  UNL1       -0.0493
     25 C           1.3821    4.6770    1.8880 C.2     1  UNL1        0.3108
     26 O           0.5681    5.6000    1.8209 O.2     1  UNL1       -0.2504
     27 O           1.5912    4.1310    3.1766 O.3     1  UNL1       -0.4802
     28 N           1.3486    0.9209   -0.8528 N.ar    1  UNL1       -0.3383
     29 C           2.5879    0.7633   -1.5945 C.3     1  UNL1        0.0486
     30 C           3.4360   -0.3486   -1.1302 C.ar    1  UNL1       -0.0277
     31 C           3.4585   -1.5417   -1.8590 C.ar    1  UNL1       -0.0563
     32 C           4.2140   -2.6361   -1.4671 C.ar    1  UNL1       -0.0523
     33 C           4.9794   -2.6022   -0.3423 C.ar    1  UNL1        0.0004
     34 C           5.7876   -3.7184    0.1348 C.ar    1  UNL1        0.0711
     35 C           5.8189   -4.9352   -0.5459 C.ar    1  UNL1       -0.0330
     36 C           6.6014   -5.9773   -0.0473 C.ar    1  UNL1       -0.0229
     37 C           7.3049   -5.7289    1.1073 C.ar    1  UNL1        0.1414
     38 F           8.0672   -6.7356    1.5977 F       1  UNL1       -0.2039
     39 C           7.2633   -4.5249    1.7659 C.ar    1  UNL1        0.0634
     40 N           6.5058   -3.5563    1.2589 N.ar    1  UNL1       -0.2521
     41 C           4.9709   -1.4326    0.3904 C.ar    1  UNL1       -0.0523
     42 C           4.2051   -0.3113    0.0011 C.ar    1  UNL1       -0.0563
     43 N          -6.1131   -3.7380   -2.1880 N.ar    1  UNL1       -0.2562
     44 C          -7.3642   -4.0762   -1.8174 C.ar    1  UNL1        0.0309
     45 H          -9.9550   -3.2888   -0.5303 H       1  UNL1        0.0278
     46 H          -9.6028   -5.0463   -0.6995 H       1  UNL1        0.0278
     47 H          -9.3984   -4.1660    0.9052 H       1  UNL1        0.0278
     48 H          -7.4631   -2.7400    1.2647 H       1  UNL1        0.0621
     49 H          -5.1731   -2.1132    0.6000 H       1  UNL1        0.0637
     50 H          -4.0314   -2.4147   -2.8268 H       1  UNL1        0.0763
     51 H          -3.3877   -3.6371   -1.6878 H       1  UNL1        0.0763
     52 H          -1.5234   -2.1999   -2.6140 H       1  UNL1        0.0655
     53 H           0.6452   -1.0961   -2.6725 H       1  UNL1        0.0639
     54 H          -2.6720    0.2021    0.6685 H       1  UNL1        0.0661
     55 H          -3.2754    2.5311   -0.1914 H       1  UNL1        0.0243
     56 H          -3.8044    2.1170    1.5363 H       1  UNL1        0.0243
     57 H          -4.1946    3.6760    0.8067 H       1  UNL1        0.0243
     58 H          -1.5891    5.2937    0.2396 H       1  UNL1        0.0243
     59 H          -0.5704    3.7592   -0.0472 H       1  UNL1        0.0243
     60 H          -2.2226    3.9080   -0.7744 H       1  UNL1        0.0243
     61 H          -3.4943    4.5229    2.7712 H       1  UNL1        0.0243
     62 H          -1.7014    4.5880    3.1538 H       1  UNL1        0.0243
     63 H          -2.4350    5.6567    1.9052 H       1  UNL1        0.0243
     64 H           3.1621    2.3945    0.1989 H       1  UNL1        0.0338
     65 H           2.4707    2.3049    1.8050 H       1  UNL1        0.0338
     66 H           2.9921    5.0101   -1.0513 H       1  UNL1        0.0240
     67 H           1.4200    4.1951   -1.2863 H       1  UNL1        0.0240
     68 H           1.5308    5.7849   -0.4284 H       1  UNL1        0.0240
     69 H           3.7263    4.0893    2.2085 H       1  UNL1        0.0240
     70 H           3.6125    5.6069    1.1596 H       1  UNL1        0.0240
     71 H           4.2752    4.0722    0.4294 H       1  UNL1        0.0240
     72 H           0.8044    4.1823    3.8405 H       1  UNL1        0.2951
     73 H           2.2452    0.5603   -2.6590 H       1  UNL1        0.0541
     74 H           3.1614    1.7022   -1.6641 H       1  UNL1        0.0541
     75 H           2.8731   -1.5812   -2.7557 H       1  UNL1        0.0621
     76 H           4.1853   -3.5344   -2.0813 H       1  UNL1        0.0624
     77 H           5.2579   -5.0847   -1.4354 H       1  UNL1        0.0640
     78 H           6.6345   -6.9331   -0.5690 H       1  UNL1        0.0647
     79 H           7.8456   -4.3803    2.6823 H       1  UNL1        0.0859
     80 H           5.5648   -1.3618    1.2879 H       1  UNL1        0.0624
     81 H           4.2524    0.5640    0.6234 H       1  UNL1        0.0621
     82 H          -8.0281   -4.6393   -2.4836 H       1  UNL1        0.0832
@<TRIPOS>BOND
     1     1     2    1
     2     2     3   ar
     3     3     4   ar
     4     4     5   ar
     5     5     6    1
     6     6     7    1
     7     7     8    1
     8     8     9   ar
     9     9    10   ar
    10    10    11   ar
    11    11    12   ar
    12    12    13   ar
    13    12    14   ar
    14    14    15    1
    15    15    16    1
    16    16    17    1
    17    16    18    1
    18    16    19    1
    19    14    20   ar
    20    20    21    1
    21    21    22    1
    22    22    23    1
    23    22    24    1
    24    22    25    1
    25    25    26    2
    26    25    27    1
    27    20    28   ar
    28    28    29    1
    29    29    30    1
    30    30    31   ar
    31    31    32   ar
    32    32    33   ar
    33    33    34    1
    34    34    35   ar
    35    35    36   ar
    36    36    37   ar
    37    37    38    1
    38    37    39   ar
    39    39    40   ar
    40    33    41   ar
    41    41    42   ar
    42     5    43   ar
    43    43    44   ar
    44    44     2   ar
    45    13     8   ar
    46    42    30   ar
    47    28    11   ar
    48    40    34   ar
    49     1    45    1
    50     1    46    1
    51     1    47    1
    52     3    48    1
    53     4    49    1
    54     6    50    1
    55     6    51    1
    56     9    52    1
    57    10    53    1
    58    13    54    1
    59    17    55    1
    60    17    56    1
    61    17    57    1
    62    18    58    1
    63    18    59    1
    64    18    60    1
    65    19    61    1
    66    19    62    1
    67    19    63    1
    68    21    64    1
    69    21    65    1
    70    23    66    1
    71    23    67    1
    72    23    68    1
    73    24    69    1
    74    24    70    1
    75    24    71    1
    76    27    72    1
    77    29    73    1
    78    29    74    1
    79    31    75    1
    80    32    76    1
    81    35    77    1
    82    36    78    1
    83    39    79    1
    84    41    80    1
    85    42    81    1
    86    44    82    1
