@<TRIPOS>MOLECULE
*****
 38 39 0 0 0
SMALL
GASTEIGER

@<TRIPOS>ATOM
      1 C           4.9477   -1.6053   -0.2833 C.3     1  UNL1       -0.0499
      2 C           4.2985   -0.3192    0.1675 C.3     1  UNL1        0.0021
      3 C           4.9115    0.7968   -0.6385 C.3     1  UNL1       -0.0499
      4 N           2.8600   -0.4534   -0.1534 N.3     1  UNL1       -0.3112
      5 C           2.2252    0.7681    0.2681 C.3     1  UNL1        0.0254
      6 C           0.7295    0.8191   -0.0383 C.3     1  UNL1        0.1015
      7 O           0.2536    2.0437    0.4159 O.3     1  UNL1       -0.3872
      8 C           0.0431   -0.3691    0.5893 C.3     1  UNL1        0.1166
      9 O          -1.2704   -0.3885    0.3601 O.3     1  UNL1       -0.4887
     10 C          -2.4411    0.1705    0.4934 C.ar    1  UNL1        0.1297
     11 C          -2.8809    1.3240    1.1091 C.ar    1  UNL1       -0.0192
     12 C          -4.1715    1.8029    1.1748 C.ar    1  UNL1       -0.0563
     13 C          -5.0968    1.0076    0.5404 C.ar    1  UNL1       -0.0376
     14 C          -4.7888   -0.1686   -0.1108 C.ar    1  UNL1        0.0500
     15 C          -3.4427   -0.5634   -0.1169 C.ar    1  UNL1        0.0413
     16 C          -3.5366   -1.7563   -0.8469 C.ar    1  UNL1       -0.0332
     17 C          -4.8276   -2.0318   -1.2326 C.ar    1  UNL1        0.0028
     18 N          -5.5858   -1.0297   -0.7624 N.ar    1  UNL1       -0.3605
     19 H           5.9404   -1.7639    0.1901 H       1  UNL1        0.0245
     20 H           4.9942   -1.5948   -1.3852 H       1  UNL1        0.0245
     21 H           4.3057   -2.4516    0.0239 H       1  UNL1        0.0245
     22 H           4.3836   -0.1434    1.2580 H       1  UNL1        0.0455
     23 H           5.9894    0.6384   -0.8308 H       1  UNL1        0.0245
     24 H           4.8329    1.7574   -0.0991 H       1  UNL1        0.0245
     25 H           4.4138    0.8864   -1.6416 H       1  UNL1        0.0245
     26 H           2.5809   -1.2720    0.4713 H       1  UNL1        0.1223
     27 H           2.3775    0.8239    1.3740 H       1  UNL1        0.0450
     28 H           2.7395    1.6464   -0.1464 H       1  UNL1        0.0450
     29 H           0.5764    0.7815   -1.1486 H       1  UNL1        0.0640
     30 H           0.7906    2.3960    1.1769 H       1  UNL1        0.2100
     31 H           0.6163   -1.2551    0.1965 H       1  UNL1        0.0723
     32 H           0.2546   -0.2499    1.6946 H       1  UNL1        0.0723
     33 H          -2.1244    1.9133    1.6044 H       1  UNL1        0.0654
     34 H          -4.3905    2.7246    1.6890 H       1  UNL1        0.0619
     35 H          -6.1288    1.3412    0.5637 H       1  UNL1        0.0638
     36 H          -2.6676   -2.3833   -1.0740 H       1  UNL1        0.0640
     37 H          -5.1017   -2.9075   -1.8038 H       1  UNL1        0.0807
     38 H          -6.6097   -0.9350   -0.8810 H       1  UNL1        0.1653
@<TRIPOS>BOND
     1     1     2    1
     2     2     3    1
     3     2     4    1
     4     4     5    1
     5     5     6    1
     6     6     7    1
     7     6     8    1
     8     8     9    1
     9     9    10    1
    10    10    11   ar
    11    11    12   ar
    12    12    13   ar
    13    13    14   ar
    14    14    15   ar
    15    15    16   ar
    16    16    17   ar
    17    17    18   ar
    18    15    10   ar
    19    18    14   ar
    20     1    19    1
    21     1    20    1
    22     1    21    1
    23     2    22    1
    24     3    23    1
    25     3    24    1
    26     3    25    1
    27     4    26    1
    28     5    27    1
    29     5    28    1
    30     6    29    1
    31     7    30    1
    32     8    31    1
    33     8    32    1
    34    11    33    1
    35    12    34    1
    36    13    35    1
    37    16    36    1
    38    17    37    1
    39    18    38    1
