
     RDKit          3D

 38 39  0  0  0  0  0  0  0  0999 V2000
    4.9477   -1.6053   -0.2833 C   0  0  0  0  0  0  0  0  0  0  0  0
    4.2985   -0.3192    0.1675 C   0  0  0  0  0  0  0  0  0  0  0  0
    4.9115    0.7968   -0.6385 C   0  0  0  0  0  0  0  0  0  0  0  0
    2.8600   -0.4534   -0.1534 N   0  0  0  0  0  0  0  0  0  0  0  0
    2.2252    0.7681    0.2681 C   0  0  0  0  0  0  0  0  0  0  0  0
    0.7295    0.8191   -0.0383 C   0  0  0  0  0  0  0  0  0  0  0  0
    0.2536    2.0437    0.4159 O   0  0  0  0  0  0  0  0  0  0  0  0
    0.0431   -0.3691    0.5893 C   0  0  0  0  0  0  0  0  0  0  0  0
   -1.2704   -0.3885    0.3601 O   0  0  0  0  0  0  0  0  0  0  0  0
   -2.4411    0.1705    0.4934 C   0  0  0  0  0  0  0  0  0  0  0  0
   -2.8809    1.3240    1.1091 C   0  0  0  0  0  0  0  0  0  0  0  0
   -4.1715    1.8029    1.1748 C   0  0  0  0  0  0  0  0  0  0  0  0
   -5.0968    1.0076    0.5404 C   0  0  0  0  0  0  0  0  0  0  0  0
   -4.7888   -0.1686   -0.1108 C   0  0  0  0  0  0  0  0  0  0  0  0
   -3.4427   -0.5634   -0.1169 C   0  0  0  0  0  0  0  0  0  0  0  0
   -3.5366   -1.7563   -0.8469 C   0  0  0  0  0  0  0  0  0  0  0  0
   -4.8276   -2.0318   -1.2326 C   0  0  0  0  0  0  0  0  0  0  0  0
   -5.5858   -1.0297   -0.7624 N   0  0  0  0  0  0  0  0  0  0  0  0
    5.9404   -1.7639    0.1901 H   0  0  0  0  0  0  0  0  0  0  0  0
    4.9942   -1.5948   -1.3852 H   0  0  0  0  0  0  0  0  0  0  0  0
    4.3057   -2.4516    0.0239 H   0  0  0  0  0  0  0  0  0  0  0  0
    4.3836   -0.1434    1.2580 H   0  0  0  0  0  0  0  0  0  0  0  0
    5.9894    0.6384   -0.8308 H   0  0  0  0  0  0  0  0  0  0  0  0
    4.8329    1.7574   -0.0991 H   0  0  0  0  0  0  0  0  0  0  0  0
    4.4138    0.8864   -1.6416 H   0  0  0  0  0  0  0  0  0  0  0  0
    2.5809   -1.2720    0.4713 H   0  0  0  0  0  0  0  0  0  0  0  0
    2.3775    0.8239    1.3740 H   0  0  0  0  0  0  0  0  0  0  0  0
    2.7395    1.6464   -0.1464 H   0  0  0  0  0  0  0  0  0  0  0  0
    0.5764    0.7815   -1.1486 H   0  0  0  0  0  0  0  0  0  0  0  0
    0.7906    2.3960    1.1769 H   0  0  0  0  0  0  0  0  0  0  0  0
    0.6163   -1.2551    0.1965 H   0  0  0  0  0  0  0  0  0  0  0  0
    0.2546   -0.2499    1.6946 H   0  0  0  0  0  0  0  0  0  0  0  0
   -2.1244    1.9133    1.6044 H   0  0  0  0  0  0  0  0  0  0  0  0
   -4.3905    2.7246    1.6890 H   0  0  0  0  0  0  0  0  0  0  0  0
   -6.1288    1.3412    0.5637 H   0  0  0  0  0  0  0  0  0  0  0  0
   -2.6676   -2.3833   -1.0740 H   0  0  0  0  0  0  0  0  0  0  0  0
   -5.1017   -2.9075   -1.8038 H   0  0  0  0  0  0  0  0  0  0  0  0
   -6.6097   -0.9350   -0.8810 H   0  0  0  0  0  0  0  0  0  0  0  0
  1  2  1  0
  2  3  1  0
  2  4  1  0
  4  5  1  0
  5  6  1  0
  6  7  1  0
  6  8  1  0
  8  9  1  0
  9 10  1  0
 10 11  2  0
 11 12  1  0
 12 13  2  0
 13 14  1  0
 14 15  2  0
 15 16  1  0
 16 17  2  0
 17 18  1  0
 15 10  1  0
 18 14  1  0
  1 19  1  0
  1 20  1  0
  1 21  1  0
  2 22  1  0
  3 23  1  0
  3 24  1  0
  3 25  1  0
  4 26  1  0
  5 27  1  0
  5 28  1  0
  6 29  1  0
  7 30  1  0
  8 31  1  0
  8 32  1  0
 11 33  1  0
 12 34  1  0
 13 35  1  0
 16 36  1  0
 17 37  1  0
 18 38  1  0
M  END
$$$$
