@<TRIPOS>MOLECULE
*****
 19 18 0 0 0
SMALL
GASTEIGER

@<TRIPOS>ATOM
      1 N           1.6851    0.7060    1.5264 N.3     1  GLU1       -0.3184
      2 CA          1.0688   -0.2599    0.6447 C.3     1  GLU1        0.1037
      3 CB         -0.3566    0.2136    0.4423 C.3     1  GLU1       -0.0173
      4 CG         -1.1477   -0.6973   -0.4662 C.3     1  GLU1        0.0467
      5 CD         -2.5288   -0.1229   -0.5836 C.2     1  GLU1        0.3048
      6 OE1        -2.9548    1.0216    0.0363 O.3     1  GLU1       -0.4806
      7 OE2        -3.3403   -0.7581   -1.3124 O.2     1  GLU1       -0.2510
      8 C           1.8099   -0.3472   -0.6248 C.2     1  GLU1        0.3217
      9 O           2.9460    0.4620   -0.8138 O.3     1  GLU1       -0.4795
     10 OXT         1.6122   -1.0543   -1.6472 O.2     1  GLU1       -0.2493
     11 H1          1.0319    1.2386    2.1082 H       1  GLU1        0.1190
     12 H2          2.5733    0.4276    1.9448 H       1  GLU1        0.1190
     13 HA          1.0493   -1.2382    1.1511 H       1  GLU1        0.0574
     14 HB1        -0.3900    1.2655    0.0925 H       1  GLU1        0.0291
     15 HB2        -0.8905    0.2111    1.4138 H       1  GLU1        0.0291
     16 HG1        -0.7031   -0.7999   -1.4602 H       1  GLU1        0.0378
     17 HG2        -1.2615   -1.6835    0.0557 H       1  GLU1        0.0378
     18 HE1        -3.9352    1.2255    0.2114 H       1  GLU1        0.2951
     19 H           3.7321    0.1896   -1.3894 H       1  GLU1        0.2951
@<TRIPOS>BOND
     1     1     2    1
     2     2     3    1
     3     3     4    1
     4     4     5    1
     5     5     6    1
     6     5     7    2
     7     2     8    1
     8     8     9    1
     9     8    10    2
    10     1    11    1
    11     1    12    1
    12     2    13    1
    13     3    14    1
    14     3    15    1
    15     4    16    1
    16     4    17    1
    17     6    18    1
    18     9    19    1
