
     RDKit          3D

 19 18  0  0  0  0  0  0  0  0999 V2000
    1.6851    0.7060    1.5264 N   0  0  0  0  0  0  0  0  0  0  0  0
    1.0688   -0.2599    0.6447 C   0  0  1  0  0  0  0  0  0  0  0  0
   -0.3566    0.2136    0.4423 C   0  0  0  0  0  0  0  0  0  0  0  0
   -1.1477   -0.6973   -0.4662 C   0  0  0  0  0  0  0  0  0  0  0  0
   -2.5288   -0.1229   -0.5836 C   0  0  0  0  0  0  0  0  0  0  0  0
   -2.9548    1.0216    0.0363 O   0  0  0  0  0  0  0  0  0  0  0  0
   -3.3403   -0.7581   -1.3124 O   0  0  0  0  0  0  0  0  0  0  0  0
    1.8099   -0.3472   -0.6248 C   0  0  0  0  0  0  0  0  0  0  0  0
    2.9460    0.4620   -0.8138 O   0  0  0  0  0  0  0  0  0  0  0  0
    1.6122   -1.0543   -1.6472 O   0  0  0  0  0  0  0  0  0  0  0  0
    1.0319    1.2386    2.1082 H   0  0  0  0  0  0  0  0  0  0  0  0
    2.5733    0.4276    1.9448 H   0  0  0  0  0  0  0  0  0  0  0  0
    1.0493   -1.2382    1.1511 H   0  0  0  0  0  0  0  0  0  0  0  0
   -0.3900    1.2655    0.0925 H   0  0  0  0  0  0  0  0  0  0  0  0
   -0.8905    0.2111    1.4138 H   0  0  0  0  0  0  0  0  0  0  0  0
   -0.7031   -0.7999   -1.4602 H   0  0  0  0  0  0  0  0  0  0  0  0
   -1.2615   -1.6835    0.0557 H   0  0  0  0  0  0  0  0  0  0  0  0
   -3.9352    1.2255    0.2114 H   0  0  0  0  0  0  0  0  0  0  0  0
    3.7321    0.1896   -1.3894 H   0  0  0  0  0  0  0  0  0  0  0  0
  1  2  1  0
  2  3  1  0
  3  4  1  0
  4  5  1  0
  5  6  1  0
  5  7  2  0
  2  8  1  0
  8  9  1  0
  8 10  2  0
  1 11  1  0
  1 12  1  0
  2 13  1  1
  3 14  1  0
  3 15  1  0
  4 16  1  0
  4 17  1  0
  6 18  1  0
  9 19  1  0
M  END
$$$$
