@<TRIPOS>MOLECULE
*****
 65 66 0 0 0
SMALL
GASTEIGER

@<TRIPOS>ATOM
      1 O          -8.4137    2.2269    2.2080 O.3     1  UNL1       -0.3903
      2 C          -9.0035    1.1022    1.6014 C.3     1  UNL1        0.0727
      3 C          -7.9686    0.1616    1.1246 C.ar    1  UNL1        0.0195
      4 C          -8.2323   -1.0314    0.5029 C.ar    1  UNL1        0.1222
      5 O          -9.5610   -1.3914    0.3018 O.3     1  UNL1       -0.5064
      6 C          -7.1833   -1.8526    0.0882 C.ar    1  UNL1       -0.0195
      7 C          -5.8582   -1.5011    0.2851 C.ar    1  UNL1       -0.0526
      8 C          -5.5543   -0.2932    0.9152 C.ar    1  UNL1       -0.0174
      9 C          -6.6243    0.4880    1.3087 C.ar    1  UNL1       -0.0472
     10 C          -4.1603    0.1010    1.1383 C.3     1  UNL1        0.0926
     11 O          -3.3581   -0.8900    1.6397 O.3     1  UNL1       -0.3859
     12 C          -3.6275    0.7282   -0.1485 C.3     1  UNL1        0.0261
     13 N          -3.4721   -0.1640   -1.1964 N.3     1  UNL1       -0.3132
     14 C          -2.5831   -1.2099   -1.2820 C.3     1  UNL1       -0.0040
     15 C          -1.1347   -0.9175   -1.4551 C.3     1  UNL1       -0.0404
     16 C          -0.4546   -0.1683   -0.3870 C.3     1  UNL1       -0.0518
     17 C           1.0301   -0.0351   -0.7258 C.3     1  UNL1       -0.0509
     18 C           1.3102    0.6868   -1.9917 C.3     1  UNL1       -0.0295
     19 C           2.8346    0.7568   -2.1872 C.3     1  UNL1        0.0478
     20 O           3.3645    1.4364   -1.1117 O.3     1  UNL1       -0.3775
     21 C           4.7527    1.5776   -1.2072 C.3     1  UNL1        0.0710
     22 C           5.4986    0.2894   -1.2631 C.3     1  UNL1        0.0714
     23 O           5.3794   -0.5521   -0.2140 O.3     1  UNL1       -0.3728
     24 C           5.8748   -0.1853    1.0026 C.3     1  UNL1        0.0755
     25 C           7.3548    0.0122    1.0341 C.ar    1  UNL1        0.0147
     26 C           7.9333   -1.2616    0.9299 C.ar    1  UNL1        0.0477
     27 CL          7.1237   -2.8206    0.7768 Cl      1  UNL1       -0.0831
     28 C           9.3154   -1.4329    0.9383 C.ar    1  UNL1       -0.0430
     29 C          10.1744   -0.3490    1.0503 C.ar    1  UNL1       -0.0590
     30 C           9.5787    0.8896    1.1516 C.ar    1  UNL1       -0.0430
     31 C           8.2187    1.0697    1.1448 C.ar    1  UNL1        0.0477
     32 CL          7.3986    2.6009    1.3013 Cl      1  UNL1       -0.0831
     33 H          -9.0369    2.9906    2.2488 H       1  UNL1        0.2098
     34 H          -9.6235    1.4607    0.7334 H       1  UNL1        0.0608
     35 H          -9.6411    0.6313    2.3837 H       1  UNL1        0.0608
     36 H          -9.8878   -1.5727   -0.6589 H       1  UNL1        0.2921
     37 H          -7.4234   -2.7934   -0.4018 H       1  UNL1        0.0654
     38 H          -5.0767   -2.1524   -0.0441 H       1  UNL1        0.0622
     39 H          -6.3861    1.4245    1.7962 H       1  UNL1        0.0626
     40 H          -4.1519    0.9386    1.8888 H       1  UNL1        0.0656
     41 H          -3.8996   -1.6917    1.8656 H       1  UNL1        0.2103
     42 H          -2.8601    1.4655    0.0202 H       1  UNL1        0.0453
     43 H          -4.5335    1.3980   -0.4515 H       1  UNL1        0.0453
     44 H          -4.1414   -0.0335   -1.9915 H       1  UNL1        0.1220
     45 H          -2.9043   -1.8328   -2.2018 H       1  UNL1        0.0424
     46 H          -2.7276   -2.0060   -0.4724 H       1  UNL1        0.0424
     47 H          -0.5750   -1.9113   -1.5441 H       1  UNL1        0.0277
     48 H          -0.9361   -0.4612   -2.4740 H       1  UNL1        0.0277
     49 H          -0.5537   -0.7106    0.5550 H       1  UNL1        0.0266
     50 H          -0.7730    0.8742   -0.2116 H       1  UNL1        0.0266
     51 H           1.5141   -1.0341   -0.7723 H       1  UNL1        0.0266
     52 H           1.5095    0.5309    0.1052 H       1  UNL1        0.0266
     53 H           0.8822    0.1565   -2.8869 H       1  UNL1        0.0287
     54 H           0.8690    1.7077   -1.9809 H       1  UNL1        0.0287
     55 H           3.1750   -0.2786   -2.2928 H       1  UNL1        0.0560
     56 H           3.0351    1.2487   -3.1631 H       1  UNL1        0.0560
     57 H           5.0427    2.1278   -0.2959 H       1  UNL1        0.0583
     58 H           5.0395    2.2364   -2.0533 H       1  UNL1        0.0583
     59 H           5.3238   -0.2760   -2.2072 H       1  UNL1        0.0583
     60 H           6.5940    0.5776   -1.3378 H       1  UNL1        0.0583
     61 H           5.4030    0.7758    1.3381 H       1  UNL1        0.0611
     62 H           5.5511   -0.9436    1.7527 H       1  UNL1        0.0611
     63 H           9.8641   -2.3699    0.8640 H       1  UNL1        0.0632
     64 H          11.2539   -0.3652    1.0670 H       1  UNL1        0.0618
     65 H          10.1216    1.8172    1.2439 H       1  UNL1        0.0632
@<TRIPOS>BOND
     1     1     2    1
     2     2     3    1
     3     3     4   ar
     4     4     5    1
     5     4     6   ar
     6     6     7   ar
     7     7     8   ar
     8     8     9   ar
     9     8    10    1
    10    10    11    1
    11    10    12    1
    12    12    13    1
    13    13    14    1
    14    14    15    1
    15    15    16    1
    16    16    17    1
    17    17    18    1
    18    18    19    1
    19    19    20    1
    20    20    21    1
    21    21    22    1
    22    22    23    1
    23    23    24    1
    24    24    25    1
    25    25    26   ar
    26    26    27    1
    27    26    28   ar
    28    28    29   ar
    29    29    30   ar
    30    30    31   ar
    31    31    32    1
    32     9     3   ar
    33    31    25   ar
    34     1    33    1
    35     2    34    1
    36     2    35    1
    37     5    36    1
    38     6    37    1
    39     7    38    1
    40     9    39    1
    41    10    40    1
    42    11    41    1
    43    12    42    1
    44    12    43    1
    45    13    44    1
    46    14    45    1
    47    14    46    1
    48    15    47    1
    49    15    48    1
    50    16    49    1
    51    16    50    1
    52    17    51    1
    53    17    52    1
    54    18    53    1
    55    18    54    1
    56    19    55    1
    57    19    56    1
    58    21    57    1
    59    21    58    1
    60    22    59    1
    61    22    60    1
    62    24    61    1
    63    24    62    1
    64    28    63    1
    65    29    64    1
    66    30    65    1
