
     RDKit          3D

 65 66  0  0  0  0  0  0  0  0999 V2000
   -8.4137    2.2269    2.2080 O   0  0  0  0  0  0  0  0  0  0  0  0
   -9.0035    1.1022    1.6014 C   0  0  0  0  0  0  0  0  0  0  0  0
   -7.9686    0.1616    1.1246 C   0  0  0  0  0  0  0  0  0  0  0  0
   -8.2323   -1.0314    0.5029 C   0  0  0  0  0  0  0  0  0  0  0  0
   -9.5610   -1.3914    0.3018 O   0  0  0  0  0  0  0  0  0  0  0  0
   -7.1833   -1.8526    0.0882 C   0  0  0  0  0  0  0  0  0  0  0  0
   -5.8582   -1.5011    0.2851 C   0  0  0  0  0  0  0  0  0  0  0  0
   -5.5543   -0.2932    0.9152 C   0  0  0  0  0  0  0  0  0  0  0  0
   -6.6243    0.4880    1.3087 C   0  0  0  0  0  0  0  0  0  0  0  0
   -4.1603    0.1010    1.1383 C   0  0  1  0  0  0  0  0  0  0  0  0
   -3.3581   -0.8900    1.6397 O   0  0  0  0  0  0  0  0  0  0  0  0
   -3.6275    0.7282   -0.1485 C   0  0  0  0  0  0  0  0  0  0  0  0
   -3.4721   -0.1640   -1.1964 N   0  0  0  0  0  0  0  0  0  0  0  0
   -2.5831   -1.2099   -1.2820 C   0  0  0  0  0  0  0  0  0  0  0  0
   -1.1347   -0.9175   -1.4551 C   0  0  0  0  0  0  0  0  0  0  0  0
   -0.4546   -0.1683   -0.3870 C   0  0  0  0  0  0  0  0  0  0  0  0
    1.0301   -0.0351   -0.7258 C   0  0  0  0  0  0  0  0  0  0  0  0
    1.3102    0.6868   -1.9917 C   0  0  0  0  0  0  0  0  0  0  0  0
    2.8346    0.7568   -2.1872 C   0  0  0  0  0  0  0  0  0  0  0  0
    3.3645    1.4364   -1.1117 O   0  0  0  0  0  0  0  0  0  0  0  0
    4.7527    1.5776   -1.2072 C   0  0  0  0  0  0  0  0  0  0  0  0
    5.4986    0.2894   -1.2631 C   0  0  0  0  0  0  0  0  0  0  0  0
    5.3794   -0.5521   -0.2140 O   0  0  0  0  0  0  0  0  0  0  0  0
    5.8748   -0.1853    1.0026 C   0  0  0  0  0  0  0  0  0  0  0  0
    7.3548    0.0122    1.0341 C   0  0  0  0  0  0  0  0  0  0  0  0
    7.9333   -1.2616    0.9299 C   0  0  0  0  0  0  0  0  0  0  0  0
    7.1237   -2.8206    0.7768 Cl  0  0  0  0  0  0  0  0  0  0  0  0
    9.3154   -1.4329    0.9383 C   0  0  0  0  0  0  0  0  0  0  0  0
   10.1744   -0.3490    1.0503 C   0  0  0  0  0  0  0  0  0  0  0  0
    9.5787    0.8896    1.1516 C   0  0  0  0  0  0  0  0  0  0  0  0
    8.2187    1.0697    1.1448 C   0  0  0  0  0  0  0  0  0  0  0  0
    7.3986    2.6009    1.3013 Cl  0  0  0  0  0  0  0  0  0  0  0  0
   -9.0369    2.9906    2.2488 H   0  0  0  0  0  0  0  0  0  0  0  0
   -9.6235    1.4607    0.7334 H   0  0  0  0  0  0  0  0  0  0  0  0
   -9.6411    0.6313    2.3837 H   0  0  0  0  0  0  0  0  0  0  0  0
   -9.8878   -1.5727   -0.6589 H   0  0  0  0  0  0  0  0  0  0  0  0
   -7.4234   -2.7934   -0.4018 H   0  0  0  0  0  0  0  0  0  0  0  0
   -5.0767   -2.1524   -0.0441 H   0  0  0  0  0  0  0  0  0  0  0  0
   -6.3861    1.4245    1.7962 H   0  0  0  0  0  0  0  0  0  0  0  0
   -4.1519    0.9386    1.8888 H   0  0  0  0  0  0  0  0  0  0  0  0
   -3.8996   -1.6917    1.8656 H   0  0  0  0  0  0  0  0  0  0  0  0
   -2.8601    1.4655    0.0202 H   0  0  0  0  0  0  0  0  0  0  0  0
   -4.5335    1.3980   -0.4515 H   0  0  0  0  0  0  0  0  0  0  0  0
   -4.1414   -0.0335   -1.9915 H   0  0  0  0  0  0  0  0  0  0  0  0
   -2.9043   -1.8328   -2.2018 H   0  0  0  0  0  0  0  0  0  0  0  0
   -2.7276   -2.0060   -0.4724 H   0  0  0  0  0  0  0  0  0  0  0  0
   -0.5750   -1.9113   -1.5441 H   0  0  0  0  0  0  0  0  0  0  0  0
   -0.9361   -0.4612   -2.4740 H   0  0  0  0  0  0  0  0  0  0  0  0
   -0.5537   -0.7106    0.5550 H   0  0  0  0  0  0  0  0  0  0  0  0
   -0.7730    0.8742   -0.2116 H   0  0  0  0  0  0  0  0  0  0  0  0
    1.5141   -1.0341   -0.7723 H   0  0  0  0  0  0  0  0  0  0  0  0
    1.5095    0.5309    0.1052 H   0  0  0  0  0  0  0  0  0  0  0  0
    0.8822    0.1565   -2.8869 H   0  0  0  0  0  0  0  0  0  0  0  0
    0.8690    1.7077   -1.9809 H   0  0  0  0  0  0  0  0  0  0  0  0
    3.1750   -0.2786   -2.2928 H   0  0  0  0  0  0  0  0  0  0  0  0
    3.0351    1.2487   -3.1631 H   0  0  0  0  0  0  0  0  0  0  0  0
    5.0427    2.1278   -0.2959 H   0  0  0  0  0  0  0  0  0  0  0  0
    5.0395    2.2364   -2.0533 H   0  0  0  0  0  0  0  0  0  0  0  0
    5.3238   -0.2760   -2.2072 H   0  0  0  0  0  0  0  0  0  0  0  0
    6.5940    0.5776   -1.3378 H   0  0  0  0  0  0  0  0  0  0  0  0
    5.4030    0.7758    1.3381 H   0  0  0  0  0  0  0  0  0  0  0  0
    5.5511   -0.9436    1.7527 H   0  0  0  0  0  0  0  0  0  0  0  0
    9.8641   -2.3699    0.8640 H   0  0  0  0  0  0  0  0  0  0  0  0
   11.2539   -0.3652    1.0670 H   0  0  0  0  0  0  0  0  0  0  0  0
   10.1216    1.8172    1.2439 H   0  0  0  0  0  0  0  0  0  0  0  0
  1  2  1  0
  2  3  1  0
  3  4  2  0
  4  5  1  0
  4  6  1  0
  6  7  2  0
  7  8  1  0
  8  9  2  0
  8 10  1  0
 10 11  1  0
 10 12  1  0
 12 13  1  0
 13 14  1  0
 14 15  1  0
 15 16  1  0
 16 17  1  0
 17 18  1  0
 18 19  1  0
 19 20  1  0
 20 21  1  0
 21 22  1  0
 22 23  1  0
 23 24  1  0
 24 25  1  0
 25 26  2  0
 26 27  1  0
 26 28  1  0
 28 29  2  0
 29 30  1  0
 30 31  2  0
 31 32  1  0
  9  3  1  0
 31 25  1  0
  1 33  1  0
  2 34  1  0
  2 35  1  0
  5 36  1  0
  6 37  1  0
  7 38  1  0
  9 39  1  0
 10 40  1  1
 11 41  1  0
 12 42  1  0
 12 43  1  0
 13 44  1  0
 14 45  1  0
 14 46  1  0
 15 47  1  0
 15 48  1  0
 16 49  1  0
 16 50  1  0
 17 51  1  0
 17 52  1  0
 18 53  1  0
 18 54  1  0
 19 55  1  0
 19 56  1  0
 21 57  1  0
 21 58  1  0
 22 59  1  0
 22 60  1  0
 24 61  1  0
 24 62  1  0
 28 63  1  0
 29 64  1  0
 30 65  1  0
M  END
$$$$
