
     RDKit          3D

 93 98  0  0  0  0  0  0  0  0999 V2000
   13.6932   -0.7955    2.4191 C   0  0  0  0  0  0  0  0  0  0  0  0
   12.9376   -1.2011    1.3157 O   0  0  0  0  0  0  0  0  0  0  0  0
   12.6619   -2.5376    1.3236 C   0  0  0  0  0  0  0  0  0  0  0  0
   11.8658   -3.0516    0.1836 C   0  0  0  0  0  0  0  0  0  0  0  0
   10.5605   -2.4952    0.0028 N   0  0  0  0  0  0  0  0  0  0  0  0
   10.2471   -1.1468   -0.2589 C   0  0  0  0  0  0  0  0  0  0  0  0
   11.1904   -0.3299   -0.3482 O   0  0  0  0  0  0  0  0  0  0  0  0
    8.8690   -0.6908   -0.4279 C   0  0  0  0  0  0  0  0  0  0  0  0
    7.7670   -1.4893   -0.2503 C   0  0  0  0  0  0  0  0  0  0  0  0
    6.4656   -1.0204   -0.4496 C   0  0  0  0  0  0  0  0  0  0  0  0
    5.3778   -1.9110   -0.2525 N   0  0  0  0  0  0  0  0  0  0  0  0
    4.0766   -1.4827   -0.6241 C   0  0  0  0  0  0  0  0  0  0  0  0
    3.7402   -1.6575   -1.9412 N   0  0  0  0  0  0  0  0  0  0  0  0
    2.5462   -1.3077   -2.4313 C   0  0  0  0  0  0  0  0  0  0  0  0
    1.6277   -0.7515   -1.5687 C   0  0  0  0  0  0  0  0  0  0  0  0
    1.9666   -0.5776   -0.2476 C   0  0  0  0  0  0  0  0  0  0  0  0
    1.0116   -0.0017    0.6225 O   0  0  0  0  0  0  0  0  0  0  0  0
   -0.2696    0.2840    0.1306 C   0  0  0  0  0  0  0  0  0  0  0  0
   -0.6508    1.5989    0.0322 C   0  0  0  0  0  0  0  0  0  0  0  0
   -1.9029    1.8894   -0.4527 C   0  0  0  0  0  0  0  0  0  0  0  0
   -2.7797    0.8867   -0.8398 C   0  0  0  0  0  0  0  0  0  0  0  0
   -4.0377    1.2715   -1.3498 N   0  0  0  0  0  0  0  0  0  0  0  0
   -5.2213    1.4657   -0.5761 C   0  0  0  0  0  0  0  0  0  0  0  0
   -5.1186    1.2763    0.6451 O   0  0  0  0  0  0  0  0  0  0  0  0
   -6.4390    1.8514   -1.1705 N   0  0  0  0  0  0  0  0  0  0  0  0
   -7.6685    2.0253   -0.5237 C   0  0  0  0  0  0  0  0  0  0  0  0
   -8.6652    2.9411   -0.9734 C   0  0  0  0  0  0  0  0  0  0  0  0
   -9.7391    2.8150   -0.1316 C   0  0  0  0  0  0  0  0  0  0  0  0
  -11.0030    3.6074   -0.2634 C   0  0  0  0  0  0  0  0  0  0  0  0
  -10.7108    5.0901   -0.2021 C   0  0  0  0  0  0  0  0  0  0  0  0
  -11.6235    3.3326   -1.6356 C   0  0  0  0  0  0  0  0  0  0  0  0
   -9.4293    1.8853    0.7762 N   0  0  0  0  0  0  0  0  0  0  0  0
   -8.1812    1.4177    0.5288 N   0  0  0  0  0  0  0  0  0  0  0  0
   -7.6568    0.3945    1.3535 C   0  0  0  0  0  0  0  0  0  0  0  0
   -7.4350    0.6020    2.7040 C   0  0  0  0  0  0  0  0  0  0  0  0
   -6.9551   -0.3613    3.5579 C   0  0  0  0  0  0  0  0  0  0  0  0
   -6.6768   -1.6066    3.0475 C   0  0  0  0  0  0  0  0  0  0  0  0
   -6.1912   -2.6351    3.8331 O   0  0  0  0  0  0  0  0  0  0  0  0
   -5.9017   -3.9143    3.3275 C   0  0  0  0  0  0  0  0  0  0  0  0
   -6.8815   -1.8710    1.6937 C   0  0  0  0  0  0  0  0  0  0  0  0
   -7.3629   -0.8833    0.8686 C   0  0  0  0  0  0  0  0  0  0  0  0
   -2.4084   -0.4266   -0.7420 C   0  0  0  0  0  0  0  0  0  0  0  0
   -3.3316   -1.3702   -1.1222 C   0  0  0  0  0  0  0  0  0  0  0  0
   -2.9617   -2.6984   -1.0011 C   0  0  0  0  0  0  0  0  0  0  0  0
   -1.7074   -3.0178   -0.5133 C   0  0  0  0  0  0  0  0  0  0  0  0
   -0.8043   -2.0450   -0.1411 C   0  0  0  0  0  0  0  0  0  0  0  0
   -1.1516   -0.7218   -0.2553 C   0  0  0  0  0  0  0  0  0  0  0  0
    3.1734   -0.9414    0.2009 N   0  0  0  0  0  0  0  0  0  0  0  0
    6.2652    0.2839   -0.8360 C   0  0  0  0  0  0  0  0  0  0  0  0
    7.3780    1.1028   -1.0187 C   0  0  0  0  0  0  0  0  0  0  0  0
    7.2246    2.4254   -1.4087 O   0  0  0  0  0  0  0  0  0  0  0  0
    8.3473    3.2557   -1.5957 C   0  0  0  0  0  0  0  0  0  0  0  0
    8.6499    0.6282   -0.8196 C   0  0  0  0  0  0  0  0  0  0  0  0
   13.9010    0.2795    2.3894 H   0  0  0  0  0  0  0  0  0  0  0  0
   13.1458   -1.1169    3.3269 H   0  0  0  0  0  0  0  0  0  0  0  0
   14.6899   -1.3255    2.4540 H   0  0  0  0  0  0  0  0  0  0  0  0
   12.2346   -2.8590    2.3018 H   0  0  0  0  0  0  0  0  0  0  0  0
   13.6651   -3.0638    1.2730 H   0  0  0  0  0  0  0  0  0  0  0  0
   11.7715   -4.1662    0.3309 H   0  0  0  0  0  0  0  0  0  0  0  0
   12.4529   -2.8934   -0.7710 H   0  0  0  0  0  0  0  0  0  0  0  0
    9.7132   -3.1435    0.0654 H   0  0  0  0  0  0  0  0  0  0  0  0
    7.8575   -2.5183    0.0554 H   0  0  0  0  0  0  0  0  0  0  0  0
    5.5350   -2.8459    0.1515 H   0  0  0  0  0  0  0  0  0  0  0  0
    2.2520   -1.4326   -3.4632 H   0  0  0  0  0  0  0  0  0  0  0  0
    0.6534   -0.4546   -1.9739 H   0  0  0  0  0  0  0  0  0  0  0  0
    0.0292    2.4163    0.3338 H   0  0  0  0  0  0  0  0  0  0  0  0
   -2.2324    2.9345   -0.5414 H   0  0  0  0  0  0  0  0  0  0  0  0
   -4.1212    1.4316   -2.3834 H   0  0  0  0  0  0  0  0  0  0  0  0
   -6.4412    2.0035   -2.2388 H   0  0  0  0  0  0  0  0  0  0  0  0
   -8.5227    3.5833   -1.8310 H   0  0  0  0  0  0  0  0  0  0  0  0
  -11.7181    3.3716    0.5472 H   0  0  0  0  0  0  0  0  0  0  0  0
  -11.4103    5.6067   -0.8899 H   0  0  0  0  0  0  0  0  0  0  0  0
   -9.6910    5.2175   -0.6531 H   0  0  0  0  0  0  0  0  0  0  0  0
  -10.7671    5.5140    0.8069 H   0  0  0  0  0  0  0  0  0  0  0  0
  -10.9589    3.8483   -2.3893 H   0  0  0  0  0  0  0  0  0  0  0  0
  -12.5890    3.8632   -1.6639 H   0  0  0  0  0  0  0  0  0  0  0  0
  -11.6805    2.2506   -1.8252 H   0  0  0  0  0  0  0  0  0  0  0  0
   -7.6509    1.5828    3.1215 H   0  0  0  0  0  0  0  0  0  0  0  0
   -6.7897   -0.1661    4.6260 H   0  0  0  0  0  0  0  0  0  0  0  0
   -5.5154   -4.5974    4.0896 H   0  0  0  0  0  0  0  0  0  0  0  0
   -6.8244   -4.4187    2.9134 H   0  0  0  0  0  0  0  0  0  0  0  0
   -5.1974   -3.7973    2.4838 H   0  0  0  0  0  0  0  0  0  0  0  0
   -6.6537   -2.8726    1.3000 H   0  0  0  0  0  0  0  0  0  0  0  0
   -7.5329   -1.0625   -0.1995 H   0  0  0  0  0  0  0  0  0  0  0  0
   -4.3000   -1.0678   -1.4976 H   0  0  0  0  0  0  0  0  0  0  0  0
   -3.6382   -3.4789   -1.2815 H   0  0  0  0  0  0  0  0  0  0  0  0
   -1.3983   -4.0690   -0.4103 H   0  0  0  0  0  0  0  0  0  0  0  0
    0.1797   -2.3065    0.2584 H   0  0  0  0  0  0  0  0  0  0  0  0
    5.2722    0.6821   -0.9993 H   0  0  0  0  0  0  0  0  0  0  0  0
    8.8974    2.8882   -2.5119 H   0  0  0  0  0  0  0  0  0  0  0  0
    9.0447    3.2204   -0.7585 H   0  0  0  0  0  0  0  0  0  0  0  0
    8.0255    4.3115   -1.8350 H   0  0  0  0  0  0  0  0  0  0  0  0
    9.5357    1.2602   -0.9594 H   0  0  0  0  0  0  0  0  0  0  0  0
  1  2  1  0
  2  3  1  0
  3  4  1  0
  4  5  1  0
  5  6  1  0
  6  7  2  0
  6  8  1  0
  8  9  2  0
  9 10  1  0
 10 11  1  0
 11 12  1  0
 12 13  2  0
 13 14  1  0
 14 15  2  0
 15 16  1  0
 16 17  1  0
 17 18  1  0
 18 19  2  0
 19 20  1  0
 20 21  2  0
 21 22  1  0
 22 23  1  0
 23 24  2  0
 23 25  1  0
 25 26  1  0
 26 27  2  0
 27 28  1  0
 28 29  1  0
 29 30  1  0
 29 31  1  0
 28 32  2  0
 32 33  1  0
 33 34  1  0
 34 35  2  0
 35 36  1  0
 36 37  2  0
 37 38  1  0
 38 39  1  0
 37 40  1  0
 40 41  2  0
 21 42  1  0
 42 43  2  0
 43 44  1  0
 44 45  2  0
 45 46  1  0
 46 47  2  0
 16 48  2  0
 10 49  2  0
 49 50  1  0
 50 51  1  0
 51 52  1  0
 50 53  2  0
 53  8  1  0
 48 12  1  0
 47 18  1  0
 33 26  1  0
 41 34  1  0
 47 42  1  0
  1 54  1  0
  1 55  1  0
  1 56  1  0
  3 57  1  0
  3 58  1  0
  4 59  1  0
  4 60  1  0
  5 61  1  0
  9 62  1  0
 11 63  1  0
 14 64  1  0
 15 65  1  0
 19 66  1  0
 20 67  1  0
 22 68  1  0
 25 69  1  0
 27 70  1  0
 29 71  1  0
 30 72  1  0
 30 73  1  0
 30 74  1  0
 31 75  1  0
 31 76  1  0
 31 77  1  0
 35 78  1  0
 36 79  1  0
 39 80  1  0
 39 81  1  0
 39 82  1  0
 40 83  1  0
 41 84  1  0
 43 85  1  0
 44 86  1  0
 45 87  1  0
 46 88  1  0
 49 89  1  0
 52 90  1  0
 52 91  1  0
 52 92  1  0
 53 93  1  0
M  END
$$$$
