@<TRIPOS>MOLECULE
*****
 93 98 0 0 0
SMALL
GASTEIGER

@<TRIPOS>ATOM
      1 C          13.6932   -0.7955    2.4191 C.3     1  UNL1        0.0365
      2 O          12.9376   -1.2011    1.3157 O.3     1  UNL1       -0.3814
      3 C          12.6619   -2.5376    1.3236 C.3     1  UNL1        0.0628
      4 C          11.8658   -3.0516    0.1836 C.3     1  UNL1        0.0353
      5 N          10.5605   -2.4952    0.0028 N.am    1  UNL1       -0.3092
      6 C          10.2471   -1.1468   -0.2589 C.2     1  UNL1        0.2443
      7 O          11.1904   -0.3299   -0.3482 O.2     1  UNL1       -0.2702
      8 C           8.8690   -0.6908   -0.4279 C.ar    1  UNL1        0.0419
      9 C           7.7670   -1.4893   -0.2503 C.ar    1  UNL1       -0.0281
     10 C           6.4656   -1.0204   -0.4496 C.ar    1  UNL1        0.0378
     11 N           5.3778   -1.9110   -0.2525 N.pl3   1  UNL1       -0.2834
     12 C           4.0766   -1.4827   -0.6241 C.ar    1  UNL1        0.2226
     13 N           3.7402   -1.6575   -1.9412 N.ar    1  UNL1       -0.2225
     14 C           2.5462   -1.3077   -2.4313 C.ar    1  UNL1        0.0362
     15 C           1.6277   -0.7515   -1.5687 C.ar    1  UNL1        0.0186
     16 C           1.9666   -0.5776   -0.2476 C.ar    1  UNL1        0.2249
     17 O           1.0116   -0.0017    0.6225 O.3     1  UNL1       -0.4373
     18 C          -0.2696    0.2840    0.1306 C.ar    1  UNL1        0.1381
     19 C          -0.6508    1.5989    0.0322 C.ar    1  UNL1       -0.0169
     20 C          -1.9029    1.8894   -0.4527 C.ar    1  UNL1       -0.0363
     21 C          -2.7797    0.8867   -0.8398 C.ar    1  UNL1        0.0427
     22 N          -4.0377    1.2715   -1.3498 N.am    1  UNL1       -0.2686
     23 C          -5.2213    1.4657   -0.5761 C.2     1  UNL1        0.3092
     24 O          -5.1186    1.2763    0.6451 O.2     1  UNL1       -0.2521
     25 N          -6.4390    1.8514   -1.1705 N.am    1  UNL1       -0.2538
     26 C          -7.6685    2.0253   -0.5237 C.ar    1  UNL1        0.1299
     27 C          -8.6652    2.9411   -0.9734 C.ar    1  UNL1        0.0018
     28 C          -9.7391    2.8150   -0.1316 C.ar    1  UNL1        0.0679
     29 C         -11.0030    3.6074   -0.2634 C.3     1  UNL1       -0.0025
     30 C         -10.7108    5.0901   -0.2021 C.3     1  UNL1       -0.0572
     31 C         -11.6235    3.3326   -1.6356 C.3     1  UNL1       -0.0572
     32 N          -9.4293    1.8853    0.7762 N.ar    1  UNL1       -0.1694
     33 N          -8.1812    1.4177    0.5288 N.ar    1  UNL1       -0.2181
     34 C          -7.6568    0.3945    1.3535 C.ar    1  UNL1        0.0677
     35 C          -7.4350    0.6020    2.7040 C.ar    1  UNL1       -0.0327
     36 C          -6.9551   -0.3613    3.5579 C.ar    1  UNL1       -0.0179
     37 C          -6.6768   -1.6066    3.0475 C.ar    1  UNL1        0.1202
     38 O          -6.1912   -2.6351    3.8331 O.3     1  UNL1       -0.4951
     39 C          -5.9017   -3.9143    3.3275 C.3     1  UNL1        0.0788
     40 C          -6.8815   -1.8710    1.6937 C.ar    1  UNL1       -0.0179
     41 C          -7.3629   -0.8833    0.8686 C.ar    1  UNL1       -0.0327
     42 C          -2.4084   -0.4266   -0.7420 C.ar    1  UNL1        0.0069
     43 C          -3.3316   -1.3702   -1.1222 C.ar    1  UNL1       -0.0521
     44 C          -2.9617   -2.6984   -1.0011 C.ar    1  UNL1       -0.0611
     45 C          -1.7074   -3.0178   -0.5133 C.ar    1  UNL1       -0.0611
     46 C          -0.8043   -2.0450   -0.1411 C.ar    1  UNL1       -0.0505
     47 C          -1.1516   -0.7218   -0.2553 C.ar    1  UNL1        0.0262
     48 N           3.1734   -0.9414    0.2009 N.ar    1  UNL1       -0.1789
     49 C           6.2652    0.2839   -0.8360 C.ar    1  UNL1        0.0013
     50 C           7.3780    1.1028   -1.0187 C.ar    1  UNL1        0.1226
     51 O           7.2246    2.4254   -1.4087 O.3     1  UNL1       -0.4950
     52 C           8.3473    3.2557   -1.5957 C.3     1  UNL1        0.0788
     53 C           8.6499    0.6282   -0.8196 C.ar    1  UNL1       -0.0077
     54 H          13.9010    0.2795    2.3894 H       1  UNL1        0.0523
     55 H          13.1458   -1.1169    3.3269 H       1  UNL1        0.0523
     56 H          14.6899   -1.3255    2.4540 H       1  UNL1        0.0523
     57 H          12.2346   -2.8590    2.3018 H       1  UNL1        0.0575
     58 H          13.6651   -3.0638    1.2730 H       1  UNL1        0.0575
     59 H          11.7715   -4.1662    0.3309 H       1  UNL1        0.0485
     60 H          12.4529   -2.8934   -0.7710 H       1  UNL1        0.0485
     61 H           9.7132   -3.1435    0.0654 H       1  UNL1        0.1491
     62 H           7.8575   -2.5183    0.0554 H       1  UNL1        0.0644
     63 H           5.5350   -2.8459    0.1515 H       1  UNL1        0.1550
     64 H           2.2520   -1.4326   -3.4632 H       1  UNL1        0.0832
     65 H           0.6534   -0.4546   -1.9739 H       1  UNL1        0.0686
     66 H           0.0292    2.4163    0.3338 H       1  UNL1        0.0655
     67 H          -2.2324    2.9345   -0.5414 H       1  UNL1        0.0637
     68 H          -4.1212    1.4316   -2.3834 H       1  UNL1        0.1564
     69 H          -6.4412    2.0035   -2.2388 H       1  UNL1        0.1578
     70 H          -8.5227    3.5833   -1.8310 H       1  UNL1        0.0671
     71 H         -11.7181    3.3716    0.5472 H       1  UNL1        0.0359
     72 H         -11.4103    5.6067   -0.8899 H       1  UNL1        0.0236
     73 H          -9.6910    5.2175   -0.6531 H       1  UNL1        0.0236
     74 H         -10.7671    5.5140    0.8069 H       1  UNL1        0.0236
     75 H         -10.9589    3.8483   -2.3893 H       1  UNL1        0.0236
     76 H         -12.5890    3.8632   -1.6639 H       1  UNL1        0.0236
     77 H         -11.6805    2.2506   -1.8252 H       1  UNL1        0.0236
     78 H          -7.6509    1.5828    3.1215 H       1  UNL1        0.0640
     79 H          -6.7897   -0.1661    4.6260 H       1  UNL1        0.0655
     80 H          -5.5154   -4.5974    4.0896 H       1  UNL1        0.0660
     81 H          -6.8244   -4.4187    2.9134 H       1  UNL1        0.0660
     82 H          -5.1974   -3.7973    2.4838 H       1  UNL1        0.0660
     83 H          -6.6537   -2.8726    1.3000 H       1  UNL1        0.0655
     84 H          -7.5329   -1.0625   -0.1995 H       1  UNL1        0.0640
     85 H          -4.3000   -1.0678   -1.4976 H       1  UNL1        0.0624
     86 H          -3.6382   -3.4789   -1.2815 H       1  UNL1        0.0618
     87 H          -1.3983   -4.0690   -0.4103 H       1  UNL1        0.0618
     88 H           0.1797   -2.3065    0.2584 H       1  UNL1        0.0625
     89 H           5.2722    0.6821   -0.9993 H       1  UNL1        0.0673
     90 H           8.8974    2.8882   -2.5119 H       1  UNL1        0.0660
     91 H           9.0447    3.2204   -0.7585 H       1  UNL1        0.0660
     92 H           8.0255    4.3115   -1.8350 H       1  UNL1        0.0660
     93 H           9.5357    1.2602   -0.9594 H       1  UNL1        0.0662
@<TRIPOS>BOND
     1     1     2    1
     2     2     3    1
     3     3     4    1
     4     4     5    1
     5     5     6   am
     6     6     7    2
     7     6     8    1
     8     8     9   ar
     9     9    10   ar
    10    10    11    1
    11    11    12    1
    12    12    13   ar
    13    13    14   ar
    14    14    15   ar
    15    15    16   ar
    16    16    17    1
    17    17    18    1
    18    18    19   ar
    19    19    20   ar
    20    20    21   ar
    21    21    22    1
    22    22    23   am
    23    23    24    2
    24    23    25   am
    25    25    26    1
    26    26    27   ar
    27    27    28   ar
    28    28    29    1
    29    29    30    1
    30    29    31    1
    31    28    32   ar
    32    32    33   ar
    33    33    34    1
    34    34    35   ar
    35    35    36   ar
    36    36    37   ar
    37    37    38    1
    38    38    39    1
    39    37    40   ar
    40    40    41   ar
    41    21    42   ar
    42    42    43   ar
    43    43    44   ar
    44    44    45   ar
    45    45    46   ar
    46    46    47   ar
    47    16    48   ar
    48    10    49   ar
    49    49    50   ar
    50    50    51    1
    51    51    52    1
    52    50    53   ar
    53    53     8   ar
    54    48    12   ar
    55    47    18   ar
    56    33    26   ar
    57    41    34   ar
    58    47    42   ar
    59     1    54    1
    60     1    55    1
    61     1    56    1
    62     3    57    1
    63     3    58    1
    64     4    59    1
    65     4    60    1
    66     5    61    1
    67     9    62    1
    68    11    63    1
    69    14    64    1
    70    15    65    1
    71    19    66    1
    72    20    67    1
    73    22    68    1
    74    25    69    1
    75    27    70    1
    76    29    71    1
    77    30    72    1
    78    30    73    1
    79    30    74    1
    80    31    75    1
    81    31    76    1
    82    31    77    1
    83    35    78    1
    84    36    79    1
    85    39    80    1
    86    39    81    1
    87    39    82    1
    88    40    83    1
    89    41    84    1
    90    43    85    1
    91    44    86    1
    92    45    87    1
    93    46    88    1
    94    49    89    1
    95    52    90    1
    96    52    91    1
    97    52    92    1
    98    53    93    1
