@<TRIPOS>MOLECULE
*****
 42 44 0 0 0
SMALL
GASTEIGER

@<TRIPOS>ATOM
      1 CL          2.0816   -3.5462    0.5189 Cl      1  UNL1       -0.0816
      2 C           0.4043   -3.0893    0.6662 C.ar    1  UNL1        0.0638
      3 C          -0.0793   -1.8147    0.5353 C.ar    1  UNL1        0.0698
      4 N           0.7640   -0.7278    0.2298 N.pl3   1  UNL1       -0.3249
      5 C           2.1701   -0.9329   -0.0307 C.3     1  UNL1        0.0251
      6 C           2.8780    0.3206   -0.5720 C.3     1  UNL1        0.0156
      7 N           2.7090    1.4406    0.2829 N.3     1  UNL1       -0.2886
      8 C           3.8681    1.9549    0.9032 C.3     1  UNL1        0.0607
      9 C           4.7372    2.5588   -0.1098 C.1     1  UNL1       -0.0900
     10 C           5.4777    3.0664   -0.9443 C.1     1  UNL1       -0.1179
     11 C           1.5268    1.3672    1.0891 C.3     1  UNL1        0.0156
     12 C           0.5275    0.6850    0.1283 C.3     1  UNL1        0.0251
     13 C          -1.4342   -1.7050    0.7068 C.ar    1  UNL1        0.0564
     14 N          -2.1785   -0.5122    0.5976 N.am    1  UNL1       -0.2774
     15 C          -2.6421   -0.3858   -0.7643 C.2     1  UNL1        0.2836
     16 O          -2.3765   -1.2477   -1.6407 O.2     1  UNL1       -0.2665
     17 C          -3.4553    0.7867   -1.1579 C.ar    1  UNL1        0.1910
     18 C          -3.9332    0.9745   -2.4376 C.ar    1  UNL1       -0.0101
     19 C          -4.6210    2.1663   -2.3522 C.ar    1  UNL1       -0.0086
     20 C          -4.5345    2.6469   -1.0434 C.ar    1  UNL1        0.1708
     21 BR         -5.2168    4.2043   -0.1732 Br      1  UNL1       -0.0085
     22 O          -3.8231    1.7750   -0.3774 O.2     1  UNL1       -0.4436
     23 C          -2.2751   -2.7601    0.9887 C.ar    1  UNL1       -0.0386
     24 C          -1.7586   -4.0542    1.1182 C.ar    1  UNL1       -0.0585
     25 C          -0.3796   -4.1599    0.9421 C.ar    1  UNL1       -0.0415
     26 H           2.7546   -1.2129    0.8366 H       1  UNL1        0.0476
     27 H           2.2436   -1.6064   -0.9251 H       1  UNL1        0.0476
     28 H           3.9447    0.0485   -0.6352 H       1  UNL1        0.0442
     29 H           2.5573    0.5681   -1.5941 H       1  UNL1        0.0442
     30 H           4.4762    1.2242    1.4576 H       1  UNL1        0.0563
     31 H           3.5678    2.7659    1.6007 H       1  UNL1        0.0563
     32 H           6.1125    3.5198   -1.6630 H       1  UNL1        0.1228
     33 H           1.7490    0.7184    1.9592 H       1  UNL1        0.0442
     34 H           1.1208    2.3120    1.4436 H       1  UNL1        0.0442
     35 H           0.7478    1.0626   -0.9035 H       1  UNL1        0.0476
     36 H          -0.4839    1.0393    0.3353 H       1  UNL1        0.0476
     37 H          -2.4172    0.2171    1.3366 H       1  UNL1        0.1553
     38 H          -3.8409    0.3881   -3.3409 H       1  UNL1        0.0657
     39 H          -5.1709    2.7357   -3.0855 H       1  UNL1        0.0661
     40 H          -3.3536   -2.6989    1.1296 H       1  UNL1        0.0637
     41 H          -2.4020   -4.8965    1.3392 H       1  UNL1        0.0619
     42 H          -0.0422   -5.1967    1.0562 H       1  UNL1        0.0633
@<TRIPOS>BOND
     1     1     2    1
     2     2     3   ar
     3     3     4    1
     4     4     5    1
     5     5     6    1
     6     6     7    1
     7     7     8    1
     8     8     9    1
     9     9    10    3
    10     7    11    1
    11    11    12    1
    12     3    13   ar
    13    13    14    1
    14    14    15   am
    15    15    16    2
    16    15    17    1
    17    17    18   ar
    18    18    19   ar
    19    19    20   ar
    20    20    21    1
    21    20    22   ar
    22    13    23   ar
    23    23    24   ar
    24    24    25   ar
    25    25     2   ar
    26    12     4    1
    27    22    17   ar
    28     5    26    1
    29     5    27    1
    30     6    28    1
    31     6    29    1
    32     8    30    1
    33     8    31    1
    34    10    32    1
    35    11    33    1
    36    11    34    1
    37    12    35    1
    38    12    36    1
    39    14    37    1
    40    18    38    1
    41    19    39    1
    42    23    40    1
    43    24    41    1
    44    25    42    1
