@<TRIPOS>MOLECULE
*****
 45 49 0 0 0
SMALL
GASTEIGER

@<TRIPOS>ATOM
      1 C          -1.9257   -2.0345   -0.0356 C.3     1  UNL1       -0.0443
      2 C          -2.5790   -1.0555   -0.9557 C.3     1  UNL1        0.0455
      3 C          -2.5657   -1.6060   -2.3877 C.3     1  UNL1        0.0660
      4 O          -3.1700   -0.7468   -3.2728 O.3     1  UNL1       -0.3764
      5 C          -3.5104    0.4787   -2.7541 C.3     1  UNL1        0.0634
      6 C          -2.3244    1.1516   -2.0508 C.3     1  UNL1        0.0374
      7 N          -1.9010    0.2237   -1.0203 N.pl3   1  UNL1       -0.3063
      8 C          -0.8573    0.6225   -0.1451 C.ar    1  UNL1        0.1500
      9 N           0.3014   -0.0781   -0.0699 N.ar    1  UNL1       -0.2281
     10 C           1.3002    0.2760    0.7454 C.ar    1  UNL1        0.0958
     11 C           2.5571   -0.4427    0.8589 C.ar    1  UNL1        0.1207
     12 N           3.5298   -0.0192    1.7155 N.ar    1  UNL1       -0.1470
     13 N           4.6853   -0.6375    1.8530 N.ar    1  UNL1       -0.1550
     14 C           5.0044   -1.7427    1.1576 C.ar    1  UNL1        0.0738
     15 C           4.0314   -2.2078    0.2682 C.ar    1  UNL1        0.0687
     16 N           3.9962   -3.2548   -0.5727 N.ar    1  UNL1       -0.3594
     17 C           2.8446   -3.3063   -1.2339 C.ar    1  UNL1        0.0028
     18 C           2.0562   -2.2501   -0.8298 C.ar    1  UNL1       -0.0344
     19 C           2.8057   -1.5661    0.1112 C.ar    1  UNL1        0.0304
     20 C           1.0994    1.4108    1.5264 C.ar    1  UNL1       -0.0083
     21 C          -0.0645    2.1488    1.4777 C.ar    1  UNL1        0.0739
     22 C          -1.0782    1.7496    0.6189 C.ar    1  UNL1        0.1287
     23 N          -2.0711    2.6349    0.7778 N.ar    1  UNL1       -0.2323
     24 C          -1.6828    3.5515    1.7050 C.ar    1  UNL1        0.0969
     25 N          -0.4531    3.2622    2.1407 N.ar    1  UNL1       -0.3331
     26 C           0.3334    3.9789    3.1258 C.3     1  UNL1        0.0133
     27 H          -1.1723   -2.6718   -0.5519 H       1  UNL1        0.0248
     28 H          -2.7163   -2.6767    0.4499 H       1  UNL1        0.0248
     29 H          -1.4099   -1.4955    0.7811 H       1  UNL1        0.0248
     30 H          -3.6400   -0.9316   -0.6374 H       1  UNL1        0.0520
     31 H          -3.0117   -2.6036   -2.3346 H       1  UNL1        0.0578
     32 H          -1.4711   -1.7326   -2.6346 H       1  UNL1        0.0578
     33 H          -3.8096    1.1463   -3.5676 H       1  UNL1        0.0575
     34 H          -4.3508    0.4482   -2.0291 H       1  UNL1        0.0575
     35 H          -1.4982    1.3043   -2.7760 H       1  UNL1        0.0487
     36 H          -2.6859    2.0701   -1.5806 H       1  UNL1        0.0487
     37 H           5.9356   -2.2657    1.2491 H       1  UNL1        0.0869
     38 H           4.7945   -3.9207   -0.6651 H       1  UNL1        0.1654
     39 H           2.5156   -4.0393   -1.9866 H       1  UNL1        0.0807
     40 H           1.0444   -2.0059   -1.1836 H       1  UNL1        0.0639
     41 H           1.8674    1.7642    2.2168 H       1  UNL1        0.0661
     42 H          -2.3214    4.3706    2.0028 H       1  UNL1        0.1029
     43 H           0.1561    5.0786    2.9495 H       1  UNL1        0.0456
     44 H           1.4195    3.8285    2.9895 H       1  UNL1        0.0456
     45 H          -0.0084    3.7914    4.1638 H       1  UNL1        0.0456
@<TRIPOS>BOND
     1     1     2    1
     2     2     3    1
     3     3     4    1
     4     4     5    1
     5     5     6    1
     6     6     7    1
     7     7     8    1
     8     8     9   ar
     9     9    10   ar
    10    10    11    1
    11    11    12   ar
    12    12    13   ar
    13    13    14   ar
    14    14    15   ar
    15    15    16   ar
    16    16    17   ar
    17    17    18   ar
    18    18    19   ar
    19    10    20   ar
    20    20    21   ar
    21    21    22   ar
    22    22    23   ar
    23    23    24   ar
    24    24    25   ar
    25    25    26    1
    26     7     2    1
    27    22     8   ar
    28    19    11   ar
    29    25    21   ar
    30    19    15   ar
    31     1    27    1
    32     1    28    1
    33     1    29    1
    34     2    30    1
    35     3    31    1
    36     3    32    1
    37     5    33    1
    38     5    34    1
    39     6    35    1
    40     6    36    1
    41    14    37    1
    42    16    38    1
    43    17    39    1
    44    18    40    1
    45    20    41    1
    46    24    42    1
    47    26    43    1
    48    26    44    1
    49    26    45    1
