
     RDKit          3D

 45 49  0  0  0  0  0  0  0  0999 V2000
   -1.9257   -2.0345   -0.0356 C   0  0  0  0  0  0  0  0  0  0  0  0
   -2.5790   -1.0555   -0.9557 C   0  0  2  0  0  0  0  0  0  0  0  0
   -2.5657   -1.6060   -2.3877 C   0  0  0  0  0  0  0  0  0  0  0  0
   -3.1700   -0.7468   -3.2728 O   0  0  0  0  0  0  0  0  0  0  0  0
   -3.5104    0.4787   -2.7541 C   0  0  0  0  0  0  0  0  0  0  0  0
   -2.3244    1.1516   -2.0508 C   0  0  0  0  0  0  0  0  0  0  0  0
   -1.9010    0.2237   -1.0203 N   0  0  0  0  0  0  0  0  0  0  0  0
   -0.8573    0.6225   -0.1451 C   0  0  0  0  0  0  0  0  0  0  0  0
    0.3014   -0.0781   -0.0699 N   0  0  0  0  0  0  0  0  0  0  0  0
    1.3002    0.2760    0.7454 C   0  0  0  0  0  0  0  0  0  0  0  0
    2.5571   -0.4427    0.8589 C   0  0  0  0  0  0  0  0  0  0  0  0
    3.5298   -0.0192    1.7155 N   0  0  0  0  0  0  0  0  0  0  0  0
    4.6853   -0.6375    1.8530 N   0  0  0  0  0  0  0  0  0  0  0  0
    5.0044   -1.7427    1.1576 C   0  0  0  0  0  0  0  0  0  0  0  0
    4.0314   -2.2078    0.2682 C   0  0  0  0  0  0  0  0  0  0  0  0
    3.9962   -3.2548   -0.5727 N   0  0  0  0  0  0  0  0  0  0  0  0
    2.8446   -3.3063   -1.2339 C   0  0  0  0  0  0  0  0  0  0  0  0
    2.0562   -2.2501   -0.8298 C   0  0  0  0  0  0  0  0  0  0  0  0
    2.8057   -1.5661    0.1112 C   0  0  0  0  0  0  0  0  0  0  0  0
    1.0994    1.4108    1.5264 C   0  0  0  0  0  0  0  0  0  0  0  0
   -0.0645    2.1488    1.4777 C   0  0  0  0  0  0  0  0  0  0  0  0
   -1.0782    1.7496    0.6189 C   0  0  0  0  0  0  0  0  0  0  0  0
   -2.0711    2.6349    0.7778 N   0  0  0  0  0  0  0  0  0  0  0  0
   -1.6828    3.5515    1.7050 C   0  0  0  0  0  0  0  0  0  0  0  0
   -0.4531    3.2622    2.1407 N   0  0  0  0  0  0  0  0  0  0  0  0
    0.3334    3.9789    3.1258 C   0  0  0  0  0  0  0  0  0  0  0  0
   -1.1723   -2.6718   -0.5519 H   0  0  0  0  0  0  0  0  0  0  0  0
   -2.7163   -2.6767    0.4499 H   0  0  0  0  0  0  0  0  0  0  0  0
   -1.4099   -1.4955    0.7811 H   0  0  0  0  0  0  0  0  0  0  0  0
   -3.6400   -0.9316   -0.6374 H   0  0  0  0  0  0  0  0  0  0  0  0
   -3.0117   -2.6036   -2.3346 H   0  0  0  0  0  0  0  0  0  0  0  0
   -1.4711   -1.7326   -2.6346 H   0  0  0  0  0  0  0  0  0  0  0  0
   -3.8096    1.1463   -3.5676 H   0  0  0  0  0  0  0  0  0  0  0  0
   -4.3508    0.4482   -2.0291 H   0  0  0  0  0  0  0  0  0  0  0  0
   -1.4982    1.3043   -2.7760 H   0  0  0  0  0  0  0  0  0  0  0  0
   -2.6859    2.0701   -1.5806 H   0  0  0  0  0  0  0  0  0  0  0  0
    5.9356   -2.2657    1.2491 H   0  0  0  0  0  0  0  0  0  0  0  0
    4.7945   -3.9207   -0.6651 H   0  0  0  0  0  0  0  0  0  0  0  0
    2.5156   -4.0393   -1.9866 H   0  0  0  0  0  0  0  0  0  0  0  0
    1.0444   -2.0059   -1.1836 H   0  0  0  0  0  0  0  0  0  0  0  0
    1.8674    1.7642    2.2168 H   0  0  0  0  0  0  0  0  0  0  0  0
   -2.3214    4.3706    2.0028 H   0  0  0  0  0  0  0  0  0  0  0  0
    0.1561    5.0786    2.9495 H   0  0  0  0  0  0  0  0  0  0  0  0
    1.4195    3.8285    2.9895 H   0  0  0  0  0  0  0  0  0  0  0  0
   -0.0084    3.7914    4.1638 H   0  0  0  0  0  0  0  0  0  0  0  0
  1  2  1  0
  2  3  1  0
  3  4  1  0
  4  5  1  0
  5  6  1  0
  6  7  1  0
  7  8  1  0
  8  9  2  0
  9 10  1  0
 10 11  1  0
 11 12  2  0
 12 13  1  0
 13 14  2  0
 14 15  1  0
 15 16  1  0
 16 17  1  0
 17 18  2  0
 18 19  1  0
 10 20  2  0
 20 21  1  0
 21 22  2  0
 22 23  1  0
 23 24  2  0
 24 25  1  0
 25 26  1  0
  7  2  1  0
 22  8  1  0
 19 11  1  0
 25 21  1  0
 19 15  2  0
  1 27  1  0
  1 28  1  0
  1 29  1  0
  2 30  1  1
  3 31  1  0
  3 32  1  0
  5 33  1  0
  5 34  1  0
  6 35  1  0
  6 36  1  0
 14 37  1  0
 16 38  1  0
 17 39  1  0
 18 40  1  0
 20 41  1  0
 24 42  1  0
 26 43  1  0
 26 44  1  0
 26 45  1  0
M  END
$$$$
