
     RDKit          3D

 89 90  0  0  0  0  0  0  0  0999 V2000
    9.0405   -0.6262   -2.4076 C   0  0  0  0  0  0  0  0  0  0  0  0
   10.0478   -0.8430   -1.3572 C   0  0  0  0  0  0  0  0  0  0  0  0
    9.7045   -1.5582   -0.1174 C   0  0  0  0  0  0  0  0  0  0  0  0
    8.7618   -1.1131    0.8823 C   0  0  0  0  0  0  0  0  0  0  0  0
    7.3329   -0.9189    0.7942 C   0  0  0  0  0  0  0  0  0  0  0  0
    6.7307    0.0539   -0.1277 C   0  0  0  0  0  0  0  0  0  0  0  0
    5.1896    0.1474    0.1396 C   0  0  0  0  0  0  0  0  0  0  0  0
    4.5249   -1.1406   -0.1100 C   0  0  0  0  0  0  0  0  0  0  0  0
    3.0635   -1.1368    0.0653 C   0  0  0  0  0  0  0  0  0  0  0  0
    2.4372   -0.9239    1.3625 C   0  0  0  0  0  0  0  0  0  0  0  0
    2.6229    0.2965    2.1630 C   0  0  0  0  0  0  0  0  0  0  0  0
    2.2795    1.5894    1.5554 C   0  0  0  0  0  0  0  0  0  0  0  0
    0.9073    1.8465    1.0651 C   0  0  0  0  0  0  0  0  0  0  0  0
   -0.1930    1.8497    2.0235 C   0  0  0  0  0  0  0  0  0  0  0  0
   -0.2328    0.9772    3.3806 S   0  0  0  0  0  0  0  0  0  0  0  0
   -1.3472    2.6809    1.7550 N   0  0  0  0  0  0  0  0  0  0  0  0
   -1.4917    3.4939    0.6179 C   0  0  0  0  0  0  0  0  0  0  0  0
   -1.7035    2.8492   -0.7011 C   0  0  0  0  0  0  0  0  0  0  0  0
   -2.9445    2.0207   -0.7823 C   0  0  0  0  0  0  0  0  0  0  0  0
   -3.0294    0.8458    0.1284 C   0  0  0  0  0  0  0  0  0  0  0  0
   -4.3788    0.1911   -0.1520 C   0  0  0  0  0  0  0  0  0  0  0  0
   -4.5161   -0.2429   -1.5179 N   0  0  0  0  0  0  0  0  0  0  0  0
   -5.5328    0.2726   -2.3557 C   0  0  0  0  0  0  0  0  0  0  0  0
   -6.2997    1.1242   -1.8415 O   0  0  0  0  0  0  0  0  0  0  0  0
   -5.7264   -0.0977   -3.6732 O   0  0  0  0  0  0  0  0  0  0  0  0
   -6.7485    0.4509   -4.4457 C   0  0  0  0  0  0  0  0  0  0  0  0
   -6.5462    1.5484   -5.2448 C   0  0  0  0  0  0  0  0  0  0  0  0
   -7.5654    2.0969   -6.0152 C   0  0  0  0  0  0  0  0  0  0  0  0
   -8.8294    1.5418   -5.9959 C   0  0  0  0  0  0  0  0  0  0  0  0
   -9.0298    0.4293   -5.1846 C   0  0  0  0  0  0  0  0  0  0  0  0
   -8.0102   -0.1157   -4.4170 C   0  0  0  0  0  0  0  0  0  0  0  0
   -4.6475   -0.9658    0.7584 C   0  0  0  0  0  0  0  0  0  0  0  0
   -4.9567   -2.0977    0.2528 O   0  0  0  0  0  0  0  0  0  0  0  0
   -4.5721   -0.8450    2.1438 N   0  0  0  0  0  0  0  0  0  0  0  0
   -4.8053   -1.8489    3.1130 C   0  0  0  0  0  0  0  0  0  0  0  0
   -5.1699   -3.1423    2.8746 C   0  0  0  0  0  0  0  0  0  0  0  0
   -5.3783   -4.0603    3.8888 C   0  0  0  0  0  0  0  0  0  0  0  0
   -5.2243   -3.7052    5.2204 C   0  0  0  0  0  0  0  0  0  0  0  0
   -4.8562   -2.4002    5.4712 C   0  0  0  0  0  0  0  0  0  0  0  0
   -4.6525   -1.4990    4.4517 C   0  0  0  0  0  0  0  0  0  0  0  0
    8.5583    0.3708   -2.3498 H   0  0  0  0  0  0  0  0  0  0  0  0
    8.3003   -1.4459   -2.4570 H   0  0  0  0  0  0  0  0  0  0  0  0
    9.5386   -0.6429   -3.4406 H   0  0  0  0  0  0  0  0  0  0  0  0
   11.0128   -1.2947   -1.7991 H   0  0  0  0  0  0  0  0  0  0  0  0
   10.4465    0.2001   -1.0653 H   0  0  0  0  0  0  0  0  0  0  0  0
    9.4690   -2.6520   -0.4517 H   0  0  0  0  0  0  0  0  0  0  0  0
   10.7217   -1.7950    0.4116 H   0  0  0  0  0  0  0  0  0  0  0  0
    9.1851   -0.0934    1.2803 H   0  0  0  0  0  0  0  0  0  0  0  0
    8.9102   -1.7597    1.8536 H   0  0  0  0  0  0  0  0  0  0  0  0
    6.8239   -1.9420    0.6443 H   0  0  0  0  0  0  0  0  0  0  0  0
    6.9742   -0.5929    1.8465 H   0  0  0  0  0  0  0  0  0  0  0  0
    7.1575    1.0433   -0.0406 H   0  0  0  0  0  0  0  0  0  0  0  0
    6.6966   -0.3466   -1.1790 H   0  0  0  0  0  0  0  0  0  0  0  0
    5.0362    0.5099    1.1470 H   0  0  0  0  0  0  0  0  0  0  0  0
    4.8321    0.8983   -0.6071 H   0  0  0  0  0  0  0  0  0  0  0  0
    4.9085   -1.9498    0.5995 H   0  0  0  0  0  0  0  0  0  0  0  0
    4.7329   -1.5439   -1.1408 H   0  0  0  0  0  0  0  0  0  0  0  0
    2.7128   -2.1697   -0.3187 H   0  0  0  0  0  0  0  0  0  0  0  0
    2.6078   -0.4736   -0.7502 H   0  0  0  0  0  0  0  0  0  0  0  0
    2.7898   -1.7954    2.0345 H   0  0  0  0  0  0  0  0  0  0  0  0
    1.3091   -1.1616    1.3316 H   0  0  0  0  0  0  0  0  0  0  0  0
    3.5920    0.3851    2.7174 H   0  0  0  0  0  0  0  0  0  0  0  0
    1.9034    0.1660    3.0587 H   0  0  0  0  0  0  0  0  0  0  0  0
    2.4564    2.3749    2.3753 H   0  0  0  0  0  0  0  0  0  0  0  0
    3.0400    1.9285    0.7823 H   0  0  0  0  0  0  0  0  0  0  0  0
    0.6825    1.0957    0.2138 H   0  0  0  0  0  0  0  0  0  0  0  0
    0.8593    2.8311    0.4999 H   0  0  0  0  0  0  0  0  0  0  0  0
   -2.1047    2.6537    2.5230 H   0  0  0  0  0  0  0  0  0  0  0  0
   -0.6108    4.2307    0.5575 H   0  0  0  0  0  0  0  0  0  0  0  0
   -2.4054    4.1522    0.7934 H   0  0  0  0  0  0  0  0  0  0  0  0
   -1.7773    3.7034   -1.4720 H   0  0  0  0  0  0  0  0  0  0  0  0
   -0.8084    2.2678   -1.0591 H   0  0  0  0  0  0  0  0  0  0  0  0
   -3.8586    2.6626   -0.6508 H   0  0  0  0  0  0  0  0  0  0  0  0
   -3.0257    1.7004   -1.8706 H   0  0  0  0  0  0  0  0  0  0  0  0
   -3.0095    1.0400    1.1938 H   0  0  0  0  0  0  0  0  0  0  0  0
   -2.2751    0.0526   -0.1183 H   0  0  0  0  0  0  0  0  0  0  0  0
   -5.2013    0.9226    0.0583 H   0  0  0  0  0  0  0  0  0  0  0  0
   -3.8571   -0.9467   -1.8939 H   0  0  0  0  0  0  0  0  0  0  0  0
   -5.5530    1.9820   -5.2585 H   0  0  0  0  0  0  0  0  0  0  0  0
   -7.3682    2.9673   -6.6379 H   0  0  0  0  0  0  0  0  0  0  0  0
   -9.6458    1.9286   -6.5712 H   0  0  0  0  0  0  0  0  0  0  0  0
  -10.0337    0.0137   -5.1876 H   0  0  0  0  0  0  0  0  0  0  0  0
   -8.1943   -0.9827   -3.7945 H   0  0  0  0  0  0  0  0  0  0  0  0
   -4.3020    0.1430    2.4834 H   0  0  0  0  0  0  0  0  0  0  0  0
   -5.3156   -3.5088    1.8779 H   0  0  0  0  0  0  0  0  0  0  0  0
   -5.6696   -5.0839    3.6260 H   0  0  0  0  0  0  0  0  0  0  0  0
   -5.3879   -4.4274    6.0134 H   0  0  0  0  0  0  0  0  0  0  0  0
   -4.7409   -2.1339    6.5201 H   0  0  0  0  0  0  0  0  0  0  0  0
   -4.3674   -0.5070    4.7457 H   0  0  0  0  0  0  0  0  0  0  0  0
  1  2  1  0
  2  3  1  0
  3  4  1  0
  4  5  1  0
  5  6  1  0
  6  7  1  0
  7  8  1  0
  8  9  1  0
  9 10  1  0
 10 11  1  0
 11 12  1  0
 12 13  1  0
 13 14  1  0
 14 15  2  0
 14 16  1  0
 16 17  1  0
 17 18  1  0
 18 19  1  0
 19 20  1  0
 20 21  1  0
 21 22  1  0
 22 23  1  0
 23 24  2  0
 23 25  1  0
 25 26  1  0
 26 27  2  0
 27 28  1  0
 28 29  2  0
 29 30  1  0
 30 31  2  0
 21 32  1  0
 32 33  2  0
 32 34  1  0
 34 35  1  0
 35 36  2  0
 36 37  1  0
 37 38  2  0
 38 39  1  0
 39 40  2  0
 31 26  1  0
 40 35  1  0
  1 41  1  0
  1 42  1  0
  1 43  1  0
  2 44  1  0
  2 45  1  0
  3 46  1  0
  3 47  1  0
  4 48  1  0
  4 49  1  0
  5 50  1  0
  5 51  1  0
  6 52  1  0
  6 53  1  0
  7 54  1  0
  7 55  1  0
  8 56  1  0
  8 57  1  0
  9 58  1  0
  9 59  1  0
 10 60  1  0
 10 61  1  0
 11 62  1  0
 11 63  1  0
 12 64  1  0
 12 65  1  0
 13 66  1  0
 13 67  1  0
 16 68  1  0
 17 69  1  0
 17 70  1  0
 18 71  1  0
 18 72  1  0
 19 73  1  0
 19 74  1  0
 20 75  1  0
 20 76  1  0
 21 77  1  0
 22 78  1  0
 27 79  1  0
 28 80  1  0
 29 81  1  0
 30 82  1  0
 31 83  1  0
 34 84  1  0
 36 85  1  0
 37 86  1  0
 38 87  1  0
 39 88  1  0
 40 89  1  0
M  END
$$$$
