@<TRIPOS>MOLECULE
*****
 89 90 0 0 0
SMALL
GASTEIGER

@<TRIPOS>ATOM
      1 C           9.0405   -0.6262   -2.4076 C.3     1  UNL1       -0.0653
      2 C          10.0478   -0.8430   -1.3572 C.3     1  UNL1       -0.0559
      3 C           9.7045   -1.5582   -0.1174 C.3     1  UNL1       -0.0533
      4 C           8.7618   -1.1131    0.8823 C.3     1  UNL1       -0.0531
      5 C           7.3329   -0.9189    0.7942 C.3     1  UNL1       -0.0531
      6 C           6.7307    0.0539   -0.1277 C.3     1  UNL1       -0.0531
      7 C           5.1896    0.1474    0.1396 C.3     1  UNL1       -0.0531
      8 C           4.5249   -1.1406   -0.1100 C.3     1  UNL1       -0.0531
      9 C           3.0635   -1.1368    0.0653 C.3     1  UNL1       -0.0531
     10 C           2.4372   -0.9239    1.3625 C.3     1  UNL1       -0.0530
     11 C           2.6229    0.2965    2.1630 C.3     1  UNL1       -0.0527
     12 C           2.2795    1.5894    1.5554 C.3     1  UNL1       -0.0474
     13 C           0.9073    1.8465    1.0651 C.3     1  UNL1       -0.0079
     14 C          -0.1930    1.8497    2.0235 C.2     1  UNL1        0.0488
     15 S          -0.2328    0.9772    3.3806 S.2     1  UNL1       -0.0404
     16 N          -1.3472    2.6809    1.7550 N.am    1  UNL1       -0.3414
     17 C          -1.4917    3.4939    0.6179 C.3     1  UNL1        0.0093
     18 C          -1.7035    2.8492   -0.7011 C.3     1  UNL1       -0.0374
     19 C          -2.9445    2.0207   -0.7823 C.3     1  UNL1       -0.0495
     20 C          -3.0294    0.8458    0.1284 C.3     1  UNL1       -0.0258
     21 C          -4.3788    0.1911   -0.1520 C.3     1  UNL1        0.1028
     22 N          -4.5161   -0.2429   -1.5179 N.am    1  UNL1       -0.2695
     23 C          -5.5328    0.2726   -2.3557 C.2     1  UNL1        0.4062
     24 O          -6.2997    1.1242   -1.8415 O.2     1  UNL1       -0.2260
     25 O          -5.7264   -0.0977   -3.6732 O.3     1  UNL1       -0.4115
     26 C          -6.7485    0.4509   -4.4457 C.ar    1  UNL1        0.1332
     27 C          -6.5462    1.5484   -5.2448 C.ar    1  UNL1       -0.0192
     28 C          -7.5654    2.0969   -6.0152 C.ar    1  UNL1       -0.0583
     29 C          -8.8294    1.5418   -5.9959 C.ar    1  UNL1       -0.0615
     30 C          -9.0298    0.4293   -5.1846 C.ar    1  UNL1       -0.0583
     31 C          -8.0102   -0.1157   -4.4170 C.ar    1  UNL1       -0.0192
     32 C          -4.6475   -0.9658    0.7584 C.2     1  UNL1        0.2376
     33 O          -4.9567   -2.0977    0.2528 O.2     1  UNL1       -0.2734
     34 N          -4.5721   -0.8450    2.1438 N.am    1  UNL1       -0.2840
     35 C          -4.8053   -1.8489    3.1130 C.ar    1  UNL1        0.0334
     36 C          -5.1699   -3.1423    2.8746 C.ar    1  UNL1       -0.0405
     37 C          -5.3783   -4.0603    3.8888 C.ar    1  UNL1       -0.0600
     38 C          -5.2243   -3.7052    5.2204 C.ar    1  UNL1       -0.0616
     39 C          -4.8562   -2.4002    5.4712 C.ar    1  UNL1       -0.0600
     40 C          -4.6525   -1.4990    4.4517 C.ar    1  UNL1       -0.0405
     41 H           8.5583    0.3708   -2.3498 H       1  UNL1        0.0230
     42 H           8.3003   -1.4459   -2.4570 H       1  UNL1        0.0230
     43 H           9.5386   -0.6429   -3.4406 H       1  UNL1        0.0230
     44 H          11.0128   -1.2947   -1.7991 H       1  UNL1        0.0263
     45 H          10.4465    0.2001   -1.0653 H       1  UNL1        0.0263
     46 H           9.4690   -2.6520   -0.4517 H       1  UNL1        0.0265
     47 H          10.7217   -1.7950    0.4116 H       1  UNL1        0.0265
     48 H           9.1851   -0.0934    1.2803 H       1  UNL1        0.0265
     49 H           8.9102   -1.7597    1.8536 H       1  UNL1        0.0265
     50 H           6.8239   -1.9420    0.6443 H       1  UNL1        0.0265
     51 H           6.9742   -0.5929    1.8465 H       1  UNL1        0.0265
     52 H           7.1575    1.0433   -0.0406 H       1  UNL1        0.0265
     53 H           6.6966   -0.3466   -1.1790 H       1  UNL1        0.0265
     54 H           5.0362    0.5099    1.1470 H       1  UNL1        0.0265
     55 H           4.8321    0.8983   -0.6071 H       1  UNL1        0.0265
     56 H           4.9085   -1.9498    0.5995 H       1  UNL1        0.0265
     57 H           4.7329   -1.5439   -1.1408 H       1  UNL1        0.0265
     58 H           2.7128   -2.1697   -0.3187 H       1  UNL1        0.0265
     59 H           2.6078   -0.4736   -0.7502 H       1  UNL1        0.0265
     60 H           2.7898   -1.7954    2.0345 H       1  UNL1        0.0265
     61 H           1.3091   -1.1616    1.3316 H       1  UNL1        0.0265
     62 H           3.5920    0.3851    2.7174 H       1  UNL1        0.0265
     63 H           1.9034    0.1660    3.0587 H       1  UNL1        0.0265
     64 H           2.4564    2.3749    2.3753 H       1  UNL1        0.0269
     65 H           3.0400    1.9285    0.7823 H       1  UNL1        0.0269
     66 H           0.6825    1.0957    0.2138 H       1  UNL1        0.0331
     67 H           0.8593    2.8311    0.4999 H       1  UNL1        0.0331
     68 H          -2.1047    2.6537    2.5230 H       1  UNL1        0.1463
     69 H          -0.6108    4.2307    0.5575 H       1  UNL1        0.0461
     70 H          -2.4054    4.1522    0.7934 H       1  UNL1        0.0461
     71 H          -1.7773    3.7034   -1.4720 H       1  UNL1        0.0280
     72 H          -0.8084    2.2678   -1.0591 H       1  UNL1        0.0280
     73 H          -3.8586    2.6626   -0.6508 H       1  UNL1        0.0266
     74 H          -3.0257    1.7004   -1.8706 H       1  UNL1        0.0266
     75 H          -3.0095    1.0400    1.1938 H       1  UNL1        0.0288
     76 H          -2.2751    0.0526   -0.1183 H       1  UNL1        0.0288
     77 H          -5.2013    0.9226    0.0583 H       1  UNL1        0.0596
     78 H          -3.8571   -0.9467   -1.8939 H       1  UNL1        0.1528
     79 H          -5.5530    1.9820   -5.2585 H       1  UNL1        0.0654
     80 H          -7.3682    2.9673   -6.6379 H       1  UNL1        0.0619
     81 H          -9.6458    1.9286   -6.5712 H       1  UNL1        0.0618
     82 H         -10.0337    0.0137   -5.1876 H       1  UNL1        0.0619
     83 H          -8.1943   -0.9827   -3.7945 H       1  UNL1        0.0654
     84 H          -4.3020    0.1430    2.4834 H       1  UNL1        0.1549
     85 H          -5.3156   -3.5088    1.8779 H       1  UNL1        0.0636
     86 H          -5.6696   -5.0839    3.6260 H       1  UNL1        0.0618
     87 H          -5.3879   -4.4274    6.0134 H       1  UNL1        0.0618
     88 H          -4.7409   -2.1339    6.5201 H       1  UNL1        0.0618
     89 H          -4.3674   -0.5070    4.7457 H       1  UNL1        0.0636
@<TRIPOS>BOND
     1     1     2    1
     2     2     3    1
     3     3     4    1
     4     4     5    1
     5     5     6    1
     6     6     7    1
     7     7     8    1
     8     8     9    1
     9     9    10    1
    10    10    11    1
    11    11    12    1
    12    12    13    1
    13    13    14    1
    14    14    15    2
    15    14    16    1
    16    16    17    1
    17    17    18    1
    18    18    19    1
    19    19    20    1
    20    20    21    1
    21    21    22    1
    22    22    23   am
    23    23    24    2
    24    23    25    1
    25    25    26    1
    26    26    27   ar
    27    27    28   ar
    28    28    29   ar
    29    29    30   ar
    30    30    31   ar
    31    21    32    1
    32    32    33    2
    33    32    34   am
    34    34    35    1
    35    35    36   ar
    36    36    37   ar
    37    37    38   ar
    38    38    39   ar
    39    39    40   ar
    40    31    26   ar
    41    40    35   ar
    42     1    41    1
    43     1    42    1
    44     1    43    1
    45     2    44    1
    46     2    45    1
    47     3    46    1
    48     3    47    1
    49     4    48    1
    50     4    49    1
    51     5    50    1
    52     5    51    1
    53     6    52    1
    54     6    53    1
    55     7    54    1
    56     7    55    1
    57     8    56    1
    58     8    57    1
    59     9    58    1
    60     9    59    1
    61    10    60    1
    62    10    61    1
    63    11    62    1
    64    11    63    1
    65    12    64    1
    66    12    65    1
    67    13    66    1
    68    13    67    1
    69    16    68    1
    70    17    69    1
    71    17    70    1
    72    18    71    1
    73    18    72    1
    74    19    73    1
    75    19    74    1
    76    20    75    1
    77    20    76    1
    78    21    77    1
    79    22    78    1
    80    27    79    1
    81    28    80    1
    82    29    81    1
    83    30    82    1
    84    31    83    1
    85    34    84    1
    86    36    85    1
    87    37    86    1
    88    38    87    1
    89    39    88    1
    90    40    89    1
