
     RDKit          3D

 56 60  0  0  0  0  0  0  0  0999 V2000
   -9.1852   -0.1273   -1.4280 O   0  0  0  0  0  0  0  0  0  0  0  0
   -8.2468    0.0818   -0.6333 C   0  0  0  0  0  0  0  0  0  0  0  0
   -8.3725   -0.2927    0.6835 O   0  0  0  0  0  0  0  0  0  0  0  0
   -7.0136    0.7274   -1.1118 C   0  0  0  0  0  0  0  0  0  0  0  0
   -6.0555    0.8728    0.0283 C   0  0  2  0  0  0  0  0  0  0  0  0
   -4.7591    1.5244   -0.3577 C   0  0  0  0  0  0  0  0  0  0  0  0
   -3.8302    0.9193    0.4742 O   0  0  0  0  0  0  0  0  0  0  0  0
   -4.1435   -0.4179    0.4492 C   0  0  0  0  0  0  0  0  0  0  0  0
   -3.5607   -1.0447   -0.7936 C   0  0  0  0  0  0  0  0  0  0  0  0
   -2.1304   -0.6368   -0.8817 C   0  0  0  0  0  0  0  0  0  0  0  0
   -1.4331   -0.5718    0.3739 N   0  0  0  0  0  0  0  0  0  0  0  0
   -0.0228   -0.4146    0.3475 C   0  0  0  0  0  0  0  0  0  0  0  0
    0.7416   -0.2663    1.4807 C   0  0  0  0  0  0  0  0  0  0  0  0
    2.1130   -0.1219    1.3802 C   0  0  0  0  0  0  0  0  0  0  0  0
    2.7595   -0.1202    0.1654 C   0  0  0  0  0  0  0  0  0  0  0  0
    4.2163    0.0311    0.0212 C   0  0  0  0  0  0  0  0  0  0  0  0
    4.9505    0.0456   -1.0792 N   0  0  0  0  0  0  0  0  0  0  0  0
    6.2525    0.2074   -0.7376 C   0  0  0  0  0  0  0  0  0  0  0  0
    7.4282    0.2915   -1.4583 C   0  0  0  0  0  0  0  0  0  0  0  0
    8.6601    0.4597   -0.8696 C   0  0  0  0  0  0  0  0  0  0  0  0
    9.9212    0.5460   -1.6839 C   0  0  0  0  0  0  0  0  0  0  0  0
   10.9176    0.0030   -0.9106 F   0  0  0  0  0  0  0  0  0  0  0  0
   10.1441    1.8562   -2.0032 F   0  0  0  0  0  0  0  0  0  0  0  0
    9.8110   -0.2024   -2.8399 F   0  0  0  0  0  0  0  0  0  0  0  0
    8.7051    0.5470    0.5097 C   0  0  0  0  0  0  0  0  0  0  0  0
    7.5556    0.4680    1.2662 C   0  0  0  0  0  0  0  0  0  0  0  0
    6.3392    0.2987    0.6355 C   0  0  0  0  0  0  0  0  0  0  0  0
    5.0625    0.1848    1.0573 N   0  0  0  0  0  0  0  0  0  0  0  0
    1.9596   -0.2711   -0.9474 C   0  0  0  0  0  0  0  0  0  0  0  0
    0.6192   -0.4113   -0.8317 N   0  0  0  0  0  0  0  0  0  0  0  0
   -2.0570   -0.6564    1.6790 C   0  0  0  0  0  0  0  0  0  0  0  0
   -3.4973   -1.1096    1.6273 C   0  0  0  0  0  0  0  0  0  0  0  0
   -5.6494   -0.5210    0.4876 C   0  0  0  0  0  0  0  0  0  0  0  0
   -9.2442   -0.6102    1.1085 H   0  0  0  0  0  0  0  0  0  0  0  0
   -7.2498    1.7118   -1.5851 H   0  0  0  0  0  0  0  0  0  0  0  0
   -6.5011    0.0921   -1.8805 H   0  0  0  0  0  0  0  0  0  0  0  0
   -6.4782    1.4691    0.8701 H   0  0  0  0  0  0  0  0  0  0  0  0
   -4.7415    2.6141   -0.0972 H   0  0  0  0  0  0  0  0  0  0  0  0
   -4.5281    1.4319   -1.4304 H   0  0  0  0  0  0  0  0  0  0  0  0
   -3.6712   -2.1397   -0.8076 H   0  0  0  0  0  0  0  0  0  0  0  0
   -4.1206   -0.6087   -1.6532 H   0  0  0  0  0  0  0  0  0  0  0  0
   -2.0079    0.3724   -1.3564 H   0  0  0  0  0  0  0  0  0  0  0  0
   -1.5317   -1.3280   -1.5444 H   0  0  0  0  0  0  0  0  0  0  0  0
    0.2606   -0.2620    2.4438 H   0  0  0  0  0  0  0  0  0  0  0  0
    2.7378   -0.0033    2.2603 H   0  0  0  0  0  0  0  0  0  0  0  0
    7.3688    0.2214   -2.5319 H   0  0  0  0  0  0  0  0  0  0  0  0
    9.6378    0.6786    1.0337 H   0  0  0  0  0  0  0  0  0  0  0  0
    7.5546    0.5323    2.3409 H   0  0  0  0  0  0  0  0  0  0  0  0
    4.7584    0.2111    2.0563 H   0  0  0  0  0  0  0  0  0  0  0  0
    2.4545   -0.2724   -1.9144 H   0  0  0  0  0  0  0  0  0  0  0  0
   -2.0712    0.3670    2.1451 H   0  0  0  0  0  0  0  0  0  0  0  0
   -1.4407   -1.3457    2.3187 H   0  0  0  0  0  0  0  0  0  0  0  0
   -3.4842   -2.2204    1.4837 H   0  0  0  0  0  0  0  0  0  0  0  0
   -3.9580   -0.8140    2.5901 H   0  0  0  0  0  0  0  0  0  0  0  0
   -5.9464   -0.6663    1.5484 H   0  0  0  0  0  0  0  0  0  0  0  0
   -5.9973   -1.3095   -0.1804 H   0  0  0  0  0  0  0  0  0  0  0  0
  1  2  2  0
  2  3  1  0
  2  4  1  0
  4  5  1  0
  5  6  1  0
  6  7  1  0
  7  8  1  0
  8  9  1  0
  9 10  1  0
 10 11  1  0
 11 12  1  0
 12 13  2  0
 13 14  1  0
 14 15  2  0
 15 16  1  0
 16 17  2  0
 17 18  1  0
 18 19  2  0
 19 20  1  0
 20 21  1  0
 21 22  1  0
 21 23  1  0
 21 24  1  0
 20 25  2  0
 25 26  1  0
 26 27  2  0
 27 28  1  0
 15 29  1  0
 29 30  2  0
 11 31  1  0
 31 32  1  0
  8 33  1  0
 33  5  1  0
 32  8  1  0
 30 12  1  0
 28 16  1  0
 27 18  1  0
  3 34  1  0
  4 35  1  0
  4 36  1  0
  5 37  1  1
  6 38  1  0
  6 39  1  0
  9 40  1  0
  9 41  1  0
 10 42  1  0
 10 43  1  0
 13 44  1  0
 14 45  1  0
 19 46  1  0
 25 47  1  0
 26 48  1  0
 28 49  1  0
 29 50  1  0
 31 51  1  0
 31 52  1  0
 32 53  1  0
 32 54  1  0
 33 55  1  0
 33 56  1  0
M  END
$$$$
