@<TRIPOS>MOLECULE
*****
 56 60 0 0 0
SMALL
GASTEIGER

@<TRIPOS>ATOM
      1 O          -9.1852   -0.1273   -1.4280 O.2     1  UNL1       -0.2510
      2 C          -8.2468    0.0818   -0.6333 C.2     1  UNL1        0.3050
      3 O          -8.3725   -0.2927    0.6835 O.3     1  UNL1       -0.4806
      4 C          -7.0136    0.7274   -1.1118 C.3     1  UNL1        0.0498
      5 C          -6.0555    0.8728    0.0283 C.3     1  UNL1       -0.0049
      6 C          -4.7591    1.5244   -0.3577 C.3     1  UNL1        0.0518
      7 O          -3.8302    0.9193    0.4742 O.3     1  UNL1       -0.3730
      8 C          -4.1435   -0.4179    0.4492 C.3     1  UNL1        0.0727
      9 C          -3.5607   -1.0447   -0.7936 C.3     1  UNL1       -0.0079
     10 C          -2.1304   -0.6368   -0.8817 C.3     1  UNL1        0.0161
     11 N          -1.4331   -0.5718    0.3739 N.pl3   1  UNL1       -0.3150
     12 C          -0.0228   -0.4146    0.3475 C.ar    1  UNL1        0.1212
     13 C           0.7416   -0.2663    1.4807 C.ar    1  UNL1       -0.0210
     14 C           2.1130   -0.1219    1.3802 C.ar    1  UNL1       -0.0464
     15 C           2.7595   -0.1202    0.1654 C.ar    1  UNL1        0.0355
     16 C           4.2163    0.0311    0.0212 C.ar    1  UNL1        0.1407
     17 N           4.9505    0.0456   -1.0792 N.ar    1  UNL1       -0.2277
     18 C           6.2525    0.2074   -0.7376 C.ar    1  UNL1        0.0900
     19 C           7.4282    0.2915   -1.4583 C.ar    1  UNL1       -0.0226
     20 C           8.6601    0.4597   -0.8696 C.ar    1  UNL1        0.0569
     21 C           9.9212    0.5460   -1.6839 C.3     1  UNL1        0.4175
     22 F          10.9176    0.0030   -0.9106 F       1  UNL1       -0.1659
     23 F          10.1441    1.8562   -2.0032 F       1  UNL1       -0.1659
     24 F           9.8110   -0.2024   -2.8399 F       1  UNL1       -0.1659
     25 C           8.7051    0.5470    0.5097 C.ar    1  UNL1       -0.0480
     26 C           7.5556    0.4680    1.2662 C.ar    1  UNL1       -0.0357
     27 C           6.3392    0.2987    0.6355 C.ar    1  UNL1        0.0665
     28 N           5.0625    0.1848    1.0573 N.ar    1  UNL1       -0.3378
     29 C           1.9596   -0.2711   -0.9474 C.ar    1  UNL1        0.0403
     30 N           0.6192   -0.4113   -0.8317 N.ar    1  UNL1       -0.2396
     31 C          -2.0570   -0.6564    1.6790 C.3     1  UNL1        0.0161
     32 C          -3.4973   -1.1096    1.6273 C.3     1  UNL1       -0.0079
     33 C          -5.6494   -0.5210    0.4876 C.3     1  UNL1       -0.0182
     34 H          -9.2442   -0.6102    1.1085 H       1  UNL1        0.2951
     35 H          -7.2498    1.7118   -1.5851 H       1  UNL1        0.0381
     36 H          -6.5011    0.0921   -1.8805 H       1  UNL1        0.0381
     37 H          -6.4782    1.4691    0.8701 H       1  UNL1        0.0329
     38 H          -4.7415    2.6141   -0.0972 H       1  UNL1        0.0563
     39 H          -4.5281    1.4319   -1.4304 H       1  UNL1        0.0563
     40 H          -3.6712   -2.1397   -0.8076 H       1  UNL1        0.0308
     41 H          -4.1206   -0.6087   -1.6532 H       1  UNL1        0.0308
     42 H          -2.0079    0.3724   -1.3564 H       1  UNL1        0.0465
     43 H          -1.5317   -1.3280   -1.5444 H       1  UNL1        0.0465
     44 H           0.2606   -0.2620    2.4438 H       1  UNL1        0.0652
     45 H           2.7378   -0.0033    2.2603 H       1  UNL1        0.0626
     46 H           7.3688    0.2214   -2.5319 H       1  UNL1        0.0645
     47 H           9.6378    0.6786    1.0337 H       1  UNL1        0.0624
     48 H           7.5546    0.5323    2.3409 H       1  UNL1        0.0639
     49 H           4.7584    0.2111    2.0563 H       1  UNL1        0.1674
     50 H           2.4545   -0.2724   -1.9144 H       1  UNL1        0.0837
     51 H          -2.0712    0.3670    2.1451 H       1  UNL1        0.0465
     52 H          -1.4407   -1.3457    2.3187 H       1  UNL1        0.0465
     53 H          -3.4842   -2.2204    1.4837 H       1  UNL1        0.0308
     54 H          -3.9580   -0.8140    2.5901 H       1  UNL1        0.0308
     55 H          -5.9464   -0.6663    1.5484 H       1  UNL1        0.0296
     56 H          -5.9973   -1.3095   -0.1804 H       1  UNL1        0.0296
@<TRIPOS>BOND
     1     1     2    2
     2     2     3    1
     3     2     4    1
     4     4     5    1
     5     5     6    1
     6     6     7    1
     7     7     8    1
     8     8     9    1
     9     9    10    1
    10    10    11    1
    11    11    12    1
    12    12    13   ar
    13    13    14   ar
    14    14    15   ar
    15    15    16    1
    16    16    17   ar
    17    17    18   ar
    18    18    19   ar
    19    19    20   ar
    20    20    21    1
    21    21    22    1
    22    21    23    1
    23    21    24    1
    24    20    25   ar
    25    25    26   ar
    26    26    27   ar
    27    27    28   ar
    28    15    29   ar
    29    29    30   ar
    30    11    31    1
    31    31    32    1
    32     8    33    1
    33    33     5    1
    34    32     8    1
    35    30    12   ar
    36    28    16   ar
    37    27    18   ar
    38     3    34    1
    39     4    35    1
    40     4    36    1
    41     5    37    1
    42     6    38    1
    43     6    39    1
    44     9    40    1
    45     9    41    1
    46    10    42    1
    47    10    43    1
    48    13    44    1
    49    14    45    1
    50    19    46    1
    51    25    47    1
    52    26    48    1
    53    28    49    1
    54    29    50    1
    55    31    51    1
    56    31    52    1
    57    32    53    1
    58    32    54    1
    59    33    55    1
    60    33    56    1
