@<TRIPOS>MOLECULE
*****
 69 74 0 0 0
SMALL
GASTEIGER

@<TRIPOS>ATOM
      1 C          -7.6431    0.8659   -1.9515 C.3     1  UNL1       -0.0235
      2 C          -6.9241    0.2536   -0.7723 C.3     1  UNL1        0.1238
      3 O          -6.1560    1.2074   -0.1368 O.3     1  UNL1       -0.4831
      4 C          -4.7899    1.0482    0.2237 C.ar    1  UNL1        0.1426
      5 C          -4.1056   -0.0933    0.0251 C.ar    1  UNL1        0.0121
      6 C          -2.8165   -0.1392    0.4022 C.ar    1  UNL1        0.0901
      7 N          -1.8830   -1.2665    0.2863 N.ar    1  UNL1       -0.2924
      8 C          -2.1592   -2.5587    0.4127 C.ar    1  UNL1        0.1019
      9 N          -1.0465   -3.3031    0.2422 N.ar    1  UNL1       -0.2353
     10 C          -0.0240   -2.4389   -0.0025 C.ar    1  UNL1        0.0899
     11 C           1.3265   -2.6575   -0.2481 C.ar    1  UNL1       -0.0265
     12 C           2.1647   -1.5851   -0.4694 C.ar    1  UNL1       -0.0156
     13 C           3.5969   -1.7962   -0.7312 C.ar    1  UNL1       -0.0131
     14 C           4.0140   -2.9306   -1.3881 C.ar    1  UNL1       -0.0357
     15 C           5.3631   -3.1012   -1.6200 C.ar    1  UNL1        0.0303
     16 N           6.2611   -2.1835   -1.2165 N.ar    1  UNL1       -0.2403
     17 C           5.8757   -1.0704   -0.5746 C.ar    1  UNL1        0.1219
     18 N           6.8561   -0.1160   -0.1604 N.pl3   1  UNL1       -0.3127
     19 C           8.2554   -0.3671   -0.4412 C.3     1  UNL1        0.0263
     20 C           9.0613    0.3176    0.6410 C.3     1  UNL1        0.0144
     21 N           8.8912    1.7406    0.6603 N.3     1  UNL1       -0.3024
     22 C           9.8129    2.3633   -0.2923 C.3     1  UNL1       -0.0126
     23 C           7.5703    2.1776    0.3116 C.3     1  UNL1        0.0144
     24 C           6.5207    1.1088    0.5358 C.3     1  UNL1        0.0263
     25 C           4.5457   -0.8792   -0.3334 C.ar    1  UNL1       -0.0140
     26 C           1.6155   -0.3198   -0.4365 C.ar    1  UNL1       -0.0519
     27 C           0.2732   -0.1034   -0.1923 C.ar    1  UNL1       -0.0351
     28 C          -0.5664   -1.1686    0.0288 C.ar    1  UNL1        0.0738
     29 S          -2.5135    1.4300    1.0549 S.2     1  UNL1       -0.0624
     30 C          -4.1312    2.0617    0.7858 C.ar    1  UNL1        0.1172
     31 C          -4.5233    3.4552    1.1394 C.2     1  UNL1        0.2518
     32 N          -3.6112    4.3246    1.7891 N.am    1  UNL1       -0.3248
     33 O          -5.6602    3.8726    0.8670 O.2     1  UNL1       -0.2697
     34 C          -7.9310   -0.3047    0.1912 C.ar    1  UNL1        0.0107
     35 C          -8.1566   -1.6902    0.2146 C.ar    1  UNL1       -0.0537
     36 C          -9.0581   -2.2405    1.0931 C.ar    1  UNL1       -0.0613
     37 C          -9.7638   -1.4486    1.9734 C.ar    1  UNL1       -0.0604
     38 C          -9.5708   -0.1049    1.9780 C.ar    1  UNL1       -0.0430
     39 C          -8.6519    0.4420    1.0798 C.ar    1  UNL1        0.0476
     40 CL         -8.4514    2.1755    1.1044 Cl      1  UNL1       -0.0831
     41 H          -8.6741    1.2063   -1.6809 H       1  UNL1        0.0269
     42 H          -7.7928    0.1346   -2.7862 H       1  UNL1        0.0269
     43 H          -7.1089    1.7209   -2.3877 H       1  UNL1        0.0269
     44 H          -6.3040   -0.6047   -1.1677 H       1  UNL1        0.0782
     45 H          -4.5400   -0.9995   -0.4281 H       1  UNL1        0.0681
     46 H          -3.1647   -2.9395    0.6267 H       1  UNL1        0.1033
     47 H           1.7447   -3.6643   -0.2706 H       1  UNL1        0.0645
     48 H           3.2977   -3.6739   -1.7160 H       1  UNL1        0.0639
     49 H           5.6528   -4.0081   -2.1405 H       1  UNL1        0.0830
     50 H           8.4809    0.0800   -1.4251 H       1  UNL1        0.0477
     51 H           8.5035   -1.4450   -0.3958 H       1  UNL1        0.0477
     52 H           8.6529   -0.0641    1.6225 H       1  UNL1        0.0442
     53 H          10.1396    0.0668    0.5910 H       1  UNL1        0.0442
     54 H           9.7464    1.8066   -1.2640 H       1  UNL1        0.0391
     55 H           9.5514    3.4303   -0.4630 H       1  UNL1        0.0391
     56 H          10.8484    2.2293    0.0688 H       1  UNL1        0.0391
     57 H           7.3037    3.0341    0.9644 H       1  UNL1        0.0442
     58 H           7.5072    2.5023   -0.7524 H       1  UNL1        0.0442
     59 H           6.2930    0.9486    1.6022 H       1  UNL1        0.0477
     60 H           5.5872    1.5012    0.0616 H       1  UNL1        0.0477
     61 H           4.2007    0.0166    0.1872 H       1  UNL1        0.0658
     62 H           2.3180    0.4990   -0.6174 H       1  UNL1        0.0624
     63 H          -0.1193    0.9022   -0.1746 H       1  UNL1        0.0639
     64 H          -3.3665    5.2207    1.3077 H       1  UNL1        0.1453
     65 H          -3.2117    4.0623    2.7097 H       1  UNL1        0.1453
     66 H          -7.5867   -2.2947   -0.4907 H       1  UNL1        0.0622
     67 H          -9.2292   -3.3156    1.1068 H       1  UNL1        0.0618
     68 H         -10.4825   -1.8621    2.6785 H       1  UNL1        0.0618
     69 H         -10.1148    0.5324    2.6610 H       1  UNL1        0.0632
@<TRIPOS>BOND
     1     1     2    1
     2     2     3    1
     3     3     4    1
     4     4     5   ar
     5     5     6   ar
     6     6     7    1
     7     7     8   ar
     8     8     9   ar
     9     9    10   ar
    10    10    11   ar
    11    11    12   ar
    12    12    13    1
    13    13    14   ar
    14    14    15   ar
    15    15    16   ar
    16    16    17   ar
    17    17    18    1
    18    18    19    1
    19    19    20    1
    20    20    21    1
    21    21    22    1
    22    21    23    1
    23    23    24    1
    24    17    25   ar
    25    12    26   ar
    26    26    27   ar
    27    27    28   ar
    28     6    29   ar
    29    29    30   ar
    30    30    31    1
    31    31    32   am
    32    31    33    2
    33     2    34    1
    34    34    35   ar
    35    35    36   ar
    36    36    37   ar
    37    37    38   ar
    38    38    39   ar
    39    39    40    1
    40    30     4   ar
    41    39    34   ar
    42    28     7   ar
    43    28    10   ar
    44    25    13   ar
    45    24    18    1
    46     1    41    1
    47     1    42    1
    48     1    43    1
    49     2    44    1
    50     5    45    1
    51     8    46    1
    52    11    47    1
    53    14    48    1
    54    15    49    1
    55    19    50    1
    56    19    51    1
    57    20    52    1
    58    20    53    1
    59    22    54    1
    60    22    55    1
    61    22    56    1
    62    23    57    1
    63    23    58    1
    64    24    59    1
    65    24    60    1
    66    25    61    1
    67    26    62    1
    68    27    63    1
    69    32    64    1
    70    32    65    1
    71    35    66    1
    72    36    67    1
    73    37    68    1
    74    38    69    1
