
     RDKit          3D

 69 74  0  0  0  0  0  0  0  0999 V2000
   -7.6431    0.8659   -1.9515 C   0  0  0  0  0  0  0  0  0  0  0  0
   -6.9241    0.2536   -0.7723 C   0  0  1  0  0  0  0  0  0  0  0  0
   -6.1560    1.2074   -0.1368 O   0  0  0  0  0  0  0  0  0  0  0  0
   -4.7899    1.0482    0.2237 C   0  0  0  0  0  0  0  0  0  0  0  0
   -4.1056   -0.0933    0.0251 C   0  0  0  0  0  0  0  0  0  0  0  0
   -2.8165   -0.1392    0.4022 C   0  0  0  0  0  0  0  0  0  0  0  0
   -1.8830   -1.2665    0.2863 N   0  0  0  0  0  0  0  0  0  0  0  0
   -2.1592   -2.5587    0.4127 C   0  0  0  0  0  0  0  0  0  0  0  0
   -1.0465   -3.3031    0.2422 N   0  0  0  0  0  0  0  0  0  0  0  0
   -0.0240   -2.4389   -0.0025 C   0  0  0  0  0  0  0  0  0  0  0  0
    1.3265   -2.6575   -0.2481 C   0  0  0  0  0  0  0  0  0  0  0  0
    2.1647   -1.5851   -0.4694 C   0  0  0  0  0  0  0  0  0  0  0  0
    3.5969   -1.7962   -0.7312 C   0  0  0  0  0  0  0  0  0  0  0  0
    4.0140   -2.9306   -1.3881 C   0  0  0  0  0  0  0  0  0  0  0  0
    5.3631   -3.1012   -1.6200 C   0  0  0  0  0  0  0  0  0  0  0  0
    6.2611   -2.1835   -1.2165 N   0  0  0  0  0  0  0  0  0  0  0  0
    5.8757   -1.0704   -0.5746 C   0  0  0  0  0  0  0  0  0  0  0  0
    6.8561   -0.1160   -0.1604 N   0  0  0  0  0  0  0  0  0  0  0  0
    8.2554   -0.3671   -0.4412 C   0  0  0  0  0  0  0  0  0  0  0  0
    9.0613    0.3176    0.6410 C   0  0  0  0  0  0  0  0  0  0  0  0
    8.8912    1.7406    0.6603 N   0  0  0  0  0  0  0  0  0  0  0  0
    9.8129    2.3633   -0.2923 C   0  0  0  0  0  0  0  0  0  0  0  0
    7.5703    2.1776    0.3116 C   0  0  0  0  0  0  0  0  0  0  0  0
    6.5207    1.1088    0.5358 C   0  0  0  0  0  0  0  0  0  0  0  0
    4.5457   -0.8792   -0.3334 C   0  0  0  0  0  0  0  0  0  0  0  0
    1.6155   -0.3198   -0.4365 C   0  0  0  0  0  0  0  0  0  0  0  0
    0.2732   -0.1034   -0.1923 C   0  0  0  0  0  0  0  0  0  0  0  0
   -0.5664   -1.1686    0.0288 C   0  0  0  0  0  0  0  0  0  0  0  0
   -2.5135    1.4300    1.0549 S   0  0  0  0  0  0  0  0  0  0  0  0
   -4.1312    2.0617    0.7858 C   0  0  0  0  0  0  0  0  0  0  0  0
   -4.5233    3.4552    1.1394 C   0  0  0  0  0  0  0  0  0  0  0  0
   -3.6112    4.3246    1.7891 N   0  0  0  0  0  0  0  0  0  0  0  0
   -5.6602    3.8726    0.8670 O   0  0  0  0  0  0  0  0  0  0  0  0
   -7.9310   -0.3047    0.1912 C   0  0  0  0  0  0  0  0  0  0  0  0
   -8.1566   -1.6902    0.2146 C   0  0  0  0  0  0  0  0  0  0  0  0
   -9.0581   -2.2405    1.0931 C   0  0  0  0  0  0  0  0  0  0  0  0
   -9.7638   -1.4486    1.9734 C   0  0  0  0  0  0  0  0  0  0  0  0
   -9.5708   -0.1049    1.9780 C   0  0  0  0  0  0  0  0  0  0  0  0
   -8.6519    0.4420    1.0798 C   0  0  0  0  0  0  0  0  0  0  0  0
   -8.4514    2.1755    1.1044 Cl  0  0  0  0  0  0  0  0  0  0  0  0
   -8.6741    1.2063   -1.6809 H   0  0  0  0  0  0  0  0  0  0  0  0
   -7.7928    0.1346   -2.7862 H   0  0  0  0  0  0  0  0  0  0  0  0
   -7.1089    1.7209   -2.3877 H   0  0  0  0  0  0  0  0  0  0  0  0
   -6.3040   -0.6047   -1.1677 H   0  0  0  0  0  0  0  0  0  0  0  0
   -4.5400   -0.9995   -0.4281 H   0  0  0  0  0  0  0  0  0  0  0  0
   -3.1647   -2.9395    0.6267 H   0  0  0  0  0  0  0  0  0  0  0  0
    1.7447   -3.6643   -0.2706 H   0  0  0  0  0  0  0  0  0  0  0  0
    3.2977   -3.6739   -1.7160 H   0  0  0  0  0  0  0  0  0  0  0  0
    5.6528   -4.0081   -2.1405 H   0  0  0  0  0  0  0  0  0  0  0  0
    8.4809    0.0800   -1.4251 H   0  0  0  0  0  0  0  0  0  0  0  0
    8.5035   -1.4450   -0.3958 H   0  0  0  0  0  0  0  0  0  0  0  0
    8.6529   -0.0641    1.6225 H   0  0  0  0  0  0  0  0  0  0  0  0
   10.1396    0.0668    0.5910 H   0  0  0  0  0  0  0  0  0  0  0  0
    9.7464    1.8066   -1.2640 H   0  0  0  0  0  0  0  0  0  0  0  0
    9.5514    3.4303   -0.4630 H   0  0  0  0  0  0  0  0  0  0  0  0
   10.8484    2.2293    0.0688 H   0  0  0  0  0  0  0  0  0  0  0  0
    7.3037    3.0341    0.9644 H   0  0  0  0  0  0  0  0  0  0  0  0
    7.5072    2.5023   -0.7524 H   0  0  0  0  0  0  0  0  0  0  0  0
    6.2930    0.9486    1.6022 H   0  0  0  0  0  0  0  0  0  0  0  0
    5.5872    1.5012    0.0616 H   0  0  0  0  0  0  0  0  0  0  0  0
    4.2007    0.0166    0.1872 H   0  0  0  0  0  0  0  0  0  0  0  0
    2.3180    0.4990   -0.6174 H   0  0  0  0  0  0  0  0  0  0  0  0
   -0.1193    0.9022   -0.1746 H   0  0  0  0  0  0  0  0  0  0  0  0
   -3.3665    5.2207    1.3077 H   0  0  0  0  0  0  0  0  0  0  0  0
   -3.2117    4.0623    2.7097 H   0  0  0  0  0  0  0  0  0  0  0  0
   -7.5867   -2.2947   -0.4907 H   0  0  0  0  0  0  0  0  0  0  0  0
   -9.2292   -3.3156    1.1068 H   0  0  0  0  0  0  0  0  0  0  0  0
  -10.4825   -1.8621    2.6785 H   0  0  0  0  0  0  0  0  0  0  0  0
  -10.1148    0.5324    2.6610 H   0  0  0  0  0  0  0  0  0  0  0  0
  1  2  1  0
  2  3  1  0
  3  4  1  0
  4  5  1  0
  5  6  2  0
  6  7  1  0
  7  8  1  0
  8  9  2  0
  9 10  1  0
 10 11  2  0
 11 12  1  0
 12 13  1  0
 13 14  2  0
 14 15  1  0
 15 16  2  0
 16 17  1  0
 17 18  1  0
 18 19  1  0
 19 20  1  0
 20 21  1  0
 21 22  1  0
 21 23  1  0
 23 24  1  0
 17 25  2  0
 12 26  2  0
 26 27  1  0
 27 28  2  0
  6 29  1  0
 29 30  1  0
 30 31  1  0
 31 32  1  0
 31 33  2  0
  2 34  1  0
 34 35  2  0
 35 36  1  0
 36 37  2  0
 37 38  1  0
 38 39  2  0
 39 40  1  0
 30  4  2  0
 39 34  1  0
 28  7  1  0
 28 10  1  0
 25 13  1  0
 24 18  1  0
  1 41  1  0
  1 42  1  0
  1 43  1  0
  2 44  1  6
  5 45  1  0
  8 46  1  0
 11 47  1  0
 14 48  1  0
 15 49  1  0
 19 50  1  0
 19 51  1  0
 20 52  1  0
 20 53  1  0
 22 54  1  0
 22 55  1  0
 22 56  1  0
 23 57  1  0
 23 58  1  0
 24 59  1  0
 24 60  1  0
 25 61  1  0
 26 62  1  0
 27 63  1  0
 32 64  1  0
 32 65  1  0
 35 66  1  0
 36 67  1  0
 37 68  1  0
 38 69  1  0
M  END
$$$$
