@<TRIPOS>MOLECULE
*****
 52 56 0 0 0
SMALL
GASTEIGER

@<TRIPOS>ATOM
      1 F          -6.5467   -2.6787    1.7520 F       1  UNL1       -0.1659
      2 C          -5.5254   -1.8422    1.2846 C.3     1  UNL1        0.4180
      3 F          -4.5611   -2.6956    0.7286 F       1  UNL1       -0.1659
      4 F          -5.0249   -1.1770    2.3511 F       1  UNL1       -0.1659
      5 C          -6.0091   -0.9982    0.1731 C.ar    1  UNL1        0.0625
      6 C          -7.3476   -1.1741   -0.2223 C.ar    1  UNL1       -0.0495
      7 C          -7.8427   -0.4407   -1.2740 C.ar    1  UNL1       -0.0612
      8 C          -7.0161    0.4525   -1.9196 C.ar    1  UNL1       -0.0612
      9 C          -5.7051    0.6180   -1.5236 C.ar    1  UNL1       -0.0535
     10 C          -5.1902   -0.1233   -0.4531 C.ar    1  UNL1       -0.0062
     11 C          -3.8269    0.1068   -0.0505 C.ar    1  UNL1       -0.0147
     12 C          -3.5042    0.7846    1.0996 C.ar    1  UNL1       -0.0403
     13 C          -2.1813    0.9818    1.4987 C.ar    1  UNL1        0.0807
     14 C          -1.8371    1.7149    2.7445 C.3     1  UNL1        0.4194
     15 F          -1.0697    2.8030    2.3653 F       1  UNL1       -0.1658
     16 F          -2.9526    2.0876    3.4503 F       1  UNL1       -0.1658
     17 F          -1.0504    0.9500    3.5838 F       1  UNL1       -0.1658
     18 C          -1.1436    0.4955    0.7382 C.ar    1  UNL1        0.0783
     19 N           0.2047    0.5137    0.8382 N.ar    1  UNL1       -0.3364
     20 C           0.7605   -0.1217   -0.1974 C.ar    1  UNL1        0.1568
     21 C           2.2143   -0.2911   -0.4063 C.2     1  UNL1        0.1259
     22 N           2.7856   -1.2273   -1.0441 N.2     1  UNL1       -0.0852
     23 O           4.1567   -1.0787   -1.0440 O.2     1  UNL1       -0.3865
     24 C           4.5450    0.0112   -0.2427 C.3     1  UNL1        0.1443
     25 C           5.3919    1.0120   -0.9586 C.3     1  UNL1       -0.0100
     26 C           6.8455    0.8319   -0.5724 C.3     1  UNL1       -0.0493
     27 C           7.1916   -0.6350   -0.4209 C.3     1  UNL1       -0.0528
     28 C           6.4705   -1.2491    0.7457 C.3     1  UNL1       -0.0493
     29 C           5.2279   -0.4366    1.0347 C.3     1  UNL1       -0.0100
     30 C           3.2425    0.6454    0.1211 C.3     1  UNL1        0.0388
     31 N          -0.2381   -0.5551   -0.9750 N.ar    1  UNL1       -0.2264
     32 C          -1.4319   -0.1876   -0.4210 C.ar    1  UNL1        0.0906
     33 C          -2.7434   -0.3721   -0.7973 C.ar    1  UNL1       -0.0265
     34 H          -7.9755   -1.8794    0.2985 H       1  UNL1        0.0623
     35 H          -8.8774   -0.5532   -1.6062 H       1  UNL1        0.0618
     36 H          -7.4426    1.0138   -2.7464 H       1  UNL1        0.0618
     37 H          -5.0511    1.3179   -2.0268 H       1  UNL1        0.0624
     38 H          -4.2667    1.2138    1.7343 H       1  UNL1        0.0630
     39 H           0.6971    0.9807    1.6459 H       1  UNL1        0.1674
     40 H           5.0960    2.0333   -0.5830 H       1  UNL1        0.0305
     41 H           5.2402    1.0376   -2.0435 H       1  UNL1        0.0305
     42 H           7.4549    1.2696   -1.3773 H       1  UNL1        0.0267
     43 H           7.0432    1.3028    0.4218 H       1  UNL1        0.0267
     44 H           6.9482   -1.2275   -1.3238 H       1  UNL1        0.0265
     45 H           8.2869   -0.6832   -0.2125 H       1  UNL1        0.0265
     46 H           7.1209   -1.2657    1.6439 H       1  UNL1        0.0267
     47 H           6.1575   -2.2913    0.5576 H       1  UNL1        0.0267
     48 H           4.5287   -0.9579    1.7249 H       1  UNL1        0.0305
     49 H           5.5587    0.4842    1.5594 H       1  UNL1        0.0305
     50 H           3.1060    0.7649    1.2191 H       1  UNL1        0.0370
     51 H           3.0682    1.6284   -0.3686 H       1  UNL1        0.0370
     52 H          -2.9820   -0.9137   -1.7168 H       1  UNL1        0.0645
@<TRIPOS>BOND
     1     1     2    1
     2     2     3    1
     3     2     4    1
     4     2     5    1
     5     5     6   ar
     6     6     7   ar
     7     7     8   ar
     8     8     9   ar
     9     9    10   ar
    10    10    11    1
    11    11    12   ar
    12    12    13   ar
    13    13    14    1
    14    14    15    1
    15    14    16    1
    16    14    17    1
    17    13    18   ar
    18    18    19   ar
    19    19    20   ar
    20    20    21    1
    21    21    22    2
    22    22    23    1
    23    23    24    1
    24    24    25    1
    25    25    26    1
    26    26    27    1
    27    27    28    1
    28    28    29    1
    29    24    30    1
    30    20    31   ar
    31    31    32   ar
    32    32    33   ar
    33    10     5   ar
    34    33    11   ar
    35    32    18   ar
    36    30    21    1
    37    29    24    1
    38     6    34    1
    39     7    35    1
    40     8    36    1
    41     9    37    1
    42    12    38    1
    43    19    39    1
    44    25    40    1
    45    25    41    1
    46    26    42    1
    47    26    43    1
    48    27    44    1
    49    27    45    1
    50    28    46    1
    51    28    47    1
    52    29    48    1
    53    29    49    1
    54    30    50    1
    55    30    51    1
    56    33    52    1
