@<TRIPOS>MOLECULE
*****
 29 30 0 0 0
SMALL
GASTEIGER

@<TRIPOS>ATOM
      1 O           6.1880   -0.2288   -0.1255 O.3     1  UNL1       -0.5068
      2 C           4.7953   -0.2018   -0.2250 C.ar    1  UNL1        0.1169
      3 C           4.0204   -0.0220    0.8977 C.ar    1  UNL1       -0.0196
      4 C           2.6195    0.0070    0.8106 C.ar    1  UNL1       -0.0511
      5 C           1.9729   -0.1411   -0.3841 C.ar    1  UNL1       -0.0248
      6 C           0.5219   -0.1201   -0.5389 C.2     1  UNL1       -0.0540
      7 C          -0.2919    0.0455    0.4744 C.2     1  UNL1       -0.0538
      8 C          -1.7378    0.0712    0.3545 C.ar    1  UNL1       -0.0181
      9 C          -2.5290    0.2523    1.4843 C.ar    1  UNL1       -0.0128
     10 C          -3.9026    0.2785    1.3828 C.ar    1  UNL1        0.1209
     11 O          -4.6397    0.4623    2.5425 O.3     1  UNL1       -0.5066
     12 C          -4.5369    0.1261    0.1590 C.ar    1  UNL1        0.0213
     13 C          -3.7802   -0.0539   -0.9695 C.ar    1  UNL1        0.1209
     14 O          -4.3865   -0.2108   -2.2196 O.3     1  UNL1       -0.5066
     15 C          -2.3958   -0.0768   -0.8419 C.ar    1  UNL1       -0.0128
     16 C           2.7699   -0.3233   -1.5200 C.ar    1  UNL1       -0.0511
     17 C           4.1452   -0.3513   -1.4309 C.ar    1  UNL1       -0.0196
     18 H           6.6394    0.5462    0.3825 H       1  UNL1        0.2921
     19 H           4.5034    0.0982    1.8587 H       1  UNL1        0.0654
     20 H           2.0561    0.1499    1.7147 H       1  UNL1        0.0625
     21 H           0.0704   -0.2456   -1.5314 H       1  UNL1        0.0624
     22 H           0.0936    0.1759    1.4885 H       1  UNL1        0.0624
     23 H          -2.0379    0.3703    2.4311 H       1  UNL1        0.0660
     24 H          -4.7613    1.4274    2.8517 H       1  UNL1        0.2921
     25 H          -5.6072    0.1443    0.0644 H       1  UNL1        0.0691
     26 H          -4.9623   -1.0244   -2.4049 H       1  UNL1        0.2921
     27 H          -1.8494   -0.2228   -1.7720 H       1  UNL1        0.0660
     28 H           2.2539   -0.4402   -2.4638 H       1  UNL1        0.0625
     29 H           4.7684   -0.4922   -2.3075 H       1  UNL1        0.0654
@<TRIPOS>BOND
     1     1     2    1
     2     2     3   ar
     3     3     4   ar
     4     4     5   ar
     5     5     6    1
     6     6     7    2
     7     7     8    1
     8     8     9   ar
     9     9    10   ar
    10    10    11    1
    11    10    12   ar
    12    12    13   ar
    13    13    14    1
    14    13    15   ar
    15     5    16   ar
    16    16    17   ar
    17    17     2   ar
    18    15     8   ar
    19     1    18    1
    20     3    19    1
    21     4    20    1
    22     6    21    1
    23     7    22    1
    24     9    23    1
    25    11    24    1
    26    12    25    1
    27    14    26    1
    28    15    27    1
    29    16    28    1
    30    17    29    1
