@<TRIPOS>MOLECULE
*****
 52 57 0 0 0
SMALL
GASTEIGER

@<TRIPOS>ATOM
      1 C          -4.2712    0.6430   -1.3563 C.3     1  UNL1       -0.0203
      2 C          -3.4966   -0.2494   -0.4483 C.ar    1  UNL1        0.0660
      3 N          -4.0267   -1.1114    0.4387 N.ar    1  UNL1       -0.1752
      4 N          -3.0826   -1.7525    1.0879 N.ar    1  UNL1       -0.2556
      5 C          -3.2336   -2.7587    2.1201 C.3     1  UNL1        0.0537
      6 C          -3.6183   -4.1610    1.5792 C.3     1  UNL1       -0.0285
      7 C          -4.5649   -3.3428    2.3937 C.3     1  UNL1       -0.0285
      8 C          -1.8808   -1.3281    0.6435 C.ar    1  UNL1        0.1297
      9 C          -2.1321   -0.3753   -0.3300 C.ar    1  UNL1        0.0305
     10 C          -0.8250    0.1231   -0.8396 C.3     1  UNL1        0.0881
     11 C          -0.7323    1.5800   -0.7397 C.ar    1  UNL1        0.0132
     12 C          -0.6810    2.3341   -1.9106 C.ar    1  UNL1       -0.0510
     13 C          -0.5887    3.7125   -1.8949 C.ar    1  UNL1       -0.0259
     14 C          -0.5438    4.3934   -0.6946 C.ar    1  UNL1        0.1261
     15 F          -0.4535    5.7406   -0.6063 F       1  UNL1       -0.2054
     16 C          -0.5941    3.6563    0.4626 C.ar    1  UNL1        0.0091
     17 C          -0.6860    2.2851    0.4285 C.ar    1  UNL1        0.1314
     18 F          -0.7366    1.6203    1.6048 F       1  UNL1       -0.2050
     19 N           0.1747   -0.6117   -0.1254 N.am    1  UNL1       -0.2530
     20 C           1.5816   -0.5123   -0.2844 C.ar    1  UNL1        0.0545
     21 C           2.2468   -1.3005   -1.2008 C.ar    1  UNL1       -0.0324
     22 C           3.6278   -1.2267   -1.3794 C.ar    1  UNL1       -0.0041
     23 C           4.3391   -2.0818   -2.3715 C.3     1  UNL1       -0.0361
     24 C           4.2890   -0.3186   -0.5850 C.ar    1  UNL1        0.1641
     25 N           5.6117   -0.0419   -0.5485 N.ar    1  UNL1       -0.1292
     26 N           5.8243    0.9021    0.3641 N.ar    1  UNL1       -0.1340
     27 C           4.6199    1.2133    0.8985 C.ar    1  UNL1        0.1347
     28 C           4.3210    2.2110    1.9588 C.3     1  UNL1       -0.0041
     29 N           3.6833    0.4545    0.3052 N.ar    1  UNL1       -0.2846
     30 C           2.3378    0.3641    0.4605 C.ar    1  UNL1        0.0344
     31 C          -0.4330   -1.5050    0.8025 C.2     1  UNL1        0.2700
     32 O           0.1220   -2.2987    1.6097 O.2     1  UNL1       -0.2679
     33 H          -5.1350    0.1101   -1.8172 H       1  UNL1        0.0293
     34 H          -3.6353    1.0475   -2.1565 H       1  UNL1        0.0293
     35 H          -4.7391    1.4839   -0.7717 H       1  UNL1        0.0293
     36 H          -2.5212   -2.7476    2.9615 H       1  UNL1        0.0545
     37 H          -3.1116   -5.0093    2.0586 H       1  UNL1        0.0286
     38 H          -3.8440   -4.2253    0.4927 H       1  UNL1        0.0286
     39 H          -4.8138   -3.7256    3.3901 H       1  UNL1        0.0286
     40 H          -5.4123   -2.8277    1.8619 H       1  UNL1        0.0286
     41 H          -0.7933   -0.1931   -1.9184 H       1  UNL1        0.0607
     42 H          -0.7137    1.8369   -2.8703 H       1  UNL1        0.0623
     43 H          -0.5498    4.2845   -2.7981 H       1  UNL1        0.0646
     44 H          -0.5599    4.1754    1.4195 H       1  UNL1        0.0675
     45 H           1.7093   -2.0027   -1.8103 H       1  UNL1        0.0640
     46 H           4.4260   -1.5322   -3.3327 H       1  UNL1        0.0279
     47 H           5.3215   -2.3462   -1.9360 H       1  UNL1        0.0279
     48 H           3.6999   -2.9707   -2.5399 H       1  UNL1        0.0279
     49 H           3.3980    1.9048    2.5236 H       1  UNL1        0.0308
     50 H           4.0834    3.1941    1.5034 H       1  UNL1        0.0308
     51 H           5.1483    2.2808    2.6985 H       1  UNL1        0.0308
     52 H           1.8444    1.0053    1.1982 H       1  UNL1        0.0833
@<TRIPOS>BOND
     1     1     2    1
     2     2     3   ar
     3     3     4   ar
     4     4     5    1
     5     5     6    1
     6     6     7    1
     7     4     8   ar
     8     8     9   ar
     9     9    10    1
    10    10    11    1
    11    11    12   ar
    12    12    13   ar
    13    13    14   ar
    14    14    15    1
    15    14    16   ar
    16    16    17   ar
    17    17    18    1
    18    10    19    1
    19    19    20    1
    20    20    21   ar
    21    21    22   ar
    22    22    23    1
    23    22    24   ar
    24    24    25   ar
    25    25    26   ar
    26    26    27   ar
    27    27    28    1
    28    27    29   ar
    29    29    30   ar
    30    19    31   am
    31    31    32    2
    32     9     2   ar
    33    17    11   ar
    34    30    20   ar
    35     7     5    1
    36    31     8    1
    37    29    24   ar
    38     1    33    1
    39     1    34    1
    40     1    35    1
    41     5    36    1
    42     6    37    1
    43     6    38    1
    44     7    39    1
    45     7    40    1
    46    10    41    1
    47    12    42    1
    48    13    43    1
    49    16    44    1
    50    21    45    1
    51    23    46    1
    52    23    47    1
    53    23    48    1
    54    28    49    1
    55    28    50    1
    56    28    51    1
    57    30    52    1
