
     RDKit          3D

 52 57  0  0  0  0  0  0  0  0999 V2000
   -4.2712    0.6430   -1.3563 C   0  0  0  0  0  0  0  0  0  0  0  0
   -3.4966   -0.2494   -0.4483 C   0  0  0  0  0  0  0  0  0  0  0  0
   -4.0267   -1.1114    0.4387 N   0  0  0  0  0  0  0  0  0  0  0  0
   -3.0826   -1.7525    1.0879 N   0  0  0  0  0  0  0  0  0  0  0  0
   -3.2336   -2.7587    2.1201 C   0  0  0  0  0  0  0  0  0  0  0  0
   -3.6183   -4.1610    1.5792 C   0  0  0  0  0  0  0  0  0  0  0  0
   -4.5649   -3.3428    2.3937 C   0  0  0  0  0  0  0  0  0  0  0  0
   -1.8808   -1.3281    0.6435 C   0  0  0  0  0  0  0  0  0  0  0  0
   -2.1321   -0.3753   -0.3300 C   0  0  0  0  0  0  0  0  0  0  0  0
   -0.8250    0.1231   -0.8396 C   0  0  0  0  0  0  0  0  0  0  0  0
   -0.7323    1.5800   -0.7397 C   0  0  0  0  0  0  0  0  0  0  0  0
   -0.6810    2.3341   -1.9106 C   0  0  0  0  0  0  0  0  0  0  0  0
   -0.5887    3.7125   -1.8949 C   0  0  0  0  0  0  0  0  0  0  0  0
   -0.5438    4.3934   -0.6946 C   0  0  0  0  0  0  0  0  0  0  0  0
   -0.4535    5.7406   -0.6063 F   0  0  0  0  0  0  0  0  0  0  0  0
   -0.5941    3.6563    0.4626 C   0  0  0  0  0  0  0  0  0  0  0  0
   -0.6860    2.2851    0.4285 C   0  0  0  0  0  0  0  0  0  0  0  0
   -0.7366    1.6203    1.6048 F   0  0  0  0  0  0  0  0  0  0  0  0
    0.1747   -0.6117   -0.1254 N   0  0  0  0  0  0  0  0  0  0  0  0
    1.5816   -0.5123   -0.2844 C   0  0  0  0  0  0  0  0  0  0  0  0
    2.2468   -1.3005   -1.2008 C   0  0  0  0  0  0  0  0  0  0  0  0
    3.6278   -1.2267   -1.3794 C   0  0  0  0  0  0  0  0  0  0  0  0
    4.3391   -2.0818   -2.3715 C   0  0  0  0  0  0  0  0  0  0  0  0
    4.2890   -0.3186   -0.5850 C   0  0  0  0  0  0  0  0  0  0  0  0
    5.6117   -0.0419   -0.5485 N   0  0  0  0  0  0  0  0  0  0  0  0
    5.8243    0.9021    0.3641 N   0  0  0  0  0  0  0  0  0  0  0  0
    4.6199    1.2133    0.8985 C   0  0  0  0  0  0  0  0  0  0  0  0
    4.3210    2.2110    1.9588 C   0  0  0  0  0  0  0  0  0  0  0  0
    3.6833    0.4545    0.3052 N   0  0  0  0  0  0  0  0  0  0  0  0
    2.3378    0.3641    0.4605 C   0  0  0  0  0  0  0  0  0  0  0  0
   -0.4330   -1.5050    0.8025 C   0  0  0  0  0  0  0  0  0  0  0  0
    0.1220   -2.2987    1.6097 O   0  0  0  0  0  0  0  0  0  0  0  0
   -5.1350    0.1101   -1.8172 H   0  0  0  0  0  0  0  0  0  0  0  0
   -3.6353    1.0475   -2.1565 H   0  0  0  0  0  0  0  0  0  0  0  0
   -4.7391    1.4839   -0.7717 H   0  0  0  0  0  0  0  0  0  0  0  0
   -2.5212   -2.7476    2.9615 H   0  0  0  0  0  0  0  0  0  0  0  0
   -3.1116   -5.0093    2.0586 H   0  0  0  0  0  0  0  0  0  0  0  0
   -3.8440   -4.2253    0.4927 H   0  0  0  0  0  0  0  0  0  0  0  0
   -4.8138   -3.7256    3.3901 H   0  0  0  0  0  0  0  0  0  0  0  0
   -5.4123   -2.8277    1.8619 H   0  0  0  0  0  0  0  0  0  0  0  0
   -0.7933   -0.1931   -1.9184 H   0  0  0  0  0  0  0  0  0  0  0  0
   -0.7137    1.8369   -2.8703 H   0  0  0  0  0  0  0  0  0  0  0  0
   -0.5498    4.2845   -2.7981 H   0  0  0  0  0  0  0  0  0  0  0  0
   -0.5599    4.1754    1.4195 H   0  0  0  0  0  0  0  0  0  0  0  0
    1.7093   -2.0027   -1.8103 H   0  0  0  0  0  0  0  0  0  0  0  0
    4.4260   -1.5322   -3.3327 H   0  0  0  0  0  0  0  0  0  0  0  0
    5.3215   -2.3462   -1.9360 H   0  0  0  0  0  0  0  0  0  0  0  0
    3.6999   -2.9707   -2.5399 H   0  0  0  0  0  0  0  0  0  0  0  0
    3.3980    1.9048    2.5236 H   0  0  0  0  0  0  0  0  0  0  0  0
    4.0834    3.1941    1.5034 H   0  0  0  0  0  0  0  0  0  0  0  0
    5.1483    2.2808    2.6985 H   0  0  0  0  0  0  0  0  0  0  0  0
    1.8444    1.0053    1.1982 H   0  0  0  0  0  0  0  0  0  0  0  0
  1  2  1  0
  2  3  2  0
  3  4  1  0
  4  5  1  0
  5  6  1  0
  6  7  1  0
  4  8  1  0
  8  9  2  0
  9 10  1  0
 10 11  1  0
 11 12  2  0
 12 13  1  0
 13 14  2  0
 14 15  1  0
 14 16  1  0
 16 17  2  0
 17 18  1  0
 10 19  1  0
 19 20  1  0
 20 21  1  0
 21 22  2  0
 22 23  1  0
 22 24  1  0
 24 25  2  0
 25 26  1  0
 26 27  2  0
 27 28  1  0
 27 29  1  0
 29 30  1  0
 19 31  1  0
 31 32  2  0
  9  2  1  0
 17 11  1  0
 30 20  2  0
  7  5  1  0
 31  8  1  0
 29 24  1  0
  1 33  1  0
  1 34  1  0
  1 35  1  0
  5 36  1  0
  6 37  1  0
  6 38  1  0
  7 39  1  0
  7 40  1  0
 10 41  1  0
 12 42  1  0
 13 43  1  0
 16 44  1  0
 21 45  1  0
 23 46  1  0
 23 47  1  0
 23 48  1  0
 28 49  1  0
 28 50  1  0
 28 51  1  0
 30 52  1  0
M  END
$$$$
