@<TRIPOS>MOLECULE
*****
 38 38 0 0 0
SMALL
GASTEIGER

@<TRIPOS>ATOM
      1 C          -3.1483   -1.7616   -1.3249 C.3     1  UNL1       -0.0653
      2 C          -2.2861   -2.1468   -0.1678 C.3     1  UNL1       -0.0559
      3 C          -0.9123   -1.4526   -0.3092 C.3     1  UNL1       -0.0515
      4 C          -1.2002    0.0034   -0.3143 C.3     1  UNL1       -0.0299
      5 C          -0.1188    0.9637   -0.4616 C.3     1  UNL1        0.0902
      6 C          -0.7321    2.3785   -0.4265 C.3     1  UNL1        0.0485
      7 C          -1.4108    2.6331    0.8520 C.2     1  UNL1        0.2373
      8 O          -1.4707    1.9029    1.8487 O.2     1  UNL1       -0.2737
      9 N          -2.1037    3.9026    0.9712 N.am    1  UNL1       -0.1974
     10 O          -2.7455    4.1930    2.1217 O.3     1  UNL1       -0.2952
     11 S           1.2618    0.9664    0.5609 S.O2    1  UNL1        0.0002
     12 O           2.1074    2.2077    0.2747 O.2     1  UNL1       -0.1691
     13 O           0.9743    1.0389    2.0305 O.2     1  UNL1       -0.1691
     14 C           2.3516   -0.3845    0.3246 C.ar    1  UNL1        0.0885
     15 C           2.3652   -1.5013    1.1132 C.ar    1  UNL1       -0.0369
     16 C           3.2234   -2.5543    0.9194 C.ar    1  UNL1       -0.0600
     17 C           4.1363   -2.5325   -0.1087 C.ar    1  UNL1       -0.0616
     18 C           4.1393   -1.4157   -0.9157 C.ar    1  UNL1       -0.0600
     19 C           3.2830   -0.3622   -0.7243 C.ar    1  UNL1       -0.0369
     20 H          -3.7118   -0.8318   -1.0647 H       1  UNL1        0.0230
     21 H          -2.5443   -1.4983   -2.2199 H       1  UNL1        0.0230
     22 H          -3.9231   -2.5225   -1.5534 H       1  UNL1        0.0230
     23 H          -2.7320   -1.7369    0.7621 H       1  UNL1        0.0263
     24 H          -2.1637   -3.2250   -0.0299 H       1  UNL1        0.0263
     25 H          -0.4058   -1.8124   -1.2151 H       1  UNL1        0.0266
     26 H          -0.3673   -1.8094    0.5796 H       1  UNL1        0.0266
     27 H          -1.9429    0.1839    0.5124 H       1  UNL1        0.0284
     28 H          -1.8730    0.1566   -1.2330 H       1  UNL1        0.0284
     29 H           0.2651    0.9215   -1.5420 H       1  UNL1        0.0545
     30 H          -1.5119    2.4081   -1.2338 H       1  UNL1        0.0378
     31 H           0.0555    3.1306   -0.6607 H       1  UNL1        0.0378
     32 H          -2.0971    4.5767    0.1640 H       1  UNL1        0.1822
     33 H          -2.5605    5.1545    2.3275 H       1  UNL1        0.2414
     34 H           1.6506   -1.5347    1.9298 H       1  UNL1        0.0636
     35 H           3.1921   -3.4269    1.5820 H       1  UNL1        0.0618
     36 H           4.8203   -3.3567   -0.2740 H       1  UNL1        0.0618
     37 H           4.8553   -1.3790   -1.7361 H       1  UNL1        0.0618
     38 H           3.2808    0.5228   -1.3588 H       1  UNL1        0.0636
@<TRIPOS>BOND
     1     1     2    1
     2     2     3    1
     3     3     4    1
     4     4     5    1
     5     5     6    1
     6     6     7    1
     7     7     8    2
     8     7     9   am
     9     9    10    1
    10     5    11    1
    11    11    12    2
    12    11    13    2
    13    11    14    1
    14    14    15   ar
    15    15    16   ar
    16    16    17   ar
    17    17    18   ar
    18    18    19   ar
    19    19    14   ar
    20     1    20    1
    21     1    21    1
    22     1    22    1
    23     2    23    1
    24     2    24    1
    25     3    25    1
    26     3    26    1
    27     4    27    1
    28     4    28    1
    29     5    29    1
    30     6    30    1
    31     6    31    1
    32     9    32    1
    33    10    33    1
    34    15    34    1
    35    16    35    1
    36    17    36    1
    37    18    37    1
    38    19    38    1
