@<TRIPOS>MOLECULE
*****
 49 51 0 0 0
SMALL
GASTEIGER

@<TRIPOS>ATOM
      1 C           7.5818    0.5000   -0.9519 C.3     1  UNL1       -0.0307
      2 C           7.4327   -0.9739   -0.6829 C.3     1  UNL1        0.0868
      3 O           6.3702   -1.2193    0.2065 O.3     1  UNL1       -0.4922
      4 C           5.0501   -0.8793   -0.0366 C.ar    1  UNL1        0.1225
      5 C           4.5982   -0.2589   -1.1808 C.ar    1  UNL1       -0.0193
      6 C           3.2396    0.0389   -1.3202 C.ar    1  UNL1       -0.0491
      7 C           2.3182   -0.2689   -0.3419 C.ar    1  UNL1        0.0012
      8 C           0.9635    0.0406   -0.5077 C.ar    1  UNL1       -0.0418
      9 C           0.0739   -0.2777    0.4836 C.ar    1  UNL1        0.0216
     10 C          -1.3506    0.0360    0.3996 C.ar    1  UNL1        0.1082
     11 N          -2.3773   -0.8380    0.5710 N.ar    1  UNL1       -0.1682
     12 N          -3.5410   -0.2344    0.4467 N.ar    1  UNL1       -0.2444
     13 C          -4.8795   -0.7871    0.5523 C.3     1  UNL1        0.0573
     14 C          -5.5376   -0.8863   -0.8038 C.3     1  UNL1       -0.0402
     15 C          -5.7598    0.0956    1.4274 C.3     1  UNL1       -0.0402
     16 C          -4.8637   -2.1729    1.1550 C.3     1  UNL1       -0.0402
     17 C          -3.3128    1.0624    0.1890 C.ar    1  UNL1        0.1279
     18 N          -4.2589    2.1013   -0.0221 N.pl3   1  UNL1       -0.3427
     19 C          -1.9202    1.2639    0.1544 C.ar    1  UNL1        0.1031
     20 C          -1.2903    2.5528   -0.0797 C.2     1  UNL1        0.2470
     21 N           0.1076    2.7161   -0.0239 N.am    1  UNL1       -0.3252
     22 O          -1.9783    3.5705   -0.3383 O.2     1  UNL1       -0.2702
     23 C           0.5521   -0.8978    1.6161 C.ar    1  UNL1        0.0375
     24 N           1.8719   -1.1931    1.7634 N.ar    1  UNL1       -0.2542
     25 C           2.7656   -0.8904    0.8057 C.ar    1  UNL1        0.0745
     26 C           4.1141   -1.1827    0.9375 C.ar    1  UNL1        0.0060
     27 H           7.5821    0.7170   -2.0501 H       1  UNL1        0.0262
     28 H           6.7808    1.0952   -0.4319 H       1  UNL1        0.0262
     29 H           8.5410    0.8657   -0.4972 H       1  UNL1        0.0262
     30 H           7.3161   -1.5446   -1.6307 H       1  UNL1        0.0694
     31 H           8.3686   -1.3363   -0.2093 H       1  UNL1        0.0694
     32 H           5.3063   -0.0154   -1.9518 H       1  UNL1        0.0654
     33 H           2.8768    0.5252   -2.2138 H       1  UNL1        0.0625
     34 H           0.6840    0.5079   -1.4401 H       1  UNL1        0.0631
     35 H          -6.0442    0.0353   -1.1008 H       1  UNL1        0.0253
     36 H          -4.8247   -1.2521   -1.5787 H       1  UNL1        0.0253
     37 H          -6.3210   -1.6930   -0.7372 H       1  UNL1        0.0253
     38 H          -6.2559    0.8340    0.7415 H       1  UNL1        0.0253
     39 H          -5.1110    0.6180    2.1681 H       1  UNL1        0.0253
     40 H          -6.5032   -0.5557    1.9016 H       1  UNL1        0.0253
     41 H          -4.4410   -2.9374    0.5047 H       1  UNL1        0.0253
     42 H          -5.9386   -2.4464    1.3265 H       1  UNL1        0.0253
     43 H          -4.3852   -2.0897    2.1502 H       1  UNL1        0.0253
     44 H          -4.6898    2.6535    0.7430 H       1  UNL1        0.1437
     45 H          -4.5152    2.2963   -1.0202 H       1  UNL1        0.1437
     46 H           0.6191    2.9922   -0.8964 H       1  UNL1        0.1453
     47 H           0.6356    2.5625    0.8860 H       1  UNL1        0.1453
     48 H          -0.0892   -1.1820    2.4441 H       1  UNL1        0.0836
     49 H           4.4390   -1.6681    1.8427 H       1  UNL1        0.0676
@<TRIPOS>BOND
     1     1     2    1
     2     2     3    1
     3     3     4    1
     4     4     5   ar
     5     5     6   ar
     6     6     7   ar
     7     7     8   ar
     8     8     9   ar
     9     9    10    1
    10    10    11   ar
    11    11    12   ar
    12    12    13    1
    13    13    14    1
    14    13    15    1
    15    13    16    1
    16    12    17   ar
    17    17    18    1
    18    17    19   ar
    19    19    20    1
    20    20    21   am
    21    20    22    2
    22     9    23   ar
    23    23    24   ar
    24    24    25   ar
    25    25    26   ar
    26    26     4   ar
    27    25     7   ar
    28    19    10   ar
    29     1    27    1
    30     1    28    1
    31     1    29    1
    32     2    30    1
    33     2    31    1
    34     5    32    1
    35     6    33    1
    36     8    34    1
    37    14    35    1
    38    14    36    1
    39    14    37    1
    40    15    38    1
    41    15    39    1
    42    15    40    1
    43    16    41    1
    44    16    42    1
    45    16    43    1
    46    18    44    1
    47    18    45    1
    48    21    46    1
    49    21    47    1
    50    23    48    1
    51    26    49    1
