@<TRIPOS>MOLECULE
*****
 59 61 0 0 0
SMALL
GASTEIGER

@<TRIPOS>ATOM
      1 N          -4.1344    1.0921    1.8958 N.pl3   1  UNL1       -0.3424
      2 C          -4.1572    0.5687    0.5662 C.ar    1  UNL1        0.1320
      3 C          -3.1144   -0.0478   -0.0864 C.ar    1  UNL1        0.0958
      4 C          -1.7681   -0.2953    0.4361 C.2     1  UNL1        0.2490
      5 O          -1.4124    0.0552    1.5816 O.2     1  UNL1       -0.2700
      6 N          -0.8428   -0.9728   -0.4347 N.am    1  UNL1       -0.3081
      7 C           0.5084   -1.2510    0.0092 C.3     1  UNL1        0.0508
      8 C           1.3259   -1.9770   -0.9958 C.3     1  UNL1        0.1917
      9 O           1.4312   -1.2756   -2.2010 O.3     1  UNL1       -0.3774
     10 C           2.6956   -2.2825   -0.4395 C.3     1  UNL1        0.0540
     11 N           3.5070   -1.1254   -0.1301 N.am    1  UNL1       -0.2921
     12 C           3.5358   -0.7400    1.2765 C.3     1  UNL1        0.0383
     13 C           4.6043   -1.5753    2.0150 C.3     1  UNL1        0.0600
     14 O           5.8257   -1.3390    1.4445 O.3     1  UNL1       -0.3935
     15 C           4.2809   -0.4799   -1.1335 C.2     1  UNL1        0.2523
     16 O           4.2631   -0.9538   -2.3026 O.2     1  UNL1       -0.2698
     17 C           5.0830    0.6880   -0.8895 C.ar    1  UNL1        0.1070
     18 C           4.5079    1.9023   -0.5571 C.ar    1  UNL1        0.1383
     19 F           3.1626    1.9576   -0.4720 F       1  UNL1       -0.2046
     20 C           5.3124    3.0074   -0.3404 C.ar    1  UNL1       -0.0255
     21 C           6.6870    2.9549   -0.4426 C.ar    1  UNL1       -0.0563
     22 C           7.2526    1.7294   -0.7782 C.ar    1  UNL1       -0.0255
     23 C           6.4631    0.6213   -0.9963 C.ar    1  UNL1        0.1383
     24 F           7.0031   -0.5901   -1.3309 F       1  UNL1       -0.2046
     25 C           0.7082   -3.3216   -1.2977 C.3     1  UNL1        0.4212
     26 F          -0.5456   -3.3012   -1.7972 F       1  UNL1       -0.1675
     27 F           0.7158   -4.0185   -0.0803 F       1  UNL1       -0.1675
     28 F           1.5360   -4.0575   -2.1398 F       1  UNL1       -0.1675
     29 C          -3.6184   -0.3671   -1.3279 C.ar    1  UNL1        0.0638
     30 N          -4.8915    0.0492   -1.3794 N.ar    1  UNL1       -0.1723
     31 N          -5.2466    0.6274   -0.2279 N.ar    1  UNL1       -0.2182
     32 C          -6.5113    1.1875    0.0959 C.ar    1  UNL1        0.0676
     33 C          -7.5869    0.3406    0.3624 C.ar    1  UNL1       -0.0335
     34 C          -8.8227    0.8618    0.6766 C.ar    1  UNL1       -0.0244
     35 C          -9.0763    2.2145    0.7476 C.ar    1  UNL1        0.1235
     36 F         -10.2945    2.7157    1.0573 F       1  UNL1       -0.2055
     37 C          -8.0027    3.0631    0.4818 C.ar    1  UNL1       -0.0244
     38 C          -6.7635    2.5380    0.1668 C.ar    1  UNL1       -0.0335
     39 H          -3.7302    2.0233    2.1464 H       1  UNL1        0.1437
     40 H          -4.5356    0.5455    2.6957 H       1  UNL1        0.1437
     41 H          -1.1699   -1.2389   -1.3793 H       1  UNL1        0.1491
     42 H           0.4465   -1.7508    0.9870 H       1  UNL1        0.0494
     43 H           1.0245   -0.2541    0.1716 H       1  UNL1        0.0494
     44 H           0.9278   -0.4343   -2.1645 H       1  UNL1        0.2106
     45 H           2.6636   -2.9317    0.4513 H       1  UNL1        0.0496
     46 H           3.2966   -2.8590   -1.2059 H       1  UNL1        0.0496
     47 H           2.5488   -0.9486    1.7342 H       1  UNL1        0.0487
     48 H           3.8083    0.2908    1.4670 H       1  UNL1        0.0487
     49 H           4.2660   -2.6254    1.8749 H       1  UNL1        0.0573
     50 H           4.5967   -1.3151    3.0847 H       1  UNL1        0.0573
     51 H           6.0466   -2.0105    0.7360 H       1  UNL1        0.2095
     52 H           4.8046    3.9311   -0.0838 H       1  UNL1        0.0646
     53 H           7.3132    3.8193   -0.2722 H       1  UNL1        0.0619
     54 H           8.3421    1.6348   -0.8718 H       1  UNL1        0.0646
     55 H          -3.0360   -0.8733   -2.1044 H       1  UNL1        0.0856
     56 H          -7.4082   -0.7249    0.3112 H       1  UNL1        0.0640
     57 H          -9.6763    0.2079    0.8865 H       1  UNL1        0.0647
     58 H          -8.2068    4.1121    0.5398 H       1  UNL1        0.0647
     59 H          -5.9425    3.1982   -0.0367 H       1  UNL1        0.0640
@<TRIPOS>BOND
     1     1     2    1
     2     2     3   ar
     3     3     4    1
     4     4     5    2
     5     4     6   am
     6     6     7    1
     7     7     8    1
     8     8     9    1
     9     8    10    1
    10    10    11    1
    11    11    12    1
    12    12    13    1
    13    13    14    1
    14    11    15   am
    15    15    16    2
    16    15    17    1
    17    17    18   ar
    18    18    19    1
    19    18    20   ar
    20    20    21   ar
    21    21    22   ar
    22    22    23   ar
    23    23    24    1
    24     8    25    1
    25    25    26    1
    26    25    27    1
    27    25    28    1
    28     3    29   ar
    29    29    30   ar
    30    30    31   ar
    31    31    32    1
    32    32    33   ar
    33    33    34   ar
    34    34    35   ar
    35    35    36    1
    36    35    37   ar
    37    37    38   ar
    38    31     2   ar
    39    38    32   ar
    40    23    17   ar
    41     1    39    1
    42     1    40    1
    43     6    41    1
    44     7    42    1
    45     7    43    1
    46     9    44    1
    47    10    45    1
    48    10    46    1
    49    12    47    1
    50    12    48    1
    51    13    49    1
    52    13    50    1
    53    14    51    1
    54    20    52    1
    55    21    53    1
    56    22    54    1
    57    29    55    1
    58    33    56    1
    59    34    57    1
    60    37    58    1
    61    38    59    1
