@<TRIPOS>MOLECULE
*****
 38 40 0 0 0
SMALL
GASTEIGER

@<TRIPOS>ATOM
      1 C          -4.7699    0.3726   -2.5907 C.3     1  UNL1        0.0788
      2 O          -3.9977   -0.7775   -2.4485 O.3     1  UNL1       -0.4951
      3 C          -2.6341   -0.7672   -2.1089 C.ar    1  UNL1        0.1204
      4 C          -1.8847   -1.9014   -1.9712 C.ar    1  UNL1       -0.0193
      5 C          -0.5272   -1.8462   -1.6320 C.ar    1  UNL1       -0.0475
      6 C           0.0972   -0.6480   -1.4251 C.ar    1  UNL1        0.0211
      7 C          -0.6584    0.5102   -1.5633 C.ar    1  UNL1       -0.0334
      8 C          -1.9894    0.4518   -1.8968 C.ar    1  UNL1       -0.0161
      9 C           0.0911    1.7818   -1.3198 C.3     1  UNL1       -0.0262
     10 C           0.9003    1.6016   -0.0605 C.3     1  UNL1       -0.0389
     11 C           2.0356    0.5909   -0.3473 C.3     1  UNL1        0.0264
     12 C           2.8767    0.4147    0.8600 C.3     1  UNL1       -0.0168
     13 C           2.1771   -0.0585    2.0840 C.ar    1  UNL1       -0.0327
     14 C           1.6066    0.9159    2.9349 C.ar    1  UNL1       -0.0575
     15 C           0.8997    0.5215    4.0399 C.ar    1  UNL1       -0.0614
     16 C           0.7008   -0.7971    4.3897 C.ar    1  UNL1       -0.0607
     17 C           1.2504   -1.7526    3.5720 C.ar    1  UNL1       -0.0475
     18 C           1.9775   -1.3627    2.4371 C.ar    1  UNL1        0.0211
     19 BR          2.7746   -2.7665    1.4173 Br      1  UNL1       -0.0500
     20 C           1.5375   -0.5238   -1.0926 C.2     1  UNL1        0.1668
     21 O           2.2422   -1.4921   -1.5434 O.2     1  UNL1       -0.2917
     22 H          -4.5433    1.0628   -1.7493 H       1  UNL1        0.0660
     23 H          -5.8415    0.0988   -2.6508 H       1  UNL1        0.0660
     24 H          -4.4490    0.9116   -3.5222 H       1  UNL1        0.0660
     25 H          -2.3400   -2.8571   -2.1249 H       1  UNL1        0.0654
     26 H           0.0385   -2.7595   -1.5295 H       1  UNL1        0.0626
     27 H          -2.5558    1.3594   -2.0005 H       1  UNL1        0.0657
     28 H          -0.6630    2.5773   -1.1979 H       1  UNL1        0.0314
     29 H           0.7512    1.9197   -2.2154 H       1  UNL1        0.0314
     30 H           1.3598    2.5241    0.3036 H       1  UNL1        0.0275
     31 H           0.2258    1.0949    0.6833 H       1  UNL1        0.0275
     32 H           2.6910    1.1994   -1.0933 H       1  UNL1        0.0384
     33 H           3.4870    1.3289    1.0565 H       1  UNL1        0.0320
     34 H           3.6549   -0.3731    0.6397 H       1  UNL1        0.0320
     35 H           1.7754    1.9562    2.6476 H       1  UNL1        0.0621
     36 H           0.4725    1.3207    4.6679 H       1  UNL1        0.0618
     37 H           0.1174   -1.0347    5.2867 H       1  UNL1        0.0618
     38 H           1.1131   -2.7971    3.8162 H       1  UNL1        0.0629
@<TRIPOS>BOND
     1     1     2    1
     2     2     3    1
     3     3     4   ar
     4     4     5   ar
     5     5     6   ar
     6     6     7   ar
     7     7     8   ar
     8     7     9    1
     9     9    10    1
    10    10    11    1
    11    11    12    1
    12    12    13    1
    13    13    14   ar
    14    14    15   ar
    15    15    16   ar
    16    16    17   ar
    17    17    18   ar
    18    18    19    1
    19    11    20    1
    20    20    21    2
    21     8     3   ar
    22    18    13   ar
    23    20     6    1
    24     1    22    1
    25     1    23    1
    26     1    24    1
    27     4    25    1
    28     5    26    1
    29     8    27    1
    30     9    28    1
    31     9    29    1
    32    10    30    1
    33    10    31    1
    34    11    32    1
    35    12    33    1
    36    12    34    1
    37    14    35    1
    38    15    36    1
    39    16    37    1
    40    17    38    1
