@<TRIPOS>MOLECULE
*****
 51 54 0 0 0
SMALL
GASTEIGER

@<TRIPOS>ATOM
      1 C          -2.2368   -0.7264    1.1741 C.3     1  UNL1        0.0398
      2 C          -3.6592   -1.1075    1.1651 C.3     1  UNL1       -0.0059
      3 C          -4.5221   -0.3308    0.2774 C.ar    1  UNL1       -0.0200
      4 C          -5.8804   -0.3245    0.0478 C.ar    1  UNL1        0.0060
      5 N          -6.1849    0.6125   -0.9010 N.ar    1  UNL1       -0.3604
      6 C          -5.0264    1.2048   -1.2784 C.ar    1  UNL1        0.0473
      7 C          -4.6057    2.1863   -2.1501 C.ar    1  UNL1       -0.0378
      8 C          -3.2719    2.5419   -2.2713 C.ar    1  UNL1       -0.0592
      9 C          -2.2742    1.9282   -1.5186 C.ar    1  UNL1       -0.0536
     10 C          -2.7064    0.9500   -0.6520 C.ar    1  UNL1       -0.0112
     11 C          -4.0296    0.6199   -0.5534 C.ar    1  UNL1        0.0103
     12 C          -1.7810    0.2384    0.1827 C.2     1  UNL1       -0.0243
     13 C          -0.4867    0.4517    0.0633 C.2     1  UNL1       -0.0574
     14 C           0.4875   -0.2738    0.9193 C.3     1  UNL1        0.0563
     15 C           0.0040   -1.6407    1.3038 C.3     1  UNL1        0.0213
     16 N          -1.3773   -1.8860    1.0968 N.3     1  UNL1       -0.2961
     17 C          -1.6783   -2.7279   -0.0327 C.3     1  UNL1       -0.0121
     18 N           1.7999   -0.3792    0.3260 N.am    1  UNL1       -0.2917
     19 C           2.9043    0.2854    0.9332 C.2     1  UNL1        0.3027
     20 O           2.8136    0.9793    1.9825 O.2     1  UNL1       -0.2526
     21 N           4.2637    0.3031    0.5054 N.am    1  UNL1       -0.2862
     22 C           5.1443    1.0790    1.3509 C.3     1  UNL1        0.0133
     23 C           5.2267    2.5076    0.9069 C.3     1  UNL1       -0.0492
     24 C           4.7579   -0.3915   -0.6801 C.3     1  UNL1        0.0133
     25 C           5.1746   -1.7689   -0.2547 C.3     1  UNL1       -0.0492
     26 H          -2.0030   -0.2688    2.1807 H       1  UNL1        0.0515
     27 H          -3.7645   -2.1850    0.8419 H       1  UNL1        0.0332
     28 H          -4.0872   -1.1306    2.2107 H       1  UNL1        0.0332
     29 H          -6.6192   -0.9596    0.5353 H       1  UNL1        0.0810
     30 H          -7.1078    0.8785   -1.3080 H       1  UNL1        0.1653
     31 H          -5.3656    2.6798   -2.7485 H       1  UNL1        0.0638
     32 H          -3.0316    3.3309   -2.9882 H       1  UNL1        0.0618
     33 H          -1.2716    2.2397   -1.6508 H       1  UNL1        0.0624
     34 H          -0.0201    1.1326   -0.6264 H       1  UNL1        0.0594
     35 H           0.6187    0.3780    1.8316 H       1  UNL1        0.0556
     36 H           0.2312   -1.7997    2.3787 H       1  UNL1        0.0448
     37 H           0.6035   -2.4297    0.7752 H       1  UNL1        0.0448
     38 H          -0.7296   -3.2129   -0.3309 H       1  UNL1        0.0391
     39 H          -2.3471   -3.5600    0.2890 H       1  UNL1        0.0391
     40 H          -2.0910   -2.1603   -0.8909 H       1  UNL1        0.0391
     41 H           2.0445   -0.9113   -0.5370 H       1  UNL1        0.1509
     42 H           4.8128    1.0630    2.4147 H       1  UNL1        0.0462
     43 H           6.1836    0.6867    1.3537 H       1  UNL1        0.0462
     44 H           6.1403    2.7099    0.2918 H       1  UNL1        0.0245
     45 H           5.3295    3.1750    1.7877 H       1  UNL1        0.0245
     46 H           4.3010    2.7914    0.4029 H       1  UNL1        0.0245
     47 H           5.5631    0.1854   -1.1654 H       1  UNL1        0.0462
     48 H           3.8695   -0.4937   -1.3483 H       1  UNL1        0.0462
     49 H           5.2316   -1.8771    0.8553 H       1  UNL1        0.0245
     50 H           6.1837   -2.0422   -0.6660 H       1  UNL1        0.0245
     51 H           4.4696   -2.5509   -0.6186 H       1  UNL1        0.0245
@<TRIPOS>BOND
     1     1     2    1
     2     2     3    1
     3     3     4   ar
     4     4     5   ar
     5     5     6   ar
     6     6     7   ar
     7     7     8   ar
     8     8     9   ar
     9     9    10   ar
    10    10    11   ar
    11    10    12    1
    12    12    13    2
    13    13    14    1
    14    14    15    1
    15    15    16    1
    16    16    17    1
    17    14    18    1
    18    18    19   am
    19    19    20    2
    20    19    21   am
    21    21    22    1
    22    22    23    1
    23    21    24    1
    24    24    25    1
    25    12     1    1
    26    16     1    1
    27    11     3   ar
    28    11     6   ar
    29     1    26    1
    30     2    27    1
    31     2    28    1
    32     4    29    1
    33     5    30    1
    34     7    31    1
    35     8    32    1
    36     9    33    1
    37    13    34    1
    38    14    35    1
    39    15    36    1
    40    15    37    1
    41    17    38    1
    42    17    39    1
    43    17    40    1
    44    18    41    1
    45    22    42    1
    46    22    43    1
    47    23    44    1
    48    23    45    1
    49    23    46    1
    50    24    47    1
    51    24    48    1
    52    25    49    1
    53    25    50    1
    54    25    51    1
