
     RDKit          3D

 51 54  0  0  0  0  0  0  0  0999 V2000
   -2.2368   -0.7264    1.1741 C   0  0  2  0  0  0  0  0  0  0  0  0
   -3.6592   -1.1075    1.1651 C   0  0  0  0  0  0  0  0  0  0  0  0
   -4.5221   -0.3308    0.2774 C   0  0  0  0  0  0  0  0  0  0  0  0
   -5.8804   -0.3245    0.0478 C   0  0  0  0  0  0  0  0  0  0  0  0
   -6.1849    0.6125   -0.9010 N   0  0  0  0  0  0  0  0  0  0  0  0
   -5.0264    1.2048   -1.2784 C   0  0  0  0  0  0  0  0  0  0  0  0
   -4.6057    2.1863   -2.1501 C   0  0  0  0  0  0  0  0  0  0  0  0
   -3.2719    2.5419   -2.2713 C   0  0  0  0  0  0  0  0  0  0  0  0
   -2.2742    1.9282   -1.5186 C   0  0  0  0  0  0  0  0  0  0  0  0
   -2.7064    0.9500   -0.6520 C   0  0  0  0  0  0  0  0  0  0  0  0
   -4.0296    0.6199   -0.5534 C   0  0  0  0  0  0  0  0  0  0  0  0
   -1.7810    0.2384    0.1827 C   0  0  0  0  0  0  0  0  0  0  0  0
   -0.4867    0.4517    0.0633 C   0  0  0  0  0  0  0  0  0  0  0  0
    0.4875   -0.2738    0.9193 C   0  0  1  0  0  0  0  0  0  0  0  0
    0.0040   -1.6407    1.3038 C   0  0  0  0  0  0  0  0  0  0  0  0
   -1.3773   -1.8860    1.0968 N   0  0  0  0  0  0  0  0  0  0  0  0
   -1.6783   -2.7279   -0.0327 C   0  0  0  0  0  0  0  0  0  0  0  0
    1.7999   -0.3792    0.3260 N   0  0  0  0  0  0  0  0  0  0  0  0
    2.9043    0.2854    0.9332 C   0  0  0  0  0  0  0  0  0  0  0  0
    2.8136    0.9793    1.9825 O   0  0  0  0  0  0  0  0  0  0  0  0
    4.2637    0.3031    0.5054 N   0  0  0  0  0  0  0  0  0  0  0  0
    5.1443    1.0790    1.3509 C   0  0  0  0  0  0  0  0  0  0  0  0
    5.2267    2.5076    0.9069 C   0  0  0  0  0  0  0  0  0  0  0  0
    4.7579   -0.3915   -0.6801 C   0  0  0  0  0  0  0  0  0  0  0  0
    5.1746   -1.7689   -0.2547 C   0  0  0  0  0  0  0  0  0  0  0  0
   -2.0030   -0.2688    2.1807 H   0  0  0  0  0  0  0  0  0  0  0  0
   -3.7645   -2.1850    0.8419 H   0  0  0  0  0  0  0  0  0  0  0  0
   -4.0872   -1.1306    2.2107 H   0  0  0  0  0  0  0  0  0  0  0  0
   -6.6192   -0.9596    0.5353 H   0  0  0  0  0  0  0  0  0  0  0  0
   -7.1078    0.8785   -1.3080 H   0  0  0  0  0  0  0  0  0  0  0  0
   -5.3656    2.6798   -2.7485 H   0  0  0  0  0  0  0  0  0  0  0  0
   -3.0316    3.3309   -2.9882 H   0  0  0  0  0  0  0  0  0  0  0  0
   -1.2716    2.2397   -1.6508 H   0  0  0  0  0  0  0  0  0  0  0  0
   -0.0201    1.1326   -0.6264 H   0  0  0  0  0  0  0  0  0  0  0  0
    0.6187    0.3780    1.8316 H   0  0  0  0  0  0  0  0  0  0  0  0
    0.2312   -1.7997    2.3787 H   0  0  0  0  0  0  0  0  0  0  0  0
    0.6035   -2.4297    0.7752 H   0  0  0  0  0  0  0  0  0  0  0  0
   -0.7296   -3.2129   -0.3309 H   0  0  0  0  0  0  0  0  0  0  0  0
   -2.3471   -3.5600    0.2890 H   0  0  0  0  0  0  0  0  0  0  0  0
   -2.0910   -2.1603   -0.8909 H   0  0  0  0  0  0  0  0  0  0  0  0
    2.0445   -0.9113   -0.5370 H   0  0  0  0  0  0  0  0  0  0  0  0
    4.8128    1.0630    2.4147 H   0  0  0  0  0  0  0  0  0  0  0  0
    6.1836    0.6867    1.3537 H   0  0  0  0  0  0  0  0  0  0  0  0
    6.1403    2.7099    0.2918 H   0  0  0  0  0  0  0  0  0  0  0  0
    5.3295    3.1750    1.7877 H   0  0  0  0  0  0  0  0  0  0  0  0
    4.3010    2.7914    0.4029 H   0  0  0  0  0  0  0  0  0  0  0  0
    5.5631    0.1854   -1.1654 H   0  0  0  0  0  0  0  0  0  0  0  0
    3.8695   -0.4937   -1.3483 H   0  0  0  0  0  0  0  0  0  0  0  0
    5.2316   -1.8771    0.8553 H   0  0  0  0  0  0  0  0  0  0  0  0
    6.1837   -2.0422   -0.6660 H   0  0  0  0  0  0  0  0  0  0  0  0
    4.4696   -2.5509   -0.6186 H   0  0  0  0  0  0  0  0  0  0  0  0
  1  2  1  0
  2  3  1  0
  3  4  2  0
  4  5  1  0
  5  6  1  0
  6  7  2  0
  7  8  1  0
  8  9  2  0
  9 10  1  0
 10 11  2  0
 10 12  1  0
 12 13  2  0
 13 14  1  0
 14 15  1  0
 15 16  1  0
 16 17  1  0
 14 18  1  0
 18 19  1  0
 19 20  2  0
 19 21  1  0
 21 22  1  0
 22 23  1  0
 21 24  1  0
 24 25  1  0
 12  1  1  0
 16  1  1  0
 11  3  1  0
 11  6  1  0
  1 26  1  1
  2 27  1  0
  2 28  1  0
  4 29  1  0
  5 30  1  0
  7 31  1  0
  8 32  1  0
  9 33  1  0
 13 34  1  0
 14 35  1  1
 15 36  1  0
 15 37  1  0
 17 38  1  0
 17 39  1  0
 17 40  1  0
 18 41  1  0
 22 42  1  0
 22 43  1  0
 23 44  1  0
 23 45  1  0
 23 46  1  0
 24 47  1  0
 24 48  1  0
 25 49  1  0
 25 50  1  0
 25 51  1  0
M  END
$$$$
