@<TRIPOS>MOLECULE
*****
 51 55 0 0 0
SMALL
GASTEIGER

@<TRIPOS>ATOM
      1 C           1.9055   -0.5680    1.4345 C.3     1  UNL1        0.0435
      2 N           2.1002   -1.9796    1.6082 N.3     1  UNL1       -0.3242
      3 C           1.1193   -0.3122    0.1611 C.3     1  UNL1        0.1051
      4 O          -0.0831   -0.8467    0.0951 O.3     1  UNL1       -0.4882
      5 C          -1.1137   -1.6030    0.0663 C.ar    1  UNL1        0.1477
      6 C          -2.3326   -0.9871   -0.1100 C.ar    1  UNL1        0.0451
      7 C          -2.4819    0.3966   -0.2622 C.ar    1  UNL1       -0.0469
      8 C          -3.7096    0.9984   -0.4443 C.ar    1  UNL1       -0.0350
      9 C          -4.8605    0.2443   -0.4839 C.ar    1  UNL1        0.0718
     10 N          -4.7496   -1.0849   -0.3407 N.ar    1  UNL1       -0.2451
     11 C          -3.5537   -1.6706   -0.1640 C.ar    1  UNL1        0.0932
     12 C          -3.4316   -3.0521   -0.0221 C.ar    1  UNL1        0.0537
     13 N          -2.2477   -3.6739    0.1513 N.ar    1  UNL1       -0.2575
     14 C          -1.0866   -2.9853    0.1990 C.ar    1  UNL1        0.0699
     15 C          -6.1873    0.8113   -0.6823 C.ar    1  UNL1        0.0032
     16 C          -7.2776   -0.0318   -0.7100 C.ar    1  UNL1       -0.0344
     17 C          -8.5317    0.5036   -0.9036 C.ar    1  UNL1        0.0282
     18 N          -8.7616    1.8258   -1.0704 N.ar    1  UNL1       -0.2632
     19 C          -7.6944    2.6779   -1.0457 C.ar    1  UNL1        0.0282
     20 C          -6.4308    2.1556   -0.8527 C.ar    1  UNL1       -0.0344
     21 C           3.1867    0.2136    1.3864 C.3     1  UNL1       -0.0073
     22 C           4.1243   -0.1451    0.3367 C.ar    1  UNL1       -0.0208
     23 C           4.3532   -1.1140   -0.6128 C.ar    1  UNL1        0.0060
     24 N           5.4579   -0.9359   -1.3557 N.ar    1  UNL1       -0.3604
     25 C           5.9795    0.2008   -0.8726 C.ar    1  UNL1        0.0467
     26 C           5.2151    0.7174    0.1472 C.ar    1  UNL1        0.0029
     27 C           5.6958    1.8865    0.6963 C.ar    1  UNL1       -0.0523
     28 C           6.8423    2.5377    0.3031 C.ar    1  UNL1       -0.0611
     29 C           7.5805    1.9882   -0.7231 C.ar    1  UNL1       -0.0598
     30 C           7.1508    0.8160   -1.3156 C.ar    1  UNL1       -0.0378
     31 H           1.2549   -0.1682    2.2813 H       1  UNL1        0.0495
     32 H           3.0238   -2.2438    1.9706 H       1  UNL1        0.1186
     33 H           1.9243   -2.5455    0.7658 H       1  UNL1        0.1186
     34 H           1.1412    0.8320    0.0700 H       1  UNL1        0.0712
     35 H           1.7662   -0.6596   -0.6837 H       1  UNL1        0.0712
     36 H          -1.5958    1.0079   -0.2349 H       1  UNL1        0.0626
     37 H          -3.7525    2.0607   -0.5531 H       1  UNL1        0.0639
     38 H          -4.2981   -3.6912   -0.0460 H       1  UNL1        0.0851
     39 H          -0.1861   -3.5565    0.3398 H       1  UNL1        0.0867
     40 H          -7.2369   -1.1078   -0.5894 H       1  UNL1        0.0639
     41 H          -9.4317   -0.1073   -0.9356 H       1  UNL1        0.0830
     42 H          -7.8072    3.7643   -1.1744 H       1  UNL1        0.0830
     43 H          -5.5919    2.8610   -0.8368 H       1  UNL1        0.0639
     44 H           2.9772    1.3193    1.3957 H       1  UNL1        0.0330
     45 H           3.7169    0.0389    2.3810 H       1  UNL1        0.0330
     46 H           3.6821   -1.9444   -0.7161 H       1  UNL1        0.0810
     47 H           5.7578   -1.5845   -2.1091 H       1  UNL1        0.1653
     48 H           5.1313    2.3326    1.5015 H       1  UNL1        0.0624
     49 H           7.1306    3.4683    0.8158 H       1  UNL1        0.0618
     50 H           8.4763    2.5248   -1.0092 H       1  UNL1        0.0618
     51 H           7.7403    0.4154   -2.1048 H       1  UNL1        0.0638
@<TRIPOS>BOND
     1     1     2    1
     2     1     3    1
     3     3     4    1
     4     4     5    1
     5     5     6   ar
     6     6     7   ar
     7     7     8   ar
     8     8     9   ar
     9     9    10   ar
    10    10    11   ar
    11    11    12   ar
    12    12    13   ar
    13    13    14   ar
    14     9    15    1
    15    15    16   ar
    16    16    17   ar
    17    17    18   ar
    18    18    19   ar
    19    19    20   ar
    20     1    21    1
    21    21    22    1
    22    22    23   ar
    23    23    24   ar
    24    24    25   ar
    25    25    26   ar
    26    26    27   ar
    27    27    28   ar
    28    28    29   ar
    29    29    30   ar
    30    14     5   ar
    31    20    15   ar
    32    26    22   ar
    33    11     6   ar
    34    30    25   ar
    35     1    31    1
    36     2    32    1
    37     2    33    1
    38     3    34    1
    39     3    35    1
    40     7    36    1
    41     8    37    1
    42    12    38    1
    43    14    39    1
    44    16    40    1
    45    17    41    1
    46    19    42    1
    47    20    43    1
    48    21    44    1
    49    21    45    1
    50    23    46    1
    51    24    47    1
    52    27    48    1
    53    28    49    1
    54    29    50    1
    55    30    51    1
