
     RDKit          3D

 42 45  0  0  0  0  0  0  0  0999 V2000
    1.9993    1.7327    1.6322 Cl  0  0  0  0  0  0  0  0  0  0  0  0
    0.6989    2.1019    0.5475 C   0  0  0  0  0  0  0  0  0  0  0  0
    0.5705    3.4647    0.3025 C   0  0  0  0  0  0  0  0  0  0  0  0
   -0.3935    3.9726   -0.5414 C   0  0  0  0  0  0  0  0  0  0  0  0
   -1.2524    3.0730   -1.1552 C   0  0  0  0  0  0  0  0  0  0  0  0
   -1.1277    1.7275   -0.9148 C   0  0  0  0  0  0  0  0  0  0  0  0
   -0.1705    1.2075   -0.0746 C   0  0  0  0  0  0  0  0  0  0  0  0
    0.0683   -0.2388    0.2778 C   0  0  0  0  0  0  0  0  0  0  0  0
   -0.1119   -0.3620    1.7147 N   0  0  0  0  0  0  0  0  0  0  0  0
   -0.5547    0.5602    2.5970 C   0  0  0  0  0  0  0  0  0  0  0  0
   -0.5998    0.0773    3.8799 C   0  0  0  0  0  0  0  0  0  0  0  0
   -0.1691   -1.1941    3.7919 N   0  0  0  0  0  0  0  0  0  0  0  0
    0.1138   -1.4314    2.4986 C   0  0  0  0  0  0  0  0  0  0  0  0
    1.4224   -0.5372   -0.1893 C   0  0  0  0  0  0  0  0  0  0  0  0
    1.5801   -0.2605   -1.5549 C   0  0  0  0  0  0  0  0  0  0  0  0
    2.7748   -0.4638   -2.2120 C   0  0  0  0  0  0  0  0  0  0  0  0
    3.8819   -0.9528   -1.5539 C   0  0  0  0  0  0  0  0  0  0  0  0
    3.7319   -1.2260   -0.2124 C   0  0  0  0  0  0  0  0  0  0  0  0
    2.5413   -1.0240    0.4451 C   0  0  0  0  0  0  0  0  0  0  0  0
   -0.9984   -1.0341   -0.3780 C   0  0  0  0  0  0  0  0  0  0  0  0
   -2.2541   -0.7783    0.1864 C   0  0  0  0  0  0  0  0  0  0  0  0
   -3.4011   -1.3894   -0.2408 C   0  0  0  0  0  0  0  0  0  0  0  0
   -3.3321   -2.3028   -1.2753 C   0  0  0  0  0  0  0  0  0  0  0  0
   -2.0968   -2.5654   -1.8423 C   0  0  0  0  0  0  0  0  0  0  0  0
   -0.9557   -1.9471   -1.4058 C   0  0  0  0  0  0  0  0  0  0  0  0
    1.1943    4.2519    0.7339 H   0  0  0  0  0  0  0  0  0  0  0  0
   -0.5500    5.0122   -0.7763 H   0  0  0  0  0  0  0  0  0  0  0  0
   -2.0321    3.3656   -1.8259 H   0  0  0  0  0  0  0  0  0  0  0  0
   -1.7657    1.0155   -1.3721 H   0  0  0  0  0  0  0  0  0  0  0  0
   -0.8603    1.5757    2.3810 H   0  0  0  0  0  0  0  0  0  0  0  0
   -0.9083    0.5810    4.7854 H   0  0  0  0  0  0  0  0  0  0  0  0
    0.4728   -2.4087    2.2091 H   0  0  0  0  0  0  0  0  0  0  0  0
    0.7928    0.1333   -2.2163 H   0  0  0  0  0  0  0  0  0  0  0  0
    2.9146   -0.2554   -3.2666 H   0  0  0  0  0  0  0  0  0  0  0  0
    4.8638   -1.1542   -1.9505 H   0  0  0  0  0  0  0  0  0  0  0  0
    4.5247   -1.6151    0.4235 H   0  0  0  0  0  0  0  0  0  0  0  0
    2.3742   -1.2182    1.4844 H   0  0  0  0  0  0  0  0  0  0  0  0
   -2.4462   -0.0759    1.0124 H   0  0  0  0  0  0  0  0  0  0  0  0
   -4.3843   -1.2145    0.1726 H   0  0  0  0  0  0  0  0  0  0  0  0
   -4.2150   -2.8246   -1.6614 H   0  0  0  0  0  0  0  0  0  0  0  0
   -1.9687   -3.2747   -2.6625 H   0  0  0  0  0  0  0  0  0  0  0  0
    0.0284   -2.1036   -1.7937 H   0  0  0  0  0  0  0  0  0  0  0  0
  1  2  1  0
  2  3  2  0
  3  4  1  0
  4  5  2  0
  5  6  1  0
  6  7  2  0
  7  8  1  0
  8  9  1  0
  9 10  1  0
 10 11  2  0
 11 12  1  0
 12 13  2  0
  8 14  1  0
 14 15  2  0
 15 16  1  0
 16 17  2  0
 17 18  1  0
 18 19  2  0
  8 20  1  0
 20 21  2  0
 21 22  1  0
 22 23  2  0
 23 24  1  0
 24 25  2  0
  7  2  1  0
 13  9  1  0
 19 14  1  0
 25 20  1  0
  3 26  1  0
  4 27  1  0
  5 28  1  0
  6 29  1  0
 10 30  1  0
 11 31  1  0
 13 32  1  0
 15 33  1  0
 16 34  1  0
 17 35  1  0
 18 36  1  0
 19 37  1  0
 21 38  1  0
 22 39  1  0
 23 40  1  0
 24 41  1  0
 25 42  1  0
M  END
$$$$
