@<TRIPOS>MOLECULE
*****
 48 50 0 0 0
SMALL
GASTEIGER

@<TRIPOS>ATOM
      1 C          -1.6788    4.2986   -1.8693 C.3     1  UNL1        0.0557
      2 S          -2.1855    4.1081   -0.1811 S.O2    1  UNL1       -0.0165
      3 O          -1.1726    4.8106    0.6823 O.2     1  UNL1       -0.1735
      4 O          -3.5165    4.7221    0.0657 O.2     1  UNL1       -0.1735
      5 C          -2.2417    2.4188    0.3044 C.3     1  UNL1        0.1997
      6 C          -3.1860    1.6399   -0.5550 C.2     1  UNL1        0.2439
      7 O          -3.8083    2.1985   -1.4933 O.2     1  UNL1       -0.2733
      8 N          -3.4084    0.2320   -0.3323 N.am    1  UNL1       -0.3118
      9 C          -4.3153   -0.5183   -1.1568 C.3     1  UNL1        0.0325
     10 C          -4.3803   -1.9568   -0.7194 C.3     1  UNL1        0.0969
     11 S          -4.9576   -2.1151    0.9314 S.O2    1  UNL1        0.0284
     12 N          -4.9908   -3.8114    1.3002 N.3     1  UNL1       -0.2080
     13 O          -6.3514   -1.6083    1.0981 O.2     1  UNL1       -0.1584
     14 O          -4.0064   -1.5002    1.9105 O.2     1  UNL1       -0.1584
     15 C          -0.9040    1.7537    0.1280 C.ar    1  UNL1        0.1126
     16 N          -0.1115    1.4958   -0.7245 N.ar    1  UNL1       -0.2416
     17 C           1.0340    0.8731   -0.5832 C.ar    1  UNL1        0.0786
     18 C           1.9841    0.5597   -1.5825 C.ar    1  UNL1       -0.0346
     19 C           3.1353   -0.1029   -1.2382 C.ar    1  UNL1       -0.0519
     20 C           3.4557   -0.5003    0.0282 C.ar    1  UNL1       -0.0138
     21 C           4.6550   -1.1904    0.3859 C.ar    1  UNL1        0.0239
     22 C           5.4135   -0.8524    1.4834 C.ar    1  UNL1        0.0103
     23 C           6.5762   -1.5187    1.8335 C.ar    1  UNL1        0.2130
     24 O           7.3258   -1.1454    2.9623 O.3     1  UNL1       -0.4924
     25 N           6.9905   -2.5453    1.0703 N.ar    1  UNL1       -0.2186
     26 C           6.2789   -2.9034   -0.0055 C.ar    1  UNL1        0.0672
     27 C           5.1152   -2.2554   -0.3770 C.ar    1  UNL1        0.1493
     28 F           4.4488   -2.6799   -1.4849 F       1  UNL1       -0.2033
     29 C           2.5216   -0.1968    1.0357 C.ar    1  UNL1       -0.0381
     30 C           1.3641    0.4713    0.6795 C.ar    1  UNL1        0.0398
     31 S          -0.0610    1.0338    1.6701 S.2     1  UNL1       -0.0697
     32 H          -1.1899    5.3057   -1.9936 H       1  UNL1        0.0464
     33 H          -2.6021    4.3382   -2.4902 H       1  UNL1        0.0464
     34 H          -0.9805    3.5059   -2.2018 H       1  UNL1        0.0464
     35 H          -2.5673    2.3943    1.3719 H       1  UNL1        0.0705
     36 H          -2.8483   -0.1533    0.4627 H       1  UNL1        0.1488
     37 H          -5.3393   -0.0486   -1.1735 H       1  UNL1        0.0478
     38 H          -3.9831   -0.5380   -2.2339 H       1  UNL1        0.0478
     39 H          -3.3246   -2.3436   -0.7971 H       1  UNL1        0.0531
     40 H          -4.9724   -2.5455   -1.4453 H       1  UNL1        0.0531
     41 H          -4.0225   -4.1747    1.0627 H       1  UNL1        0.1438
     42 H          -5.7363   -4.2556    0.7408 H       1  UNL1        0.1438
     43 H           1.8434    0.8216   -2.6185 H       1  UNL1        0.0639
     44 H           3.8951   -0.3600   -2.0017 H       1  UNL1        0.0624
     45 H           5.1224   -0.0352    2.1276 H       1  UNL1        0.0678
     46 H           8.3088   -0.9028    2.7859 H       1  UNL1        0.2937
     47 H           6.6511   -3.7378   -0.5924 H       1  UNL1        0.0860
     48 H           2.7227   -0.4857    2.0477 H       1  UNL1        0.0635
@<TRIPOS>BOND
     1     1     2    1
     2     2     3    2
     3     2     4    2
     4     2     5    1
     5     5     6    1
     6     6     7    2
     7     6     8   am
     8     8     9    1
     9     9    10    1
    10    10    11    1
    11    11    12    1
    12    11    13    2
    13    11    14    2
    14     5    15    1
    15    15    16   ar
    16    16    17   ar
    17    17    18   ar
    18    18    19   ar
    19    19    20   ar
    20    20    21    1
    21    21    22   ar
    22    22    23   ar
    23    23    24    1
    24    23    25   ar
    25    25    26   ar
    26    26    27   ar
    27    27    28    1
    28    20    29   ar
    29    29    30   ar
    30    30    31   ar
    31    31    15   ar
    32    30    17   ar
    33    27    21   ar
    34     1    32    1
    35     1    33    1
    36     1    34    1
    37     5    35    1
    38     8    36    1
    39     9    37    1
    40     9    38    1
    41    10    39    1
    42    10    40    1
    43    12    41    1
    44    12    42    1
    45    18    43    1
    46    19    44    1
    47    22    45    1
    48    24    46    1
    49    26    47    1
    50    29    48    1
