
     RDKit          3D

 36 37  0  0  0  0  0  0  0  0999 V2000
    1.3197    3.9702   -1.6421 C   0  0  0  0  0  0  0  0  0  0  0  0
    0.7571    3.0842   -0.6645 O   0  0  0  0  0  0  0  0  0  0  0  0
    1.2383    1.7941   -0.5029 C   0  0  0  0  0  0  0  0  0  0  0  0
    2.1948    1.4587   -1.2674 O   0  0  0  0  0  0  0  0  0  0  0  0
    0.6862    0.8473    0.4942 C   0  0  2  0  0  0  0  0  0  0  0  0
    1.3460   -0.4652    0.4935 C   0  0  0  0  0  0  0  0  0  0  0  0
    1.4066   -1.2655   -0.6334 C   0  0  0  0  0  0  0  0  0  0  0  0
    2.0319   -2.5019   -0.6078 C   0  0  0  0  0  0  0  0  0  0  0  0
    2.6179   -2.9807    0.5442 C   0  0  0  0  0  0  0  0  0  0  0  0
    2.5749   -2.2068    1.6856 C   0  0  0  0  0  0  0  0  0  0  0  0
    1.9538   -0.9965    1.6308 C   0  0  0  0  0  0  0  0  0  0  0  0
   -0.8177    0.8025    0.5102 C   0  0  1  0  0  0  0  0  0  0  0  0
   -1.4923    0.4111   -0.7378 C   0  0  0  0  0  0  0  0  0  0  0  0
   -2.1653   -0.9676   -0.6625 C   0  0  0  0  0  0  0  0  0  0  0  0
   -3.1137   -1.0220    0.5163 C   0  0  0  0  0  0  0  0  0  0  0  0
   -2.6872   -0.0492    1.6056 C   0  0  0  0  0  0  0  0  0  0  0  0
   -1.2320   -0.0629    1.6108 N   0  0  0  0  0  0  0  0  0  0  0  0
    2.1834    4.4852   -1.2067 H   0  0  0  0  0  0  0  0  0  0  0  0
    1.5561    3.3978   -2.5608 H   0  0  0  0  0  0  0  0  0  0  0  0
    0.5399    4.7444   -1.8180 H   0  0  0  0  0  0  0  0  0  0  0  0
    0.9424    1.3065    1.5054 H   0  0  0  0  0  0  0  0  0  0  0  0
    0.9697   -0.9555   -1.5805 H   0  0  0  0  0  0  0  0  0  0  0  0
    2.0640   -3.1115   -1.5128 H   0  0  0  0  0  0  0  0  0  0  0  0
    3.1154   -3.9479    0.5923 H   0  0  0  0  0  0  0  0  0  0  0  0
    3.0445   -2.5955    2.6004 H   0  0  0  0  0  0  0  0  0  0  0  0
    1.9235   -0.3948    2.5284 H   0  0  0  0  0  0  0  0  0  0  0  0
   -1.1428    1.8314    0.8285 H   0  0  0  0  0  0  0  0  0  0  0  0
   -2.3753    1.1070   -0.9038 H   0  0  0  0  0  0  0  0  0  0  0  0
   -0.9307    0.4592   -1.6667 H   0  0  0  0  0  0  0  0  0  0  0  0
   -1.4349   -1.7932   -0.6713 H   0  0  0  0  0  0  0  0  0  0  0  0
   -2.7848   -1.0892   -1.5798 H   0  0  0  0  0  0  0  0  0  0  0  0
   -3.0581   -2.0362    0.9647 H   0  0  0  0  0  0  0  0  0  0  0  0
   -4.1709   -0.8659    0.2128 H   0  0  0  0  0  0  0  0  0  0  0  0
   -3.1110   -0.3208    2.5799 H   0  0  0  0  0  0  0  0  0  0  0  0
   -3.0263    0.9609    1.2829 H   0  0  0  0  0  0  0  0  0  0  0  0
   -0.9229   -1.0316    1.3584 H   0  0  0  0  0  0  0  0  0  0  0  0
  1  2  1  0
  2  3  1  0
  3  4  2  0
  3  5  1  0
  5  6  1  0
  6  7  2  0
  7  8  1  0
  8  9  2  0
  9 10  1  0
 10 11  2  0
  5 12  1  0
 12 13  1  0
 13 14  1  0
 14 15  1  0
 15 16  1  0
 16 17  1  0
 11  6  1  0
 17 12  1  0
  1 18  1  0
  1 19  1  0
  1 20  1  0
  5 21  1  1
  7 22  1  0
  8 23  1  0
  9 24  1  0
 10 25  1  0
 11 26  1  0
 12 27  1  1
 13 28  1  0
 13 29  1  0
 14 30  1  0
 14 31  1  0
 15 32  1  0
 15 33  1  0
 16 34  1  0
 16 35  1  0
 17 36  1  0
M  END
$$$$
