@<TRIPOS>MOLECULE
*****
 36 37 0 0 0
SMALL
GASTEIGER

@<TRIPOS>ATOM
      1 C           1.3197    3.9702   -1.6421 C.3     1  UNL1        0.0817
      2 O           0.7571    3.0842   -0.6645 O.3     1  UNL1       -0.4675
      3 C           1.2383    1.7941   -0.5029 C.2     1  UNL1        0.3158
      4 O           2.1948    1.4587   -1.2674 O.2     1  UNL1       -0.2501
      5 C           0.6862    0.8473    0.4942 C.3     1  UNL1        0.0966
      6 C           1.3460   -0.4652    0.4935 C.ar    1  UNL1       -0.0322
      7 C           1.4066   -1.2655   -0.6334 C.ar    1  UNL1       -0.0577
      8 C           2.0319   -2.5019   -0.6078 C.ar    1  UNL1       -0.0615
      9 C           2.6179   -2.9807    0.5442 C.ar    1  UNL1       -0.0617
     10 C           2.5749   -2.2068    1.6856 C.ar    1  UNL1       -0.0615
     11 C           1.9538   -0.9965    1.6308 C.ar    1  UNL1       -0.0577
     12 C          -0.8177    0.8025    0.5102 C.3     1  UNL1        0.0246
     13 C          -1.4923    0.4111   -0.7378 C.3     1  UNL1       -0.0364
     14 C          -2.1653   -0.9676   -0.6625 C.3     1  UNL1       -0.0505
     15 C          -3.1137   -1.0220    0.5163 C.3     1  UNL1       -0.0404
     16 C          -2.6872   -0.0492    1.6056 C.3     1  UNL1       -0.0038
     17 N          -1.2320   -0.0629    1.6108 N.3     1  UNL1       -0.3121
     18 H           2.1834    4.4852   -1.2067 H       1  UNL1        0.0661
     19 H           1.5561    3.3978   -2.5608 H       1  UNL1        0.0661
     20 H           0.5399    4.7444   -1.8180 H       1  UNL1        0.0661
     21 H           0.9424    1.3065    1.5054 H       1  UNL1        0.0478
     22 H           0.9697   -0.9555   -1.5805 H       1  UNL1        0.0621
     23 H           2.0640   -3.1115   -1.5128 H       1  UNL1        0.0618
     24 H           3.1154   -3.9479    0.5923 H       1  UNL1        0.0618
     25 H           3.0445   -2.5955    2.6004 H       1  UNL1        0.0618
     26 H           1.9235   -0.3948    2.5284 H       1  UNL1        0.0621
     27 H          -1.1428    1.8314    0.8285 H       1  UNL1        0.0472
     28 H          -2.3753    1.1070   -0.9038 H       1  UNL1        0.0281
     29 H          -0.9307    0.4592   -1.6667 H       1  UNL1        0.0281
     30 H          -1.4349   -1.7932   -0.6713 H       1  UNL1        0.0266
     31 H          -2.7848   -1.0892   -1.5798 H       1  UNL1        0.0266
     32 H          -3.0581   -2.0362    0.9647 H       1  UNL1        0.0277
     33 H          -4.1709   -0.8659    0.2128 H       1  UNL1        0.0277
     34 H          -3.1110   -0.3208    2.5799 H       1  UNL1        0.0424
     35 H          -3.0263    0.9609    1.2829 H       1  UNL1        0.0424
     36 H          -0.9229   -1.0316    1.3584 H       1  UNL1        0.1222
@<TRIPOS>BOND
     1     1     2    1
     2     2     3    1
     3     3     4    2
     4     3     5    1
     5     5     6    1
     6     6     7   ar
     7     7     8   ar
     8     8     9   ar
     9     9    10   ar
    10    10    11   ar
    11     5    12    1
    12    12    13    1
    13    13    14    1
    14    14    15    1
    15    15    16    1
    16    16    17    1
    17    11     6   ar
    18    17    12    1
    19     1    18    1
    20     1    19    1
    21     1    20    1
    22     5    21    1
    23     7    22    1
    24     8    23    1
    25     9    24    1
    26    10    25    1
    27    11    26    1
    28    12    27    1
    29    13    28    1
    30    13    29    1
    31    14    30    1
    32    14    31    1
    33    15    32    1
    34    15    33    1
    35    16    34    1
    36    16    35    1
    37    17    36    1
