
     RDKit          3D

 54 57  0  0  0  0  0  0  0  0999 V2000
    9.5942   -1.3686    1.2648 C   0  0  0  0  0  0  0  0  0  0  0  0
    9.0880   -0.0809    1.5166 O   0  0  0  0  0  0  0  0  0  0  0  0
    7.7829    0.2972    1.2808 C   0  0  0  0  0  0  0  0  0  0  0  0
    6.8257   -0.5393    0.7726 C   0  0  0  0  0  0  0  0  0  0  0  0
    5.5405   -0.0767    0.5677 C   0  0  0  0  0  0  0  0  0  0  0  0
    5.1882    1.2037    0.8589 C   0  0  0  0  0  0  0  0  0  0  0  0
    3.8429    1.7138    0.6521 C   0  0  0  0  0  0  0  0  0  0  0  0
    2.8805    0.9995    0.1788 N   0  0  0  0  0  0  0  0  0  0  0  0
    1.5905    1.5099   -0.0131 N   0  0  0  0  0  0  0  0  0  0  0  0
    0.4815    0.7148   -0.3594 C   0  0  0  0  0  0  0  0  0  0  0  0
    0.6239   -0.5252   -0.5123 O   0  0  0  0  0  0  0  0  0  0  0  0
   -0.8310    1.3645   -0.5354 C   0  0  0  0  0  0  0  0  0  0  0  0
   -1.8724    0.4261   -0.8911 N   0  0  0  0  0  0  0  0  0  0  0  0
   -2.6340   -0.2153    0.0365 C   0  0  0  0  0  0  0  0  0  0  0  0
   -2.3791    0.0568    1.2359 O   0  0  0  0  0  0  0  0  0  0  0  0
   -3.6179   -1.1016   -0.2700 C   0  0  0  0  0  0  0  0  0  0  0  0
   -4.4556   -1.8009    0.7559 C   0  0  0  0  0  0  0  0  0  0  0  0
   -5.4957   -0.9048    1.3155 C   0  0  0  0  0  0  0  0  0  0  0  0
   -6.7303   -0.7357    0.6926 C   0  0  0  0  0  0  0  0  0  0  0  0
   -7.7180    0.0854    1.1927 C   0  0  0  0  0  0  0  0  0  0  0  0
   -7.4935    0.7849    2.3689 C   0  0  0  0  0  0  0  0  0  0  0  0
   -6.2914    0.6341    2.9955 C   0  0  0  0  0  0  0  0  0  0  0  0
   -5.3139   -0.1924    2.4806 C   0  0  0  0  0  0  0  0  0  0  0  0
   -3.8687   -1.3744   -1.5685 N   0  0  0  0  0  0  0  0  0  0  0  0
   -3.1566   -0.7775   -2.5061 C   0  0  0  0  0  0  0  0  0  0  0  0
   -3.4301   -1.0722   -3.8446 C   0  0  0  0  0  0  0  0  0  0  0  0
   -2.7241   -0.4839   -4.8578 C   0  0  0  0  0  0  0  0  0  0  0  0
   -1.7310    0.4114   -4.5301 C   0  0  0  0  0  0  0  0  0  0  0  0
   -1.4663    0.6978   -3.2075 C   0  0  0  0  0  0  0  0  0  0  0  0
   -2.1632    0.1185   -2.1711 C   0  0  0  0  0  0  0  0  0  0  0  0
    6.1416    2.0545    1.3705 C   0  0  0  0  0  0  0  0  0  0  0  0
    7.4277    1.6026    1.5788 C   0  0  0  0  0  0  0  0  0  0  0  0
   10.6087   -1.4138    1.7483 H   0  0  0  0  0  0  0  0  0  0  0  0
    9.0027   -2.1723    1.7340 H   0  0  0  0  0  0  0  0  0  0  0  0
    9.7706   -1.5642    0.1899 H   0  0  0  0  0  0  0  0  0  0  0  0
    7.1338   -1.5580    0.5482 H   0  0  0  0  0  0  0  0  0  0  0  0
    4.8278   -0.7884    0.1624 H   0  0  0  0  0  0  0  0  0  0  0  0
    3.5929    2.7369    0.8936 H   0  0  0  0  0  0  0  0  0  0  0  0
    1.4561    2.5305    0.1091 H   0  0  0  0  0  0  0  0  0  0  0  0
   -1.1192    1.7442    0.4913 H   0  0  0  0  0  0  0  0  0  0  0  0
   -0.8090    2.2661   -1.1664 H   0  0  0  0  0  0  0  0  0  0  0  0
   -4.9894   -2.6441    0.2763 H   0  0  0  0  0  0  0  0  0  0  0  0
   -3.8103   -2.1411    1.5954 H   0  0  0  0  0  0  0  0  0  0  0  0
   -6.9219   -1.2731   -0.2245 H   0  0  0  0  0  0  0  0  0  0  0  0
   -8.6787    0.2226    0.7165 H   0  0  0  0  0  0  0  0  0  0  0  0
   -8.2420    1.4304    2.7815 H   0  0  0  0  0  0  0  0  0  0  0  0
   -6.1327    1.1943    3.9229 H   0  0  0  0  0  0  0  0  0  0  0  0
   -4.3982   -0.2577    3.0375 H   0  0  0  0  0  0  0  0  0  0  0  0
   -4.2253   -1.7871   -4.0548 H   0  0  0  0  0  0  0  0  0  0  0  0
   -2.9523   -0.7262   -5.8800 H   0  0  0  0  0  0  0  0  0  0  0  0
   -1.1870    0.8635   -5.3428 H   0  0  0  0  0  0  0  0  0  0  0  0
   -0.6909    1.3943   -3.0007 H   0  0  0  0  0  0  0  0  0  0  0  0
    5.9431    3.0892    1.6288 H   0  0  0  0  0  0  0  0  0  0  0  0
    8.1860    2.2761    1.9846 H   0  0  0  0  0  0  0  0  0  0  0  0
  1  2  1  0
  2  3  1  0
  3  4  2  0
  4  5  1  0
  5  6  2  0
  6  7  1  0
  7  8  2  0
  8  9  1  0
  9 10  1  0
 10 11  2  0
 10 12  1  0
 12 13  1  0
 13 14  1  0
 14 15  2  0
 14 16  1  0
 16 17  1  0
 17 18  1  0
 18 19  2  0
 19 20  1  0
 20 21  2  0
 21 22  1  0
 22 23  2  0
 16 24  2  0
 24 25  1  0
 25 26  2  0
 26 27  1  0
 27 28  2  0
 28 29  1  0
 29 30  2  0
  6 31  1  0
 31 32  2  0
 32  3  1  0
 30 13  1  0
 23 18  1  0
 30 25  1  0
  1 33  1  0
  1 34  1  0
  1 35  1  0
  4 36  1  0
  5 37  1  0
  7 38  1  0
  9 39  1  0
 12 40  1  0
 12 41  1  0
 17 42  1  0
 17 43  1  0
 19 44  1  0
 20 45  1  0
 21 46  1  0
 22 47  1  0
 23 48  1  0
 26 49  1  0
 27 50  1  0
 28 51  1  0
 29 52  1  0
 31 53  1  0
 32 54  1  0
M  END
$$$$
