@<TRIPOS>MOLECULE
*****
 54 57 0 0 0
SMALL
GASTEIGER

@<TRIPOS>ATOM
      1 C           9.5942   -1.3686    1.2648 C.3     1  UNL1        0.0788
      2 O           9.0880   -0.0809    1.5166 O.3     1  UNL1       -0.4951
      3 C           7.7829    0.2972    1.2808 C.ar    1  UNL1        0.1201
      4 C           6.8257   -0.5393    0.7726 C.ar    1  UNL1       -0.0194
      5 C           5.5405   -0.0767    0.5677 C.ar    1  UNL1       -0.0496
      6 C           5.1882    1.2037    0.8589 C.ar    1  UNL1       -0.0052
      7 C           3.8429    1.7138    0.6521 C.2     1  UNL1        0.0528
      8 N           2.8805    0.9995    0.1788 N.2     1  UNL1       -0.1877
      9 N           1.5905    1.5099   -0.0131 N.am    1  UNL1       -0.2055
     10 C           0.4815    0.7148   -0.3594 C.2     1  UNL1        0.2521
     11 O           0.6239   -0.5252   -0.5123 O.2     1  UNL1       -0.2721
     12 C          -0.8310    1.3645   -0.5354 C.3     1  UNL1        0.1046
     13 N          -1.8724    0.4261   -0.8911 N.ar    1  UNL1       -0.2963
     14 C          -2.6340   -0.2153    0.0365 C.ar    1  UNL1        0.2739
     15 O          -2.3791    0.0568    1.2359 O.2     1  UNL1       -0.2657
     16 C          -3.6179   -1.1016   -0.2700 C.ar    1  UNL1        0.1105
     17 C          -4.4556   -1.8009    0.7559 C.3     1  UNL1        0.0201
     18 C          -5.4957   -0.9048    1.3155 C.ar    1  UNL1       -0.0414
     19 C          -6.7303   -0.7357    0.6926 C.ar    1  UNL1       -0.0582
     20 C          -7.7180    0.0854    1.1927 C.ar    1  UNL1       -0.0615
     21 C          -7.4935    0.7849    2.3689 C.ar    1  UNL1       -0.0617
     22 C          -6.2914    0.6341    2.9955 C.ar    1  UNL1       -0.0615
     23 C          -5.3139   -0.1924    2.4806 C.ar    1  UNL1       -0.0582
     24 N          -3.8687   -1.3744   -1.5685 N.ar    1  UNL1       -0.2444
     25 C          -3.1566   -0.7775   -2.5061 C.ar    1  UNL1        0.0879
     26 C          -3.4301   -1.0722   -3.8446 C.ar    1  UNL1       -0.0343
     27 C          -2.7241   -0.4839   -4.8578 C.ar    1  UNL1       -0.0596
     28 C          -1.7310    0.4114   -4.5301 C.ar    1  UNL1       -0.0597
     29 C          -1.4663    0.6978   -3.2075 C.ar    1  UNL1       -0.0360
     30 C          -2.1632    0.1185   -2.1711 C.ar    1  UNL1        0.0708
     31 C           6.1416    2.0545    1.3705 C.ar    1  UNL1       -0.0496
     32 C           7.4277    1.6026    1.5788 C.ar    1  UNL1       -0.0194
     33 H          10.6087   -1.4138    1.7483 H       1  UNL1        0.0660
     34 H           9.0027   -2.1723    1.7340 H       1  UNL1        0.0660
     35 H           9.7706   -1.5642    0.1899 H       1  UNL1        0.0660
     36 H           7.1338   -1.5580    0.5482 H       1  UNL1        0.0654
     37 H           4.8278   -0.7884    0.1624 H       1  UNL1        0.0625
     38 H           3.5929    2.7369    0.8936 H       1  UNL1        0.0851
     39 H           1.4561    2.5305    0.1091 H       1  UNL1        0.1773
     40 H          -1.1192    1.7442    0.4913 H       1  UNL1        0.0589
     41 H          -0.8090    2.2661   -1.1664 H       1  UNL1        0.0589
     42 H          -4.9894   -2.6441    0.2763 H       1  UNL1        0.0378
     43 H          -3.8103   -2.1411    1.5954 H       1  UNL1        0.0378
     44 H          -6.9219   -1.2731   -0.2245 H       1  UNL1        0.0620
     45 H          -8.6787    0.2226    0.7165 H       1  UNL1        0.0618
     46 H          -8.2420    1.4304    2.7815 H       1  UNL1        0.0618
     47 H          -6.1327    1.1943    3.9229 H       1  UNL1        0.0618
     48 H          -4.3982   -0.2577    3.0375 H       1  UNL1        0.0620
     49 H          -4.2253   -1.7871   -4.0548 H       1  UNL1        0.0639
     50 H          -2.9523   -0.7262   -5.8800 H       1  UNL1        0.0618
     51 H          -1.1870    0.8635   -5.3428 H       1  UNL1        0.0618
     52 H          -0.6909    1.3943   -3.0007 H       1  UNL1        0.0639
     53 H           5.9431    3.0892    1.6288 H       1  UNL1        0.0625
     54 H           8.1860    2.2761    1.9846 H       1  UNL1        0.0654
@<TRIPOS>BOND
     1     1     2    1
     2     2     3    1
     3     3     4   ar
     4     4     5   ar
     5     5     6   ar
     6     6     7    1
     7     7     8    2
     8     8     9    1
     9     9    10   am
    10    10    11    2
    11    10    12    1
    12    12    13    1
    13    13    14   ar
    14    14    15    2
    15    14    16   ar
    16    16    17    1
    17    17    18    1
    18    18    19   ar
    19    19    20   ar
    20    20    21   ar
    21    21    22   ar
    22    22    23   ar
    23    16    24   ar
    24    24    25   ar
    25    25    26   ar
    26    26    27   ar
    27    27    28   ar
    28    28    29   ar
    29    29    30   ar
    30     6    31   ar
    31    31    32   ar
    32    32     3   ar
    33    30    13   ar
    34    23    18   ar
    35    30    25   ar
    36     1    33    1
    37     1    34    1
    38     1    35    1
    39     4    36    1
    40     5    37    1
    41     7    38    1
    42     9    39    1
    43    12    40    1
    44    12    41    1
    45    17    42    1
    46    17    43    1
    47    19    44    1
    48    20    45    1
    49    21    46    1
    50    22    47    1
    51    23    48    1
    52    26    49    1
    53    27    50    1
    54    28    51    1
    55    29    52    1
    56    31    53    1
    57    32    54    1
