@<TRIPOS>MOLECULE
*****
 68 71 0 0 0
SMALL
GASTEIGER

@<TRIPOS>ATOM
      1 C          -2.8274   -2.9438    0.8888 C.3     1  UNL1       -0.0650
      2 C          -1.6738   -2.8200   -0.0735 C.3     1  UNL1       -0.0518
      3 C          -2.0059   -1.8176   -1.1556 C.3     1  UNL1       -0.0245
      4 C          -2.2615   -0.5126   -0.4839 C.ar    1  UNL1       -0.0051
      5 C          -3.5519   -0.0573   -0.3338 C.ar    1  UNL1       -0.0446
      6 C          -3.8567    1.1389    0.2769 C.ar    1  UNL1        0.0182
      7 C          -5.2118    1.6513    0.4438 C.2     1  UNL1        0.1662
      8 O          -5.3170    2.7735    1.0663 O.2     1  UNL1       -0.2918
      9 C          -6.4477    1.0351   -0.0140 C.3     1  UNL1        0.0221
     10 C          -6.5957    0.8941   -1.5090 C.3     1  UNL1       -0.0432
     11 C          -8.1128    0.8474   -1.7819 C.3     1  UNL1       -0.0524
     12 C          -8.7258   -0.2206   -0.9148 C.3     1  UNL1       -0.0530
     13 C          -7.6967   -1.0971   -0.2299 C.3     1  UNL1       -0.0524
     14 C          -6.8125   -0.2601    0.6899 C.3     1  UNL1       -0.0432
     15 C          -2.7663    1.8710    0.7410 C.ar    1  UNL1       -0.0478
     16 C          -1.4707    1.4223    0.5952 C.ar    1  UNL1       -0.0190
     17 C          -1.1674    0.2302   -0.0145 C.ar    1  UNL1        0.1237
     18 O           0.0931   -0.2832   -0.1952 O.3     1  UNL1       -0.4916
     19 C           1.3341    0.1788    0.1219 C.3     1  UNL1        0.0927
     20 C           1.8127    1.4378   -0.5058 C.3     1  UNL1        0.0157
     21 C           3.2032    1.8271   -0.0537 C.3     1  UNL1        0.0927
     22 O           4.1590    0.8552   -0.3628 O.3     1  UNL1       -0.4918
     23 C           5.4936    1.0561   -0.0137 C.ar    1  UNL1        0.1211
     24 C           5.8612    2.2254    0.6412 C.ar    1  UNL1       -0.0199
     25 C           7.1736    2.3990    0.9726 C.ar    1  UNL1       -0.0577
     26 C           8.1203    1.4103    0.6530 C.ar    1  UNL1       -0.0531
     27 C           7.7695    0.2627    0.0121 C.ar    1  UNL1       -0.0026
     28 C           8.7535   -0.7507   -0.3121 C.ar    1  UNL1        0.0838
     29 S           8.3586   -2.2786   -1.1575 S.2     1  UNL1       -0.0230
     30 C          10.0468   -2.9110   -1.1551 C.ar    1  UNL1        0.2913
     31 O          10.4065   -4.0095   -1.6403 O.2     1  UNL1       -0.2596
     32 N          10.6955   -1.9501   -0.5472 N.ar    1  UNL1       -0.2870
     33 C          10.0898   -0.8722   -0.1191 C.ar    1  UNL1        0.2081
     34 O          10.7810    0.2004    0.5532 O.3     1  UNL1       -0.4928
     35 C           6.4235    0.0885   -0.3259 C.ar    1  UNL1       -0.0116
     36 H          -2.7136   -2.2587    1.7701 H       1  UNL1        0.0230
     37 H          -3.8041   -2.6969    0.4360 H       1  UNL1        0.0230
     38 H          -2.8420   -4.0137    1.2354 H       1  UNL1        0.0230
     39 H          -1.4413   -3.7797   -0.5568 H       1  UNL1        0.0266
     40 H          -0.7967   -2.4530    0.5183 H       1  UNL1        0.0266
     41 H          -2.9456   -2.1655   -1.6318 H       1  UNL1        0.0314
     42 H          -1.2491   -1.7586   -1.9361 H       1  UNL1        0.0314
     43 H          -4.3706   -0.6605   -0.7033 H       1  UNL1        0.0628
     44 H          -7.2945    1.7376    0.2737 H       1  UNL1        0.0381
     45 H          -6.2148    1.8218   -1.9778 H       1  UNL1        0.0272
     46 H          -6.2087   -0.0192   -1.9453 H       1  UNL1        0.0272
     47 H          -8.5460    1.8242   -1.5103 H       1  UNL1        0.0265
     48 H          -8.2918    0.6437   -2.8605 H       1  UNL1        0.0265
     49 H          -9.3418   -0.8881   -1.5492 H       1  UNL1        0.0265
     50 H          -9.3989    0.2039   -0.1402 H       1  UNL1        0.0265
     51 H          -7.1107   -1.6598   -0.9751 H       1  UNL1        0.0265
     52 H          -8.2330   -1.8112    0.4021 H       1  UNL1        0.0265
     53 H          -5.9732   -0.8525    1.0306 H       1  UNL1        0.0272
     54 H          -7.4513   -0.0700    1.6020 H       1  UNL1        0.0272
     55 H          -2.9806    2.8317    1.2338 H       1  UNL1        0.0626
     56 H          -0.6702    2.0285    0.9883 H       1  UNL1        0.0654
     57 H           2.0621   -0.6706   -0.0702 H       1  UNL1        0.0697
     58 H           1.4492    0.3212    1.2467 H       1  UNL1        0.0697
     59 H           1.8431    1.2470   -1.6234 H       1  UNL1        0.0331
     60 H           1.1639    2.2818   -0.3646 H       1  UNL1        0.0331
     61 H           3.4225    2.8206   -0.4936 H       1  UNL1        0.0697
     62 H           3.1447    1.8911    1.0697 H       1  UNL1        0.0697
     63 H           5.1059    2.9792    0.8786 H       1  UNL1        0.0654
     64 H           7.4740    3.3009    1.4809 H       1  UNL1        0.0619
     65 H           9.1256    1.6265    0.9484 H       1  UNL1        0.0624
     66 H          11.7699   -2.0658   -0.4010 H       1  UNL1        0.1723
     67 H          11.0937    0.0635    1.5074 H       1  UNL1        0.2937
     68 H           6.1499   -0.8200   -0.8323 H       1  UNL1        0.0660
@<TRIPOS>BOND
     1     1     2    1
     2     2     3    1
     3     3     4    1
     4     4     5   ar
     5     5     6   ar
     6     6     7    1
     7     7     8    2
     8     7     9    1
     9     9    10    1
    10    10    11    1
    11    11    12    1
    12    12    13    1
    13    13    14    1
    14     6    15   ar
    15    15    16   ar
    16    16    17   ar
    17    17    18    1
    18    18    19    1
    19    19    20    1
    20    20    21    1
    21    21    22    1
    22    22    23    1
    23    23    24   ar
    24    24    25   ar
    25    25    26   ar
    26    26    27   ar
    27    27    28    1
    28    28    29   ar
    29    29    30   ar
    30    30    31    2
    31    30    32   ar
    32    32    33   ar
    33    33    34    1
    34    27    35   ar
    35    17     4   ar
    36    35    23   ar
    37    14     9    1
    38    33    28   ar
    39     1    36    1
    40     1    37    1
    41     1    38    1
    42     2    39    1
    43     2    40    1
    44     3    41    1
    45     3    42    1
    46     5    43    1
    47     9    44    1
    48    10    45    1
    49    10    46    1
    50    11    47    1
    51    11    48    1
    52    12    49    1
    53    12    50    1
    54    13    51    1
    55    13    52    1
    56    14    53    1
    57    14    54    1
    58    15    55    1
    59    16    56    1
    60    19    57    1
    61    19    58    1
    62    20    59    1
    63    20    60    1
    64    21    61    1
    65    21    62    1
    66    24    63    1
    67    25    64    1
    68    26    65    1
    69    32    66    1
    70    34    67    1
    71    35    68    1
