@<TRIPOS>MOLECULE
*****
 56 59 0 0 0
SMALL
GASTEIGER

@<TRIPOS>ATOM
      1 C           6.1650   -1.4857   -0.8466 C.3     1  UNL1       -0.0288
      2 C           5.5345   -0.1486   -0.4540 C.3     1  UNL1        0.1831
      3 C           6.6707    0.8064   -0.0516 C.3     1  UNL1       -0.0288
      4 C           4.7106   -0.4340    0.7348 C.2     1  UNL1        0.3067
      5 N           5.3640   -1.2009    1.7904 N.pl3   1  UNL1       -0.2488
      6 N           3.5381   -0.0514    0.8451 N.2     1  UNL1       -0.0727
      7 C           2.6035    0.6677    0.1046 C.3     1  UNL1        0.1959
      8 C           2.3740    2.0081    0.8123 C.3     1  UNL1       -0.0112
      9 C           1.2831   -0.0556    0.1679 C.ar    1  UNL1        0.0420
     10 C           0.1741    0.5555    0.7014 C.ar    1  UNL1       -0.0301
     11 C          -1.0626   -0.0897    0.7766 C.ar    1  UNL1        0.0330
     12 N          -2.1902    0.5321    1.3428 N.pl3   1  UNL1       -0.2977
     13 C          -3.4607   -0.0508    1.2263 C.ar    1  UNL1        0.1491
     14 N          -3.9011   -1.1356    1.8795 N.ar    1  UNL1       -0.2376
     15 C          -5.1440   -1.6344    1.7405 C.ar    1  UNL1        0.0358
     16 C          -6.0705   -1.0423    0.8907 C.ar    1  UNL1        0.0052
     17 C          -7.4536   -1.5785    0.7304 C.3     1  UNL1        0.0713
     18 O          -8.3058   -0.7474    1.4588 O.3     1  UNL1       -0.3903
     19 C          -5.6381    0.0800    0.2045 C.ar    1  UNL1        0.0119
     20 C          -6.5262    0.7116   -0.6527 C.ar    1  UNL1       -0.0322
     21 C          -6.1282    1.8193   -1.3356 C.ar    1  UNL1        0.0596
     22 CL         -7.2058    2.6660   -2.4344 Cl      1  UNL1       -0.0820
     23 C          -4.8419    2.3124   -1.1747 C.ar    1  UNL1        0.0467
     24 N          -4.0281    1.6632   -0.3348 N.ar    1  UNL1       -0.2501
     25 C          -4.3635    0.5687    0.3646 C.ar    1  UNL1        0.1113
     26 C          -1.1509   -1.3745    0.2971 C.ar    1  UNL1       -0.0378
     27 C          -0.0399   -2.0112   -0.2465 C.ar    1  UNL1       -0.0243
     28 C           1.1736   -1.3432   -0.3066 C.ar    1  UNL1        0.1311
     29 F           2.2445   -2.0020   -0.8446 F       1  UNL1       -0.2050
     30 C           2.9692    0.9935   -1.3164 C.3     1  UNL1        0.1183
     31 S           4.5896    0.5275   -1.7583 S.O2    1  UNL1       -0.0101
     32 O           4.5267   -0.4745   -2.9060 O.2     1  UNL1       -0.1731
     33 O           5.3645    1.7056   -2.3332 O.2     1  UNL1       -0.1731
     34 H           5.3031   -2.1573   -1.0850 H       1  UNL1        0.0256
     35 H           6.8896   -1.3851   -1.6574 H       1  UNL1        0.0256
     36 H           6.6252   -1.8817    0.0972 H       1  UNL1        0.0256
     37 H           6.7908    0.8722    1.0291 H       1  UNL1        0.0256
     38 H           7.5774    0.4564   -0.5942 H       1  UNL1        0.0256
     39 H           6.4145    1.7891   -0.4955 H       1  UNL1        0.0256
     40 H           6.3244   -0.9414    2.0954 H       1  UNL1        0.2881
     41 H           4.8977   -2.0032    2.2518 H       1  UNL1        0.2881
     42 H           3.3423    2.5892    0.8123 H       1  UNL1        0.0279
     43 H           2.0615    1.8955    1.8535 H       1  UNL1        0.0279
     44 H           1.6698    2.6568    0.2528 H       1  UNL1        0.0279
     45 H           0.1810    1.5640    1.0958 H       1  UNL1        0.0641
     46 H          -2.0815    1.4297    1.8488 H       1  UNL1        0.1536
     47 H          -5.4901   -2.5080    2.2683 H       1  UNL1        0.0834
     48 H          -7.7509   -1.7030   -0.3120 H       1  UNL1        0.0608
     49 H          -7.4506   -2.5867    1.2299 H       1  UNL1        0.0608
     50 H          -7.8474    0.0460    1.8150 H       1  UNL1        0.2098
     51 H          -7.5232    0.3289   -0.7784 H       1  UNL1        0.0639
     52 H          -4.5412    3.1864   -1.7185 H       1  UNL1        0.0844
     53 H          -2.0966   -1.9296    0.3301 H       1  UNL1        0.0637
     54 H          -0.1159   -3.0207   -0.6213 H       1  UNL1        0.0647
     55 H           2.8369    2.0683   -1.5523 H       1  UNL1        0.0550
     56 H           2.2085    0.4770   -1.9736 H       1  UNL1        0.0550
@<TRIPOS>BOND
     1     1     2    1
     2     2     3    1
     3     2     4    1
     4     4     5    1
     5     4     6    2
     6     6     7    1
     7     7     8    1
     8     7     9    1
     9     9    10   ar
    10    10    11   ar
    11    11    12    1
    12    12    13    1
    13    13    14   ar
    14    14    15   ar
    15    15    16   ar
    16    16    17    1
    17    17    18    1
    18    16    19   ar
    19    19    20   ar
    20    20    21   ar
    21    21    22    1
    22    21    23   ar
    23    23    24   ar
    24    24    25   ar
    25    11    26   ar
    26    26    27   ar
    27    27    28   ar
    28    28    29    1
    29     7    30    1
    30    30    31    1
    31    31    32    2
    32    31    33    2
    33    31     2    1
    34    28     9   ar
    35    25    13   ar
    36    25    19   ar
    37     1    34    1
    38     1    35    1
    39     1    36    1
    40     3    37    1
    41     3    38    1
    42     3    39    1
    43     5    40    1
    44     5    41    1
    45     8    42    1
    46     8    43    1
    47     8    44    1
    48    10    45    1
    49    12    46    1
    50    15    47    1
    51    17    48    1
    52    17    49    1
    53    18    50    1
    54    20    51    1
    55    23    52    1
    56    26    53    1
    57    27    54    1
    58    30    55    1
    59    30    56    1
