
     RDKit          3D

 56 59  0  0  0  0  0  0  0  0999 V2000
    6.1650   -1.4857   -0.8466 C   0  0  0  0  0  0  0  0  0  0  0  0
    5.5345   -0.1486   -0.4540 C   0  0  0  0  0  0  0  0  0  0  0  0
    6.6707    0.8064   -0.0516 C   0  0  0  0  0  0  0  0  0  0  0  0
    4.7106   -0.4340    0.7348 C   0  0  0  0  0  0  0  0  0  0  0  0
    5.3640   -1.2009    1.7904 N   0  0  0  0  0  0  0  0  0  0  0  0
    3.5381   -0.0514    0.8451 N   0  0  0  0  0  0  0  0  0  0  0  0
    2.6035    0.6677    0.1046 C   0  0  2  0  0  0  0  0  0  0  0  0
    2.3740    2.0081    0.8123 C   0  0  0  0  0  0  0  0  0  0  0  0
    1.2831   -0.0556    0.1679 C   0  0  0  0  0  0  0  0  0  0  0  0
    0.1741    0.5555    0.7014 C   0  0  0  0  0  0  0  0  0  0  0  0
   -1.0626   -0.0897    0.7766 C   0  0  0  0  0  0  0  0  0  0  0  0
   -2.1902    0.5321    1.3428 N   0  0  0  0  0  0  0  0  0  0  0  0
   -3.4607   -0.0508    1.2263 C   0  0  0  0  0  0  0  0  0  0  0  0
   -3.9011   -1.1356    1.8795 N   0  0  0  0  0  0  0  0  0  0  0  0
   -5.1440   -1.6344    1.7405 C   0  0  0  0  0  0  0  0  0  0  0  0
   -6.0705   -1.0423    0.8907 C   0  0  0  0  0  0  0  0  0  0  0  0
   -7.4536   -1.5785    0.7304 C   0  0  0  0  0  0  0  0  0  0  0  0
   -8.3058   -0.7474    1.4588 O   0  0  0  0  0  0  0  0  0  0  0  0
   -5.6381    0.0800    0.2045 C   0  0  0  0  0  0  0  0  0  0  0  0
   -6.5262    0.7116   -0.6527 C   0  0  0  0  0  0  0  0  0  0  0  0
   -6.1282    1.8193   -1.3356 C   0  0  0  0  0  0  0  0  0  0  0  0
   -7.2058    2.6660   -2.4344 Cl  0  0  0  0  0  0  0  0  0  0  0  0
   -4.8419    2.3124   -1.1747 C   0  0  0  0  0  0  0  0  0  0  0  0
   -4.0281    1.6632   -0.3348 N   0  0  0  0  0  0  0  0  0  0  0  0
   -4.3635    0.5687    0.3646 C   0  0  0  0  0  0  0  0  0  0  0  0
   -1.1509   -1.3745    0.2971 C   0  0  0  0  0  0  0  0  0  0  0  0
   -0.0399   -2.0112   -0.2465 C   0  0  0  0  0  0  0  0  0  0  0  0
    1.1736   -1.3432   -0.3066 C   0  0  0  0  0  0  0  0  0  0  0  0
    2.2445   -2.0020   -0.8446 F   0  0  0  0  0  0  0  0  0  0  0  0
    2.9692    0.9935   -1.3164 C   0  0  0  0  0  0  0  0  0  0  0  0
    4.5896    0.5275   -1.7583 S   0  0  0  0  0  6  0  0  0  0  0  0
    4.5267   -0.4745   -2.9060 O   0  0  0  0  0  0  0  0  0  0  0  0
    5.3645    1.7056   -2.3332 O   0  0  0  0  0  0  0  0  0  0  0  0
    5.3031   -2.1573   -1.0850 H   0  0  0  0  0  0  0  0  0  0  0  0
    6.8896   -1.3851   -1.6574 H   0  0  0  0  0  0  0  0  0  0  0  0
    6.6252   -1.8817    0.0972 H   0  0  0  0  0  0  0  0  0  0  0  0
    6.7908    0.8722    1.0291 H   0  0  0  0  0  0  0  0  0  0  0  0
    7.5774    0.4564   -0.5942 H   0  0  0  0  0  0  0  0  0  0  0  0
    6.4145    1.7891   -0.4955 H   0  0  0  0  0  0  0  0  0  0  0  0
    6.3244   -0.9414    2.0954 H   0  0  0  0  0  0  0  0  0  0  0  0
    4.8977   -2.0032    2.2518 H   0  0  0  0  0  0  0  0  0  0  0  0
    3.3423    2.5892    0.8123 H   0  0  0  0  0  0  0  0  0  0  0  0
    2.0615    1.8955    1.8535 H   0  0  0  0  0  0  0  0  0  0  0  0
    1.6698    2.6568    0.2528 H   0  0  0  0  0  0  0  0  0  0  0  0
    0.1810    1.5640    1.0958 H   0  0  0  0  0  0  0  0  0  0  0  0
   -2.0815    1.4297    1.8488 H   0  0  0  0  0  0  0  0  0  0  0  0
   -5.4901   -2.5080    2.2683 H   0  0  0  0  0  0  0  0  0  0  0  0
   -7.7509   -1.7030   -0.3120 H   0  0  0  0  0  0  0  0  0  0  0  0
   -7.4506   -2.5867    1.2299 H   0  0  0  0  0  0  0  0  0  0  0  0
   -7.8474    0.0460    1.8150 H   0  0  0  0  0  0  0  0  0  0  0  0
   -7.5232    0.3289   -0.7784 H   0  0  0  0  0  0  0  0  0  0  0  0
   -4.5412    3.1864   -1.7185 H   0  0  0  0  0  0  0  0  0  0  0  0
   -2.0966   -1.9296    0.3301 H   0  0  0  0  0  0  0  0  0  0  0  0
   -0.1159   -3.0207   -0.6213 H   0  0  0  0  0  0  0  0  0  0  0  0
    2.8369    2.0683   -1.5523 H   0  0  0  0  0  0  0  0  0  0  0  0
    2.2085    0.4770   -1.9736 H   0  0  0  0  0  0  0  0  0  0  0  0
  1  2  1  0
  2  3  1  0
  2  4  1  0
  4  5  1  0
  4  6  2  0
  6  7  1  0
  7  8  1  1
  7  9  1  0
  9 10  2  0
 10 11  1  0
 11 12  1  0
 12 13  1  0
 13 14  2  0
 14 15  1  0
 15 16  2  0
 16 17  1  0
 17 18  1  0
 16 19  1  0
 19 20  2  0
 20 21  1  0
 21 22  1  0
 21 23  2  0
 23 24  1  0
 24 25  2  0
 11 26  2  0
 26 27  1  0
 27 28  2  0
 28 29  1  0
  7 30  1  0
 30 31  1  0
 31 32  2  0
 31 33  2  0
 31  2  1  0
 28  9  1  0
 25 13  1  0
 25 19  1  0
  1 34  1  0
  1 35  1  0
  1 36  1  0
  3 37  1  0
  3 38  1  0
  3 39  1  0
  5 40  1  0
  5 41  1  0
  8 42  1  0
  8 43  1  0
  8 44  1  0
 10 45  1  0
 12 46  1  0
 15 47  1  0
 17 48  1  0
 17 49  1  0
 18 50  1  0
 20 51  1  0
 23 52  1  0
 26 53  1  0
 27 54  1  0
 30 55  1  0
 30 56  1  0
M  END
$$$$
