@<TRIPOS>MOLECULE
*****
 56 60 0 0 0
SMALL
GASTEIGER

@<TRIPOS>ATOM
      1 C          -3.3829    5.8789    3.6147 C.3     1  UNL1        0.0790
      2 O          -2.5714    4.7341    3.4666 O.3     1  UNL1       -0.4914
      3 C          -2.9094    3.6778    2.6345 C.ar    1  UNL1        0.1635
      4 C          -4.0986    3.7113    1.9004 C.ar    1  UNL1        0.0098
      5 C          -4.4424    2.6661    1.0689 C.ar    1  UNL1        0.0782
      6 N          -5.5962    2.6841    0.3671 N.ar    1  UNL1       -0.2546
      7 C          -5.9396    1.6684   -0.4287 C.ar    1  UNL1        0.0318
      8 C          -5.1351    0.5920   -0.5517 C.ar    1  UNL1       -0.0006
      9 C          -3.9204    0.5124    0.1505 C.ar    1  UNL1        0.1391
     10 O          -3.1567   -0.6059   -0.0234 O.3     1  UNL1       -0.4553
     11 C          -1.9182   -0.7705   -0.5789 C.ar    1  UNL1        0.1291
     12 C          -0.7740   -1.1888    0.0550 C.ar    1  UNL1       -0.0187
     13 C           0.4397   -1.3362   -0.5464 C.ar    1  UNL1       -0.0498
     14 C           0.6076   -1.0669   -1.8784 C.ar    1  UNL1       -0.0055
     15 C           1.8197   -1.2105   -2.5149 C.ar    1  UNL1        0.0447
     16 C           2.9871   -1.6580   -1.7386 C.2     1  UNL1        0.2488
     17 O           3.6643   -0.8190   -1.0578 O.2     1  UNL1       -0.2698
     18 N           3.4265   -3.0073   -1.6938 N.am    1  UNL1       -0.2815
     19 C           4.5594   -3.3745   -0.9250 C.ar    1  UNL1        0.0338
     20 C           5.7948   -3.3553   -1.5334 C.ar    1  UNL1       -0.0391
     21 C           6.9503   -3.6904   -0.8862 C.ar    1  UNL1       -0.0416
     22 C           6.9027   -4.0742    0.4570 C.ar    1  UNL1        0.0411
     23 CL          8.3845   -4.5071    1.2977 Cl      1  UNL1       -0.0835
     24 C           5.6697   -4.0933    1.0645 C.ar    1  UNL1       -0.0416
     25 C           4.5162   -3.7519    0.3939 C.ar    1  UNL1       -0.0391
     26 C           1.8790   -0.9183   -3.8584 C.ar    1  UNL1       -0.0490
     27 C           0.7848   -0.4943   -4.5719 C.ar    1  UNL1       -0.0605
     28 C          -0.4094   -0.3595   -3.9128 C.ar    1  UNL1       -0.0539
     29 C          -0.5305   -0.6380   -2.5667 C.ar    1  UNL1       -0.0137
     30 C          -1.7525   -0.4909   -1.9522 C.ar    1  UNL1       -0.0116
     31 C          -3.5905    1.5596    0.9586 C.ar    1  UNL1        0.0463
     32 C          -2.4232    1.5283    1.6809 C.ar    1  UNL1       -0.0036
     33 C          -2.0779    2.5943    2.5255 C.ar    1  UNL1        0.1623
     34 O          -0.9040    2.5694    3.2528 O.3     1  UNL1       -0.4914
     35 C          -0.0419    1.4595    3.1335 C.3     1  UNL1        0.0790
     36 H          -3.8667    6.1989    2.6656 H       1  UNL1        0.0660
     37 H          -4.1820    5.6444    4.3342 H       1  UNL1        0.0660
     38 H          -2.7639    6.7058    4.0411 H       1  UNL1        0.0660
     39 H          -4.7745    4.5588    1.9736 H       1  UNL1        0.0677
     40 H          -6.8940    1.7656   -0.9628 H       1  UNL1        0.0831
     41 H          -5.4031   -0.2451   -1.1948 H       1  UNL1        0.0670
     42 H          -0.8603   -1.4206    1.1107 H       1  UNL1        0.0654
     43 H           1.3375   -1.6701   -0.0161 H       1  UNL1        0.0625
     44 H           2.8851   -3.7244   -2.2499 H       1  UNL1        0.1551
     45 H           5.8959   -3.0615   -2.5895 H       1  UNL1        0.0636
     46 H           7.9186   -3.6756   -1.3594 H       1  UNL1        0.0633
     47 H           5.6156   -4.3907    2.1133 H       1  UNL1        0.0633
     48 H           3.5559   -3.7722    0.8855 H       1  UNL1        0.0636
     49 H           2.8597   -1.0421   -4.3484 H       1  UNL1        0.0625
     50 H           0.8670   -0.2694   -5.6421 H       1  UNL1        0.0618
     51 H          -1.2834   -0.0253   -4.4646 H       1  UNL1        0.0624
     52 H          -2.6388   -0.1538   -2.4909 H       1  UNL1        0.0660
     53 H          -1.7523    0.7090    1.6485 H       1  UNL1        0.0663
     54 H           0.9367    1.6823    3.6525 H       1  UNL1        0.0660
     55 H          -0.4357    0.5280    3.5505 H       1  UNL1        0.0660
     56 H           0.1711    1.2324    2.0467 H       1  UNL1        0.0660
@<TRIPOS>BOND
     1     1     2    1
     2     2     3    1
     3     3     4   ar
     4     4     5   ar
     5     5     6   ar
     6     6     7   ar
     7     7     8   ar
     8     8     9   ar
     9     9    10    1
    10    10    11    1
    11    11    12   ar
    12    12    13   ar
    13    13    14   ar
    14    14    15   ar
    15    15    16    1
    16    16    17    2
    17    16    18   am
    18    18    19    1
    19    19    20   ar
    20    20    21   ar
    21    21    22   ar
    22    22    23    1
    23    22    24   ar
    24    24    25   ar
    25    15    26   ar
    26    26    27   ar
    27    27    28   ar
    28    28    29   ar
    29    29    30   ar
    30     9    31   ar
    31    31    32   ar
    32    32    33   ar
    33    33    34    1
    34    34    35    1
    35    33     3   ar
    36    31     5   ar
    37    30    11   ar
    38    29    14   ar
    39    25    19   ar
    40     1    36    1
    41     1    37    1
    42     1    38    1
    43     4    39    1
    44     7    40    1
    45     8    41    1
    46    12    42    1
    47    13    43    1
    48    18    44    1
    49    20    45    1
    50    21    46    1
    51    24    47    1
    52    25    48    1
    53    26    49    1
    54    27    50    1
    55    28    51    1
    56    30    52    1
    57    32    53    1
    58    35    54    1
    59    35    55    1
    60    35    56    1
