
     RDKit          3D

 44 46  0  0  0  0  0  0  0  0999 V2000
   -2.7258   -1.8721    0.8164 C   0  0  0  0  0  0  0  0  0  0  0  0
   -2.3890   -2.3217   -0.5135 N   0  0  0  0  0  0  0  0  0  0  0  0
   -2.7796   -3.4906   -1.2857 C   0  0  0  0  0  0  0  0  0  0  0  0
   -1.5024   -1.3632   -1.0761 C   0  0  0  0  0  0  0  0  0  0  0  0
   -1.2377   -0.3881   -0.2920 O   0  0  0  0  0  0  0  0  0  0  0  0
   -0.5742   -0.4635   -1.8087 C   0  0  0  0  0  0  0  0  0  0  0  0
   -0.1426    0.6646   -0.9847 C   0  0  0  0  0  0  0  0  0  0  0  0
    0.8465    0.5570   -0.0478 C   0  0  0  0  0  0  0  0  0  0  0  0
    0.9252    1.8066    0.5035 N   0  0  0  0  0  0  0  0  0  0  0  0
    0.0289    2.6215   -0.0747 C   0  0  0  0  0  0  0  0  0  0  0  0
   -0.2066    3.9557    0.1980 C   0  0  0  0  0  0  0  0  0  0  0  0
   -1.1851    4.6196   -0.5183 C   0  0  0  0  0  0  0  0  0  0  0  0
   -1.8861    3.8938   -1.4867 C   0  0  0  0  0  0  0  0  0  0  0  0
   -2.9482    4.5990   -2.2693 C   0  0  0  0  0  0  0  0  0  0  0  0
   -1.5885    2.5565   -1.6985 C   0  0  0  0  0  0  0  0  0  0  0  0
   -0.6360    1.9123   -1.0006 N   0  0  0  0  0  0  0  0  0  0  0  0
    1.7696   -0.4445    0.4525 C   0  0  0  0  0  0  0  0  0  0  0  0
    1.5446   -1.7432    0.8369 C   0  0  0  0  0  0  0  0  0  0  0  0
    2.5115   -2.6054    1.2880 C   0  0  0  0  0  0  0  0  0  0  0  0
    3.8121   -2.1653    1.3727 C   0  0  0  0  0  0  0  0  0  0  0  0
    4.9111   -3.0504    1.8569 C   0  0  0  0  0  0  0  0  0  0  0  0
    4.1598   -0.8793    1.0141 C   0  0  0  0  0  0  0  0  0  0  0  0
    3.1213   -0.0926    0.5751 C   0  0  0  0  0  0  0  0  0  0  0  0
   -3.5890   -2.4526    1.1981 H   0  0  0  0  0  0  0  0  0  0  0  0
   -3.0488   -0.8133    0.8527 H   0  0  0  0  0  0  0  0  0  0  0  0
   -1.8975   -2.0697    1.5394 H   0  0  0  0  0  0  0  0  0  0  0  0
   -2.9523   -3.1332   -2.3225 H   0  0  0  0  0  0  0  0  0  0  0  0
   -2.0196   -4.2834   -1.2226 H   0  0  0  0  0  0  0  0  0  0  0  0
   -3.7674   -3.7913   -0.8840 H   0  0  0  0  0  0  0  0  0  0  0  0
   -0.9925   -0.1560   -2.7880 H   0  0  0  0  0  0  0  0  0  0  0  0
    0.3252   -1.0910   -2.0729 H   0  0  0  0  0  0  0  0  0  0  0  0
    0.3454    4.5194    0.9560 H   0  0  0  0  0  0  0  0  0  0  0  0
   -1.4268    5.6614   -0.3625 H   0  0  0  0  0  0  0  0  0  0  0  0
   -2.3957    5.3276   -2.9112 H   0  0  0  0  0  0  0  0  0  0  0  0
   -3.5524    5.1702   -1.5462 H   0  0  0  0  0  0  0  0  0  0  0  0
   -3.4893    3.8973   -2.9020 H   0  0  0  0  0  0  0  0  0  0  0  0
   -2.1204    1.9798   -2.4427 H   0  0  0  0  0  0  0  0  0  0  0  0
    0.5361   -2.1117    0.7847 H   0  0  0  0  0  0  0  0  0  0  0  0
    2.2365   -3.6105    1.5676 H   0  0  0  0  0  0  0  0  0  0  0  0
    4.5308   -4.0863    1.7726 H   0  0  0  0  0  0  0  0  0  0  0  0
    5.0547   -2.8268    2.9284 H   0  0  0  0  0  0  0  0  0  0  0  0
    5.8332   -2.8882    1.2562 H   0  0  0  0  0  0  0  0  0  0  0  0
    5.1628   -0.4810    1.0600 H   0  0  0  0  0  0  0  0  0  0  0  0
    3.3983    0.9329    0.2896 H   0  0  0  0  0  0  0  0  0  0  0  0
  1  2  1  0
  2  3  1  0
  2  4  1  0
  4  5  2  0
  4  6  1  0
  6  7  1  0
  7  8  2  0
  8  9  1  0
  9 10  2  0
 10 11  1  0
 11 12  2  0
 12 13  1  0
 13 14  1  0
 13 15  2  0
 15 16  1  0
  8 17  1  0
 17 18  2  0
 18 19  1  0
 19 20  2  0
 20 21  1  0
 20 22  1  0
 22 23  2  0
 16  7  1  0
 23 17  1  0
 16 10  1  0
  1 24  1  0
  1 25  1  0
  1 26  1  0
  3 27  1  0
  3 28  1  0
  3 29  1  0
  6 30  1  0
  6 31  1  0
 11 32  1  0
 12 33  1  0
 14 34  1  0
 14 35  1  0
 14 36  1  0
 15 37  1  0
 18 38  1  0
 19 39  1  0
 21 40  1  0
 21 41  1  0
 21 42  1  0
 22 43  1  0
 23 44  1  0
M  END
$$$$
