@<TRIPOS>MOLECULE
*****
 44 46 0 0 0
SMALL
GASTEIGER

@<TRIPOS>ATOM
      1 C          -2.7258   -1.8721    0.8164 C.3     1  UNL1        0.0028
      2 N          -2.3890   -2.3217   -0.5135 N.am    1  UNL1       -0.3073
      3 C          -2.7796   -3.4906   -1.2857 C.3     1  UNL1        0.0028
      4 C          -1.5024   -1.3632   -1.0761 C.2     1  UNL1        0.2209
      5 O          -1.2377   -0.3881   -0.2920 O.2     1  UNL1       -0.2752
      6 C          -0.5742   -0.4635   -1.8087 C.3     1  UNL1        0.0670
      7 C          -0.1426    0.6646   -0.9847 C.ar    1  UNL1        0.0597
      8 C           0.8465    0.5570   -0.0478 C.ar    1  UNL1        0.0934
      9 N           0.9252    1.8066    0.5035 N.ar    1  UNL1       -0.2275
     10 C           0.0289    2.6215   -0.0747 C.ar    1  UNL1        0.1385
     11 C          -0.2066    3.9557    0.1980 C.ar    1  UNL1       -0.0185
     12 C          -1.1851    4.6196   -0.5183 C.ar    1  UNL1       -0.0540
     13 C          -1.8861    3.8938   -1.4867 C.ar    1  UNL1       -0.0338
     14 C          -2.9482    4.5990   -2.2693 C.3     1  UNL1       -0.0383
     15 C          -1.5885    2.5565   -1.6985 C.ar    1  UNL1        0.0144
     16 N          -0.6360    1.9123   -1.0006 N.ar    1  UNL1       -0.3023
     17 C           1.7696   -0.4445    0.4525 C.ar    1  UNL1        0.0022
     18 C           1.5446   -1.7432    0.8369 C.ar    1  UNL1       -0.0523
     19 C           2.5115   -2.6054    1.2880 C.ar    1  UNL1       -0.0582
     20 C           3.8121   -2.1653    1.3727 C.ar    1  UNL1       -0.0504
     21 C           4.9111   -3.0504    1.8569 C.3     1  UNL1       -0.0397
     22 C           4.1598   -0.8793    1.0141 C.ar    1  UNL1       -0.0582
     23 C           3.1213   -0.0926    0.5751 C.ar    1  UNL1       -0.0523
     24 H          -3.5890   -2.4526    1.1981 H       1  UNL1        0.0428
     25 H          -3.0488   -0.8133    0.8527 H       1  UNL1        0.0428
     26 H          -1.8975   -2.0697    1.5394 H       1  UNL1        0.0428
     27 H          -2.9523   -3.1332   -2.3225 H       1  UNL1        0.0428
     28 H          -2.0196   -4.2834   -1.2226 H       1  UNL1        0.0428
     29 H          -3.7674   -3.7913   -0.8840 H       1  UNL1        0.0428
     30 H          -0.9925   -0.1560   -2.7880 H       1  UNL1        0.0423
     31 H           0.3252   -1.0910   -2.0729 H       1  UNL1        0.0423
     32 H           0.3454    4.5194    0.9560 H       1  UNL1        0.0654
     33 H          -1.4268    5.6614   -0.3625 H       1  UNL1        0.0622
     34 H          -2.3957    5.3276   -2.9112 H       1  UNL1        0.0278
     35 H          -3.5524    5.1702   -1.5462 H       1  UNL1        0.0278
     36 H          -3.4893    3.8973   -2.9020 H       1  UNL1        0.0278
     37 H          -2.1204    1.9798   -2.4427 H       1  UNL1        0.0816
     38 H           0.5361   -2.1117    0.7847 H       1  UNL1        0.0624
     39 H           2.2365   -3.6105    1.5676 H       1  UNL1        0.0620
     40 H           4.5308   -4.0863    1.7726 H       1  UNL1        0.0278
     41 H           5.0547   -2.8268    2.9284 H       1  UNL1        0.0278
     42 H           5.8332   -2.8882    1.2562 H       1  UNL1        0.0278
     43 H           5.1628   -0.4810    1.0600 H       1  UNL1        0.0620
     44 H           3.3983    0.9329    0.2896 H       1  UNL1        0.0624
@<TRIPOS>BOND
     1     1     2    1
     2     2     3    1
     3     2     4   am
     4     4     5    2
     5     4     6    1
     6     6     7    1
     7     7     8   ar
     8     8     9   ar
     9     9    10   ar
    10    10    11   ar
    11    11    12   ar
    12    12    13   ar
    13    13    14    1
    14    13    15   ar
    15    15    16   ar
    16     8    17    1
    17    17    18   ar
    18    18    19   ar
    19    19    20   ar
    20    20    21    1
    21    20    22   ar
    22    22    23   ar
    23    16     7   ar
    24    23    17   ar
    25    16    10   ar
    26     1    24    1
    27     1    25    1
    28     1    26    1
    29     3    27    1
    30     3    28    1
    31     3    29    1
    32     6    30    1
    33     6    31    1
    34    11    32    1
    35    12    33    1
    36    14    34    1
    37    14    35    1
    38    14    36    1
    39    15    37    1
    40    18    38    1
    41    19    39    1
    42    21    40    1
    43    21    41    1
    44    21    42    1
    45    22    43    1
    46    23    44    1
