@<TRIPOS>MOLECULE
*****
 55 57 0 0 0
SMALL
GASTEIGER

@<TRIPOS>ATOM
      1 C           6.1868    0.8962   -1.1557 C.3     1  UNL1        0.0534
      2 N           5.3561   -0.0260   -0.4279 N.pl3   1  UNL1       -0.2786
      3 C           5.5698   -1.4315   -0.4304 C.cat   1  UNL1        0.3807
      4 N           6.3670   -1.9238   -1.3147 N.pl3   1  UNL1       -0.1295
      5 N           4.9551   -2.3185    0.4850 N.pl3   1  UNL1       -0.2612
      6 C           5.6979   -2.7213    1.6574 C.3     1  UNL1        0.0564
      7 C           3.6342   -2.8199    0.2815 C.3     1  UNL1        0.0923
      8 C           2.6108   -1.7444    0.2098 C.ar    1  UNL1       -0.0139
      9 C           1.9352   -1.2547    1.3001 C.ar    1  UNL1       -0.0549
     10 C           0.9838   -0.2508    1.2148 C.ar    1  UNL1       -0.0493
     11 C           0.6965    0.2835   -0.0035 C.ar    1  UNL1        0.0370
     12 C          -0.2791    1.3388   -0.2220 C.2     1  UNL1        0.2483
     13 O          -0.4854    1.7781   -1.3819 O.2     1  UNL1       -0.2699
     14 N          -1.0566    1.9435    0.8207 N.am    1  UNL1       -0.2808
     15 C          -1.9957    2.9716    0.5486 C.ar    1  UNL1        0.0459
     16 C          -1.6669    4.3134    0.5587 C.ar    1  UNL1       -0.0384
     17 C          -2.5740    5.3049    0.2959 C.ar    1  UNL1       -0.0416
     18 C          -3.8676    4.9649    0.0088 C.ar    1  UNL1        0.0418
     19 CL         -5.0264    6.2184   -0.3263 Cl      1  UNL1       -0.0835
     20 C          -4.2231    3.6284   -0.0079 C.ar    1  UNL1       -0.0295
     21 C          -3.3080    2.6332    0.2570 C.ar    1  UNL1        0.0596
     22 C          -3.6455    1.1921    0.2501 C.2     1  UNL1        0.2511
     23 O          -2.7516    0.3452    0.5041 O.2     1  UNL1       -0.2697
     24 N          -4.9272    0.6879   -0.0273 N.am    1  UNL1       -0.2663
     25 C          -5.3664   -0.6511   -0.0633 C.ar    1  UNL1        0.1252
     26 C          -4.5943   -1.7380    0.1752 C.ar    1  UNL1       -0.0201
     27 C          -5.1674   -3.0196    0.1043 C.ar    1  UNL1       -0.0387
     28 C          -6.4985   -3.1891   -0.2031 C.ar    1  UNL1        0.0592
     29 CL         -7.2251   -4.7933   -0.2941 Cl      1  UNL1       -0.0820
     30 C          -7.2593   -2.0613   -0.4411 C.ar    1  UNL1        0.0480
     31 N          -6.6913   -0.8614   -0.3672 N.ar    1  UNL1       -0.2387
     32 C           1.3641   -0.1946   -1.1112 C.ar    1  UNL1       -0.0493
     33 C           2.3061   -1.1905   -1.0167 C.ar    1  UNL1       -0.0549
     34 H           5.9444    0.8130   -2.2544 H       1  UNL1        0.0618
     35 H           6.0579    1.9160   -0.7790 H       1  UNL1        0.0618
     36 H           7.2792    0.6473   -1.0594 H       1  UNL1        0.0618
     37 H           4.5485    0.3696    0.1344 H       1  UNL1        0.2576
     38 H           6.8560   -1.3204   -2.0241 H       1  UNL1        0.3062
     39 H           5.5054   -2.0078    2.5008 H       1  UNL1        0.0620
     40 H           6.7846   -2.7302    1.3805 H       1  UNL1        0.0620
     41 H           5.4681   -3.7700    1.9604 H       1  UNL1        0.0620
     42 H           3.6432   -3.3912   -0.6912 H       1  UNL1        0.0708
     43 H           3.3067   -3.5441    1.0418 H       1  UNL1        0.0708
     44 H           2.1671   -1.6824    2.2652 H       1  UNL1        0.0621
     45 H           0.4661    0.1145    2.1024 H       1  UNL1        0.0625
     46 H          -0.8814    1.5749    1.7812 H       1  UNL1        0.1552
     47 H          -0.6327    4.5770    0.7886 H       1  UNL1        0.0637
     48 H          -2.2670    6.3625    0.3152 H       1  UNL1        0.0633
     49 H          -5.2529    3.3555   -0.2362 H       1  UNL1        0.0640
     50 H          -5.6555    1.4468   -0.2379 H       1  UNL1        0.1566
     51 H          -3.5564   -1.6288    0.4161 H       1  UNL1        0.0652
     52 H          -4.5205   -3.8609    0.3006 H       1  UNL1        0.0634
     53 H          -8.3142   -2.1890   -0.6850 H       1  UNL1        0.0845
     54 H           1.1619    0.2088   -2.1110 H       1  UNL1        0.0625
     55 H           2.8375   -1.5713   -1.8982 H       1  UNL1        0.0621
@<TRIPOS>BOND
     1     1     2    1
     2     2     3    1
     3     3     4    2
     4     3     5    1
     5     5     6    1
     6     5     7    1
     7     7     8    1
     8     8     9   ar
     9     9    10   ar
    10    10    11   ar
    11    11    12    1
    12    12    13    2
    13    12    14   am
    14    14    15    1
    15    15    16   ar
    16    16    17   ar
    17    17    18   ar
    18    18    19    1
    19    18    20   ar
    20    20    21   ar
    21    21    22    1
    22    22    23    2
    23    22    24   am
    24    24    25    1
    25    25    26   ar
    26    26    27   ar
    27    27    28   ar
    28    28    29    1
    29    28    30   ar
    30    30    31   ar
    31    11    32   ar
    32    32    33   ar
    33    33     8   ar
    34    21    15   ar
    35    31    25   ar
    36     1    34    1
    37     1    35    1
    38     1    36    1
    39     2    37    1
    40     4    38    1
    41     6    39    1
    42     6    40    1
    43     6    41    1
    44     7    42    1
    45     7    43    1
    46     9    44    1
    47    10    45    1
    48    14    46    1
    49    16    47    1
    50    17    48    1
    51    20    49    1
    52    24    50    1
    53    26    51    1
    54    27    52    1
    55    30    53    1
    56    32    54    1
    57    33    55    1
