
     RDKit          3D

 55 57  0  0  0  0  0  0  0  0999 V2000
    6.1868    0.8962   -1.1557 C   0  0  0  0  0  0  0  0  0  0  0  0
    5.3561   -0.0260   -0.4279 N   0  0  0  0  0  0  0  0  0  0  0  0
    5.5698   -1.4315   -0.4304 C   0  0  0  0  0  0  0  0  0  0  0  0
    6.3670   -1.9238   -1.3147 N   0  0  0  0  0  0  0  0  0  0  0  0
    4.9551   -2.3185    0.4850 N   0  0  0  0  0  0  0  0  0  0  0  0
    5.6979   -2.7213    1.6574 C   0  0  0  0  0  0  0  0  0  0  0  0
    3.6342   -2.8199    0.2815 C   0  0  0  0  0  0  0  0  0  0  0  0
    2.6108   -1.7444    0.2098 C   0  0  0  0  0  0  0  0  0  0  0  0
    1.9352   -1.2547    1.3001 C   0  0  0  0  0  0  0  0  0  0  0  0
    0.9838   -0.2508    1.2148 C   0  0  0  0  0  0  0  0  0  0  0  0
    0.6965    0.2835   -0.0035 C   0  0  0  0  0  0  0  0  0  0  0  0
   -0.2791    1.3388   -0.2220 C   0  0  0  0  0  0  0  0  0  0  0  0
   -0.4854    1.7781   -1.3819 O   0  0  0  0  0  0  0  0  0  0  0  0
   -1.0566    1.9435    0.8207 N   0  0  0  0  0  0  0  0  0  0  0  0
   -1.9957    2.9716    0.5486 C   0  0  0  0  0  0  0  0  0  0  0  0
   -1.6669    4.3134    0.5587 C   0  0  0  0  0  0  0  0  0  0  0  0
   -2.5740    5.3049    0.2959 C   0  0  0  0  0  0  0  0  0  0  0  0
   -3.8676    4.9649    0.0088 C   0  0  0  0  0  0  0  0  0  0  0  0
   -5.0264    6.2184   -0.3263 Cl  0  0  0  0  0  0  0  0  0  0  0  0
   -4.2231    3.6284   -0.0079 C   0  0  0  0  0  0  0  0  0  0  0  0
   -3.3080    2.6332    0.2570 C   0  0  0  0  0  0  0  0  0  0  0  0
   -3.6455    1.1921    0.2501 C   0  0  0  0  0  0  0  0  0  0  0  0
   -2.7516    0.3452    0.5041 O   0  0  0  0  0  0  0  0  0  0  0  0
   -4.9272    0.6879   -0.0273 N   0  0  0  0  0  0  0  0  0  0  0  0
   -5.3664   -0.6511   -0.0633 C   0  0  0  0  0  0  0  0  0  0  0  0
   -4.5943   -1.7380    0.1752 C   0  0  0  0  0  0  0  0  0  0  0  0
   -5.1674   -3.0196    0.1043 C   0  0  0  0  0  0  0  0  0  0  0  0
   -6.4985   -3.1891   -0.2031 C   0  0  0  0  0  0  0  0  0  0  0  0
   -7.2251   -4.7933   -0.2941 Cl  0  0  0  0  0  0  0  0  0  0  0  0
   -7.2593   -2.0613   -0.4411 C   0  0  0  0  0  0  0  0  0  0  0  0
   -6.6913   -0.8614   -0.3672 N   0  0  0  0  0  0  0  0  0  0  0  0
    1.3641   -0.1946   -1.1112 C   0  0  0  0  0  0  0  0  0  0  0  0
    2.3061   -1.1905   -1.0167 C   0  0  0  0  0  0  0  0  0  0  0  0
    5.9444    0.8130   -2.2544 H   0  0  0  0  0  0  0  0  0  0  0  0
    6.0579    1.9160   -0.7790 H   0  0  0  0  0  0  0  0  0  0  0  0
    7.2792    0.6473   -1.0594 H   0  0  0  0  0  0  0  0  0  0  0  0
    4.5485    0.3696    0.1344 H   0  0  0  0  0  0  0  0  0  0  0  0
    6.8560   -1.3204   -2.0241 H   0  0  0  0  0  0  0  0  0  0  0  0
    5.5054   -2.0078    2.5008 H   0  0  0  0  0  0  0  0  0  0  0  0
    6.7846   -2.7302    1.3805 H   0  0  0  0  0  0  0  0  0  0  0  0
    5.4681   -3.7700    1.9604 H   0  0  0  0  0  0  0  0  0  0  0  0
    3.6432   -3.3912   -0.6912 H   0  0  0  0  0  0  0  0  0  0  0  0
    3.3067   -3.5441    1.0418 H   0  0  0  0  0  0  0  0  0  0  0  0
    2.1671   -1.6824    2.2652 H   0  0  0  0  0  0  0  0  0  0  0  0
    0.4661    0.1145    2.1024 H   0  0  0  0  0  0  0  0  0  0  0  0
   -0.8814    1.5749    1.7812 H   0  0  0  0  0  0  0  0  0  0  0  0
   -0.6327    4.5770    0.7886 H   0  0  0  0  0  0  0  0  0  0  0  0
   -2.2670    6.3625    0.3152 H   0  0  0  0  0  0  0  0  0  0  0  0
   -5.2529    3.3555   -0.2362 H   0  0  0  0  0  0  0  0  0  0  0  0
   -5.6555    1.4468   -0.2379 H   0  0  0  0  0  0  0  0  0  0  0  0
   -3.5564   -1.6288    0.4161 H   0  0  0  0  0  0  0  0  0  0  0  0
   -4.5205   -3.8609    0.3006 H   0  0  0  0  0  0  0  0  0  0  0  0
   -8.3142   -2.1890   -0.6850 H   0  0  0  0  0  0  0  0  0  0  0  0
    1.1619    0.2088   -2.1110 H   0  0  0  0  0  0  0  0  0  0  0  0
    2.8375   -1.5713   -1.8982 H   0  0  0  0  0  0  0  0  0  0  0  0
  1  2  1  0
  2  3  1  0
  3  4  2  3
  3  5  1  0
  5  6  1  0
  5  7  1  0
  7  8  1  0
  8  9  2  0
  9 10  1  0
 10 11  2  0
 11 12  1  0
 12 13  2  0
 12 14  1  0
 14 15  1  0
 15 16  2  0
 16 17  1  0
 17 18  2  0
 18 19  1  0
 18 20  1  0
 20 21  2  0
 21 22  1  0
 22 23  2  0
 22 24  1  0
 24 25  1  0
 25 26  2  0
 26 27  1  0
 27 28  2  0
 28 29  1  0
 28 30  1  0
 30 31  2  0
 11 32  1  0
 32 33  2  0
 33  8  1  0
 21 15  1  0
 31 25  1  0
  1 34  1  0
  1 35  1  0
  1 36  1  0
  2 37  1  0
  4 38  1  0
  6 39  1  0
  6 40  1  0
  6 41  1  0
  7 42  1  0
  7 43  1  0
  9 44  1  0
 10 45  1  0
 14 46  1  0
 16 47  1  0
 17 48  1  0
 20 49  1  0
 24 50  1  0
 26 51  1  0
 27 52  1  0
 30 53  1  0
 32 54  1  0
 33 55  1  0
M  END
$$$$
