@<TRIPOS>MOLECULE
*****
 39 40 0 0 0
SMALL
GASTEIGER

@<TRIPOS>ATOM
      1 O          -8.5099    0.8928   -0.7003 O.3     1  UNL1       -0.4771
      2 C          -7.1231    0.9016   -0.6429 C.2     1  UNL1        0.3368
      3 O          -6.5929    1.9668   -1.0563 O.2     1  UNL1       -0.2451
      4 C          -6.3592   -0.2401   -0.1413 C.ar    1  UNL1        0.0594
      5 C          -6.9060   -1.4208    0.3187 C.ar    1  UNL1       -0.0477
      6 C          -6.0790   -2.4408    0.7732 C.ar    1  UNL1       -0.0604
      7 C          -4.7086   -2.2741    0.7650 C.ar    1  UNL1       -0.0530
      8 C          -4.1361   -1.1003    0.3090 C.ar    1  UNL1       -0.0030
      9 C          -2.6878   -0.9191    0.2983 C.2     1  UNL1        0.0736
     10 N          -2.2058    0.1942   -0.1369 N.2     1  UNL1       -0.0924
     11 O          -0.8548    0.4305   -0.1744 O.2     1  UNL1       -0.3902
     12 C          -0.0016   -0.5280    0.4153 C.3     1  UNL1        0.1542
     13 C           1.4215   -0.0048    0.2329 C.3     1  UNL1        0.1542
     14 O           2.3582   -0.8839    0.7852 O.2     1  UNL1       -0.3902
     15 N           3.6869   -0.5373    0.6930 N.2     1  UNL1       -0.0909
     16 C           4.1041    0.4271   -0.0610 C.2     1  UNL1        0.0900
     17 C           5.5174    0.7943   -0.1578 C.ar    1  UNL1        0.0697
     18 C           5.9179    1.8349   -0.9790 C.ar    1  UNL1        0.0279
     19 C           7.2794    2.1230   -1.0166 C.ar    1  UNL1        0.2545
     20 O           7.6758    3.0592   -1.7500 O.2     1  UNL1       -0.2677
     21 N           8.1329    1.3899   -0.2657 N.ar    1  UNL1       -0.2751
     22 C           7.7302    0.3777    0.5311 C.ar    1  UNL1        0.3272
     23 O           8.5619   -0.2685    1.2050 O.2     1  UNL1       -0.2467
     24 N           6.4205    0.0930    0.5737 N.ar    1  UNL1       -0.3063
     25 C          -4.9823   -0.1169   -0.1313 C.ar    1  UNL1       -0.0391
     26 H          -9.0926    1.6760   -0.9038 H       1  UNL1        0.2954
     27 H          -7.9921   -1.4825    0.2963 H       1  UNL1        0.0626
     28 H          -6.5382   -3.3550    1.1278 H       1  UNL1        0.0618
     29 H          -4.0447   -3.0520    1.1131 H       1  UNL1        0.0624
     30 H          -2.0506   -1.7153    0.6528 H       1  UNL1        0.0869
     31 H          -0.1947   -0.4743    1.5217 H       1  UNL1        0.0759
     32 H          -0.1268   -1.5287    0.0040 H       1  UNL1        0.0759
     33 H           1.5897    0.0303   -0.8824 H       1  UNL1        0.0759
     34 H           1.4916    1.0319    0.5749 H       1  UNL1        0.0759
     35 H           3.3806    0.9757   -0.6358 H       1  UNL1        0.0884
     36 H           5.1768    2.3809   -1.5543 H       1  UNL1        0.0693
     37 H           9.1402    1.6747   -0.3542 H       1  UNL1        0.1734
     38 H           6.1217   -0.6979    1.1987 H       1  UNL1        0.1704
     39 H          -4.5204    0.7858   -0.4811 H       1  UNL1        0.0632
@<TRIPOS>BOND
     1     1     2    1
     2     2     3    2
     3     2     4    1
     4     4     5   ar
     5     5     6   ar
     6     6     7   ar
     7     7     8   ar
     8     8     9    1
     9     9    10    2
    10    10    11    1
    11    11    12    1
    12    12    13    1
    13    13    14    1
    14    14    15    1
    15    15    16    2
    16    16    17    1
    17    17    18   ar
    18    18    19   ar
    19    19    20    2
    20    19    21   ar
    21    21    22   ar
    22    22    23    2
    23    22    24   ar
    24     8    25   ar
    25    25     4   ar
    26    24    17   ar
    27     1    26    1
    28     5    27    1
    29     6    28    1
    30     7    29    1
    31     9    30    1
    32    12    31    1
    33    12    32    1
    34    13    33    1
    35    13    34    1
    36    16    35    1
    37    18    36    1
    38    21    37    1
    39    24    38    1
    40    25    39    1
