
     RDKit          3D

 39 40  0  0  0  0  0  0  0  0999 V2000
   -8.5099    0.8928   -0.7003 O   0  0  0  0  0  0  0  0  0  0  0  0
   -7.1231    0.9016   -0.6429 C   0  0  0  0  0  0  0  0  0  0  0  0
   -6.5929    1.9668   -1.0563 O   0  0  0  0  0  0  0  0  0  0  0  0
   -6.3592   -0.2401   -0.1413 C   0  0  0  0  0  0  0  0  0  0  0  0
   -6.9060   -1.4208    0.3187 C   0  0  0  0  0  0  0  0  0  0  0  0
   -6.0790   -2.4408    0.7732 C   0  0  0  0  0  0  0  0  0  0  0  0
   -4.7086   -2.2741    0.7650 C   0  0  0  0  0  0  0  0  0  0  0  0
   -4.1361   -1.1003    0.3090 C   0  0  0  0  0  0  0  0  0  0  0  0
   -2.6878   -0.9191    0.2983 C   0  0  0  0  0  0  0  0  0  0  0  0
   -2.2058    0.1942   -0.1369 N   0  0  0  0  0  0  0  0  0  0  0  0
   -0.8548    0.4305   -0.1744 O   0  0  0  0  0  0  0  0  0  0  0  0
   -0.0016   -0.5280    0.4153 C   0  0  0  0  0  0  0  0  0  0  0  0
    1.4215   -0.0048    0.2329 C   0  0  0  0  0  0  0  0  0  0  0  0
    2.3582   -0.8839    0.7852 O   0  0  0  0  0  0  0  0  0  0  0  0
    3.6869   -0.5373    0.6930 N   0  0  0  0  0  0  0  0  0  0  0  0
    4.1041    0.4271   -0.0610 C   0  0  0  0  0  0  0  0  0  0  0  0
    5.5174    0.7943   -0.1578 C   0  0  0  0  0  0  0  0  0  0  0  0
    5.9179    1.8349   -0.9790 C   0  0  0  0  0  0  0  0  0  0  0  0
    7.2794    2.1230   -1.0166 C   0  0  0  0  0  0  0  0  0  0  0  0
    7.6758    3.0592   -1.7500 O   0  0  0  0  0  0  0  0  0  0  0  0
    8.1329    1.3899   -0.2657 N   0  0  0  0  0  0  0  0  0  0  0  0
    7.7302    0.3777    0.5311 C   0  0  0  0  0  0  0  0  0  0  0  0
    8.5619   -0.2685    1.2050 O   0  0  0  0  0  0  0  0  0  0  0  0
    6.4205    0.0930    0.5737 N   0  0  0  0  0  0  0  0  0  0  0  0
   -4.9823   -0.1169   -0.1313 C   0  0  0  0  0  0  0  0  0  0  0  0
   -9.0926    1.6760   -0.9038 H   0  0  0  0  0  0  0  0  0  0  0  0
   -7.9921   -1.4825    0.2963 H   0  0  0  0  0  0  0  0  0  0  0  0
   -6.5382   -3.3550    1.1278 H   0  0  0  0  0  0  0  0  0  0  0  0
   -4.0447   -3.0520    1.1131 H   0  0  0  0  0  0  0  0  0  0  0  0
   -2.0506   -1.7153    0.6528 H   0  0  0  0  0  0  0  0  0  0  0  0
   -0.1947   -0.4743    1.5217 H   0  0  0  0  0  0  0  0  0  0  0  0
   -0.1268   -1.5287    0.0040 H   0  0  0  0  0  0  0  0  0  0  0  0
    1.5897    0.0303   -0.8824 H   0  0  0  0  0  0  0  0  0  0  0  0
    1.4916    1.0319    0.5749 H   0  0  0  0  0  0  0  0  0  0  0  0
    3.3806    0.9757   -0.6358 H   0  0  0  0  0  0  0  0  0  0  0  0
    5.1768    2.3809   -1.5543 H   0  0  0  0  0  0  0  0  0  0  0  0
    9.1402    1.6747   -0.3542 H   0  0  0  0  0  0  0  0  0  0  0  0
    6.1217   -0.6979    1.1987 H   0  0  0  0  0  0  0  0  0  0  0  0
   -4.5204    0.7858   -0.4811 H   0  0  0  0  0  0  0  0  0  0  0  0
  1  2  1  0
  2  3  2  0
  2  4  1  0
  4  5  2  0
  5  6  1  0
  6  7  2  0
  7  8  1  0
  8  9  1  0
  9 10  2  0
 10 11  1  0
 11 12  1  0
 12 13  1  0
 13 14  1  0
 14 15  1  0
 15 16  2  0
 16 17  1  0
 17 18  2  0
 18 19  1  0
 19 20  2  0
 19 21  1  0
 21 22  1  0
 22 23  2  0
 22 24  1  0
  8 25  2  0
 25  4  1  0
 24 17  1  0
  1 26  1  0
  5 27  1  0
  6 28  1  0
  7 29  1  0
  9 30  1  0
 12 31  1  0
 12 32  1  0
 13 33  1  0
 13 34  1  0
 16 35  1  0
 18 36  1  0
 21 37  1  0
 24 38  1  0
 25 39  1  0
M  END
$$$$
