@<TRIPOS>MOLECULE
*****
 50 53 0 0 0
SMALL
GASTEIGER

@<TRIPOS>ATOM
      1 C           4.3148   -3.0552    1.0679 C.3     1  UNL1       -0.0223
      2 C           4.5364   -1.7566    0.3533 C.ar    1  UNL1        0.0389
      3 C           3.5041   -1.0609   -0.2391 C.ar    1  UNL1       -0.0312
      4 C           3.6909    0.1266   -0.8954 C.ar    1  UNL1        0.0065
      5 C           2.6793    0.8422   -1.4956 C.ar    1  UNL1        0.0426
      6 N           1.3618    0.3332   -1.4397 N.am    1  UNL1       -0.2689
      7 C           0.5071    0.6860   -0.3642 C.2     1  UNL1        0.3044
      8 O           0.9032    1.4571    0.5595 O.2     1  UNL1       -0.2525
      9 N          -0.8276    0.2041   -0.2561 N.am    1  UNL1       -0.2921
     10 C          -1.7021    0.5770    0.8626 C.3     1  UNL1        0.0570
     11 C          -1.9530   -0.6918    1.6334 C.3     1  UNL1        0.0093
     12 C          -3.1974   -1.4138    1.2252 C.3     1  UNL1        0.1072
     13 C          -3.4117   -2.5534    2.2025 C.3     1  UNL1       -0.0251
     14 C          -3.1525   -1.9963   -0.1502 C.3     1  UNL1       -0.0251
     15 O          -4.2636   -0.4823    1.2940 O.3     1  UNL1       -0.4829
     16 C          -4.1509    0.7249    0.6327 C.ar    1  UNL1        0.1641
     17 C          -2.9107    1.2551    0.4144 C.ar    1  UNL1        0.0176
     18 C          -2.8145    2.4576   -0.2452 C.ar    1  UNL1       -0.0504
     19 C          -3.9452    3.1313   -0.6865 C.ar    1  UNL1       -0.0230
     20 C          -5.1969    2.5831   -0.4589 C.ar    1  UNL1        0.1621
     21 F          -6.3108    3.2184   -0.8779 F       1  UNL1       -0.2024
     22 C          -5.2975    1.3660    0.2086 C.ar    1  UNL1        0.2001
     23 F          -6.5473    0.8819    0.4008 F       1  UNL1       -0.1986
     24 C           2.9696    2.0160   -2.1250 C.ar    1  UNL1       -0.0398
     25 C           4.2504    2.5156   -2.1822 C.ar    1  UNL1       -0.0594
     26 C           5.2664    1.8187   -1.5920 C.ar    1  UNL1       -0.0525
     27 C           4.9854    0.6283   -0.9513 C.ar    1  UNL1        0.0020
     28 C           6.0296   -0.0766   -0.3513 C.ar    1  UNL1        0.0356
     29 N           5.7740   -1.2476    0.2829 N.ar    1  UNL1       -0.2595
     30 H           4.3080   -2.7837    2.1635 H       1  UNL1        0.0292
     31 H           3.2769   -3.3796    0.8335 H       1  UNL1        0.0292
     32 H           5.0815   -3.7955    0.8215 H       1  UNL1        0.0292
     33 H           2.4965   -1.4546   -0.1937 H       1  UNL1        0.0642
     34 H           1.0370   -0.3004   -2.1992 H       1  UNL1        0.1564
     35 H          -1.1995   -0.4300   -0.9867 H       1  UNL1        0.1508
     36 H          -1.1662    1.2591    1.5614 H       1  UNL1        0.0551
     37 H          -1.0969   -1.4172    1.5112 H       1  UNL1        0.0325
     38 H          -2.0212   -0.4965    2.7235 H       1  UNL1        0.0325
     39 H          -2.4892   -2.7366    2.8235 H       1  UNL1        0.0268
     40 H          -3.6053   -3.5165    1.6771 H       1  UNL1        0.0268
     41 H          -4.2617   -2.3694    2.8903 H       1  UNL1        0.0268
     42 H          -3.9447   -2.7993   -0.1862 H       1  UNL1        0.0268
     43 H          -2.2035   -2.5179   -0.3626 H       1  UNL1        0.0268
     44 H          -3.4431   -1.2781   -0.9426 H       1  UNL1        0.0268
     45 H          -1.8726    2.9270   -0.4480 H       1  UNL1        0.0623
     46 H          -3.8769    4.0790   -1.2069 H       1  UNL1        0.0647
     47 H           2.1464    2.5610   -2.5917 H       1  UNL1        0.0636
     48 H           4.4095    3.4459   -2.6938 H       1  UNL1        0.0618
     49 H           6.2993    2.1731   -1.6099 H       1  UNL1        0.0624
     50 H           7.0343    0.3416   -0.4114 H       1  UNL1        0.0836
@<TRIPOS>BOND
     1     1     2    1
     2     2     3   ar
     3     3     4   ar
     4     4     5   ar
     5     5     6    1
     6     6     7   am
     7     7     8    2
     8     7     9   am
     9     9    10    1
    10    10    11    1
    11    11    12    1
    12    12    13    1
    13    12    14    1
    14    12    15    1
    15    15    16    1
    16    16    17   ar
    17    17    18   ar
    18    18    19   ar
    19    19    20   ar
    20    20    21    1
    21    20    22   ar
    22    22    23    1
    23     5    24   ar
    24    24    25   ar
    25    25    26   ar
    26    26    27   ar
    27    27    28   ar
    28    28    29   ar
    29    29     2   ar
    30    27     4   ar
    31    17    10    1
    32    22    16   ar
    33     1    30    1
    34     1    31    1
    35     1    32    1
    36     3    33    1
    37     6    34    1
    38     9    35    1
    39    10    36    1
    40    11    37    1
    41    11    38    1
    42    13    39    1
    43    13    40    1
    44    13    41    1
    45    14    42    1
    46    14    43    1
    47    14    44    1
    48    18    45    1
    49    19    46    1
    50    24    47    1
    51    25    48    1
    52    26    49    1
    53    28    50    1
