
     RDKit          3D

 50 53  0  0  0  0  0  0  0  0999 V2000
    4.3148   -3.0552    1.0679 C   0  0  0  0  0  0  0  0  0  0  0  0
    4.5364   -1.7566    0.3533 C   0  0  0  0  0  0  0  0  0  0  0  0
    3.5041   -1.0609   -0.2391 C   0  0  0  0  0  0  0  0  0  0  0  0
    3.6909    0.1266   -0.8954 C   0  0  0  0  0  0  0  0  0  0  0  0
    2.6793    0.8422   -1.4956 C   0  0  0  0  0  0  0  0  0  0  0  0
    1.3618    0.3332   -1.4397 N   0  0  0  0  0  0  0  0  0  0  0  0
    0.5071    0.6860   -0.3642 C   0  0  0  0  0  0  0  0  0  0  0  0
    0.9032    1.4571    0.5595 O   0  0  0  0  0  0  0  0  0  0  0  0
   -0.8276    0.2041   -0.2561 N   0  0  0  0  0  0  0  0  0  0  0  0
   -1.7021    0.5770    0.8626 C   0  0  2  0  0  0  0  0  0  0  0  0
   -1.9530   -0.6918    1.6334 C   0  0  0  0  0  0  0  0  0  0  0  0
   -3.1974   -1.4138    1.2252 C   0  0  0  0  0  0  0  0  0  0  0  0
   -3.4117   -2.5534    2.2025 C   0  0  0  0  0  0  0  0  0  0  0  0
   -3.1525   -1.9963   -0.1502 C   0  0  0  0  0  0  0  0  0  0  0  0
   -4.2636   -0.4823    1.2940 O   0  0  0  0  0  0  0  0  0  0  0  0
   -4.1509    0.7249    0.6327 C   0  0  0  0  0  0  0  0  0  0  0  0
   -2.9107    1.2551    0.4144 C   0  0  0  0  0  0  0  0  0  0  0  0
   -2.8145    2.4576   -0.2452 C   0  0  0  0  0  0  0  0  0  0  0  0
   -3.9452    3.1313   -0.6865 C   0  0  0  0  0  0  0  0  0  0  0  0
   -5.1969    2.5831   -0.4589 C   0  0  0  0  0  0  0  0  0  0  0  0
   -6.3108    3.2184   -0.8779 F   0  0  0  0  0  0  0  0  0  0  0  0
   -5.2975    1.3660    0.2086 C   0  0  0  0  0  0  0  0  0  0  0  0
   -6.5473    0.8819    0.4008 F   0  0  0  0  0  0  0  0  0  0  0  0
    2.9696    2.0160   -2.1250 C   0  0  0  0  0  0  0  0  0  0  0  0
    4.2504    2.5156   -2.1822 C   0  0  0  0  0  0  0  0  0  0  0  0
    5.2664    1.8187   -1.5920 C   0  0  0  0  0  0  0  0  0  0  0  0
    4.9854    0.6283   -0.9513 C   0  0  0  0  0  0  0  0  0  0  0  0
    6.0296   -0.0766   -0.3513 C   0  0  0  0  0  0  0  0  0  0  0  0
    5.7740   -1.2476    0.2829 N   0  0  0  0  0  0  0  0  0  0  0  0
    4.3080   -2.7837    2.1635 H   0  0  0  0  0  0  0  0  0  0  0  0
    3.2769   -3.3796    0.8335 H   0  0  0  0  0  0  0  0  0  0  0  0
    5.0815   -3.7955    0.8215 H   0  0  0  0  0  0  0  0  0  0  0  0
    2.4965   -1.4546   -0.1937 H   0  0  0  0  0  0  0  0  0  0  0  0
    1.0370   -0.3004   -2.1992 H   0  0  0  0  0  0  0  0  0  0  0  0
   -1.1995   -0.4300   -0.9867 H   0  0  0  0  0  0  0  0  0  0  0  0
   -1.1662    1.2591    1.5614 H   0  0  0  0  0  0  0  0  0  0  0  0
   -1.0969   -1.4172    1.5112 H   0  0  0  0  0  0  0  0  0  0  0  0
   -2.0212   -0.4965    2.7235 H   0  0  0  0  0  0  0  0  0  0  0  0
   -2.4892   -2.7366    2.8235 H   0  0  0  0  0  0  0  0  0  0  0  0
   -3.6053   -3.5165    1.6771 H   0  0  0  0  0  0  0  0  0  0  0  0
   -4.2617   -2.3694    2.8903 H   0  0  0  0  0  0  0  0  0  0  0  0
   -3.9447   -2.7993   -0.1862 H   0  0  0  0  0  0  0  0  0  0  0  0
   -2.2035   -2.5179   -0.3626 H   0  0  0  0  0  0  0  0  0  0  0  0
   -3.4431   -1.2781   -0.9426 H   0  0  0  0  0  0  0  0  0  0  0  0
   -1.8726    2.9270   -0.4480 H   0  0  0  0  0  0  0  0  0  0  0  0
   -3.8769    4.0790   -1.2069 H   0  0  0  0  0  0  0  0  0  0  0  0
    2.1464    2.5610   -2.5917 H   0  0  0  0  0  0  0  0  0  0  0  0
    4.4095    3.4459   -2.6938 H   0  0  0  0  0  0  0  0  0  0  0  0
    6.2993    2.1731   -1.6099 H   0  0  0  0  0  0  0  0  0  0  0  0
    7.0343    0.3416   -0.4114 H   0  0  0  0  0  0  0  0  0  0  0  0
  1  2  1  0
  2  3  2  0
  3  4  1  0
  4  5  2  0
  5  6  1  0
  6  7  1  0
  7  8  2  0
  7  9  1  0
  9 10  1  0
 10 11  1  0
 11 12  1  0
 12 13  1  0
 12 14  1  0
 12 15  1  0
 15 16  1  0
 16 17  2  0
 17 18  1  0
 18 19  2  0
 19 20  1  0
 20 21  1  0
 20 22  2  0
 22 23  1  0
  5 24  1  0
 24 25  2  0
 25 26  1  0
 26 27  2  0
 27 28  1  0
 28 29  2  0
 29  2  1  0
 27  4  1  0
 17 10  1  0
 22 16  1  0
  1 30  1  0
  1 31  1  0
  1 32  1  0
  3 33  1  0
  6 34  1  0
  9 35  1  0
 10 36  1  1
 11 37  1  0
 11 38  1  0
 13 39  1  0
 13 40  1  0
 13 41  1  0
 14 42  1  0
 14 43  1  0
 14 44  1  0
 18 45  1  0
 19 46  1  0
 24 47  1  0
 25 48  1  0
 26 49  1  0
 28 50  1  0
M  END
$$$$
