
     RDKit          3D

 65 68  0  0  0  0  0  0  0  0999 V2000
    5.6993    0.5674    1.3863 O   0  0  0  0  0  0  0  0  0  0  0  0
    5.0942    0.6746    0.2672 C   0  0  0  0  0  0  0  0  0  0  0  0
    3.7007    0.4283    0.3140 N   0  0  0  0  0  0  0  0  0  0  0  0
    3.0170    0.0764    1.5666 C   0  0  1  0  0  0  0  0  0  0  0  0
    1.9396    1.0601    1.9040 C   0  0  0  0  0  0  0  0  0  0  0  0
    1.7822    1.0704    3.2922 O   0  0  0  0  0  0  0  0  0  0  0  0
    1.2991   -0.1338    3.7772 C   0  0  0  0  0  0  0  0  0  0  0  0
    2.3476   -1.1921    3.9037 C   0  0  0  0  0  0  0  0  0  0  0  0
    2.4933   -2.0471    2.6744 C   0  0  0  0  0  0  0  0  0  0  0  0
    2.3904   -1.2790    1.3966 C   0  0  1  0  0  0  0  0  0  0  0  0
    1.0122   -1.1180    1.0533 O   0  0  0  0  0  0  0  0  0  0  0  0
    0.5056   -1.6030   -0.1344 C   0  0  0  0  0  0  0  0  0  0  0  0
    1.3420   -2.1937   -0.8876 O   0  0  0  0  0  0  0  0  0  0  0  0
   -0.8926   -1.4592   -0.5205 C   0  0  0  0  0  0  0  0  0  0  0  0
   -1.3983   -1.9463   -1.7118 C   0  0  0  0  0  0  0  0  0  0  0  0
   -2.7238   -1.7935   -2.0477 C   0  0  0  0  0  0  0  0  0  0  0  0
   -3.2260   -2.2876   -3.2509 O   0  0  0  0  0  0  0  0  0  0  0  0
   -3.6282   -1.1367   -1.1997 C   0  0  0  0  0  0  0  0  0  0  0  0
   -5.0321   -1.1048   -1.5546 C   0  0  0  0  0  0  0  0  0  0  0  0
   -5.4178   -2.0584   -2.3540 O   0  0  0  0  0  0  0  0  0  0  0  0
   -6.0152   -0.1615   -1.1161 C   0  0  0  0  0  0  0  0  0  0  0  0
   -7.2941   -0.7010   -0.8258 C   0  0  0  0  0  0  0  0  0  0  0  0
   -7.5261   -2.0606   -0.9378 O   0  0  0  0  0  0  0  0  0  0  0  0
   -8.2916    0.1272   -0.4364 C   0  0  0  0  0  0  0  0  0  0  0  0
   -8.1324    1.4947   -0.3029 C   0  0  0  0  0  0  0  0  0  0  0  0
   -6.9099    2.0178   -0.5834 C   0  0  0  0  0  0  0  0  0  0  0  0
   -5.8408    1.1872   -0.9971 C   0  0  0  0  0  0  0  0  0  0  0  0
   -4.6544    1.9108   -1.4734 C   0  0  0  0  0  0  0  0  0  0  0  0
   -3.7550    1.3649   -2.1138 O   0  0  0  0  0  0  0  0  0  0  0  0
   -4.5045    3.2687   -1.2094 O   0  0  0  0  0  0  0  0  0  0  0  0
   -3.1250   -0.6415    0.0098 C   0  0  0  0  0  0  0  0  0  0  0  0
   -3.9917    0.0163    0.8931 O   0  0  0  0  0  0  0  0  0  0  0  0
   -1.8066   -0.8225    0.2854 C   0  0  0  0  0  0  0  0  0  0  0  0
    5.8212    1.0264   -0.9460 C   0  0  0  0  0  0  0  0  0  0  0  0
    7.1814    1.2431   -0.8655 C   0  0  0  0  0  0  0  0  0  0  0  0
    7.9294    1.5790   -1.9745 C   0  0  0  0  0  0  0  0  0  0  0  0
    7.3013    1.7012   -3.1948 C   0  0  0  0  0  0  0  0  0  0  0  0
    7.9955    2.0378   -4.3566 O   0  0  0  0  0  0  0  0  0  0  0  0
    5.9437    1.4928   -3.3170 C   0  0  0  0  0  0  0  0  0  0  0  0
    5.2336    1.1584   -2.1815 C   0  0  0  0  0  0  0  0  0  0  0  0
    3.1587    0.5025   -0.5722 H   0  0  0  0  0  0  0  0  0  0  0  0
    3.7328    0.0406    2.4062 H   0  0  0  0  0  0  0  0  0  0  0  0
    0.9502    0.7955    1.4823 H   0  0  0  0  0  0  0  0  0  0  0  0
    2.2155    2.1085    1.6197 H   0  0  0  0  0  0  0  0  0  0  0  0
    0.9303    0.0831    4.8229 H   0  0  0  0  0  0  0  0  0  0  0  0
    0.4023   -0.4643    3.2225 H   0  0  0  0  0  0  0  0  0  0  0  0
    2.0285   -1.8871    4.7350 H   0  0  0  0  0  0  0  0  0  0  0  0
    3.2879   -0.7388    4.2432 H   0  0  0  0  0  0  0  0  0  0  0  0
    1.6483   -2.7952    2.6862 H   0  0  0  0  0  0  0  0  0  0  0  0
    3.4285   -2.6155    2.7189 H   0  0  0  0  0  0  0  0  0  0  0  0
    2.9025   -1.8279    0.5701 H   0  0  0  0  0  0  0  0  0  0  0  0
   -0.7343   -2.4653   -2.4061 H   0  0  0  0  0  0  0  0  0  0  0  0
   -3.1388   -3.2610   -3.4753 H   0  0  0  0  0  0  0  0  0  0  0  0
   -7.8695   -2.3797   -1.8521 H   0  0  0  0  0  0  0  0  0  0  0  0
   -9.2865   -0.2667   -0.2071 H   0  0  0  0  0  0  0  0  0  0  0  0
   -8.9814    2.1050    0.0193 H   0  0  0  0  0  0  0  0  0  0  0  0
   -6.7816    3.0833   -0.4807 H   0  0  0  0  0  0  0  0  0  0  0  0
   -3.5359    3.6132   -1.1188 H   0  0  0  0  0  0  0  0  0  0  0  0
   -4.1194   -0.2788    1.8508 H   0  0  0  0  0  0  0  0  0  0  0  0
   -1.4257   -0.4287    1.2353 H   0  0  0  0  0  0  0  0  0  0  0  0
    7.6996    1.1533    0.0831 H   0  0  0  0  0  0  0  0  0  0  0  0
    8.9901    1.7519   -1.9321 H   0  0  0  0  0  0  0  0  0  0  0  0
    8.9904    1.8215   -4.3942 H   0  0  0  0  0  0  0  0  0  0  0  0
    5.4676    1.5940   -4.2875 H   0  0  0  0  0  0  0  0  0  0  0  0
    4.1760    0.9932   -2.2618 H   0  0  0  0  0  0  0  0  0  0  0  0
  1  2  2  0
  2  3  1  0
  3  4  1  0
  4  5  1  0
  5  6  1  0
  6  7  1  0
  7  8  1  0
  8  9  1  0
  9 10  1  0
 10 11  1  0
 11 12  1  0
 12 13  2  0
 12 14  1  0
 14 15  2  0
 15 16  1  0
 16 17  1  0
 16 18  2  0
 18 19  1  0
 19 20  2  0
 19 21  1  0
 21 22  2  0
 22 23  1  0
 22 24  1  0
 24 25  2  0
 25 26  1  0
 26 27  2  0
 27 28  1  0
 28 29  2  0
 28 30  1  0
 18 31  1  0
 31 32  1  0
 31 33  2  0
  2 34  1  0
 34 35  2  0
 35 36  1  0
 36 37  2  0
 37 38  1  0
 37 39  1  0
 39 40  2  0
 10  4  1  0
 33 14  1  0
 40 34  1  0
 27 21  1  0
  3 41  1  0
  4 42  1  1
  5 43  1  0
  5 44  1  0
  7 45  1  0
  7 46  1  0
  8 47  1  0
  8 48  1  0
  9 49  1  0
  9 50  1  0
 10 51  1  6
 15 52  1  0
 17 53  1  0
 23 54  1  0
 24 55  1  0
 25 56  1  0
 26 57  1  0
 30 58  1  0
 32 59  1  0
 33 60  1  0
 35 61  1  0
 36 62  1  0
 38 63  1  0
 39 64  1  0
 40 65  1  0
M  END
$$$$
