@<TRIPOS>MOLECULE
*****
 65 68 0 0 0
SMALL
GASTEIGER

@<TRIPOS>ATOM
      1 O           5.6993    0.5674    1.3863 O.2     1  UNL1       -0.2702
      2 C           5.0942    0.6746    0.2672 C.2     1  UNL1        0.2445
      3 N           3.7007    0.4283    0.3140 N.am    1  UNL1       -0.3027
      4 C           3.0170    0.0764    1.5666 C.3     1  UNL1        0.0836
      5 C           1.9396    1.0601    1.9040 C.3     1  UNL1        0.0695
      6 O           1.7822    1.0704    3.2922 O.3     1  UNL1       -0.3778
      7 C           1.2991   -0.1338    3.7772 C.3     1  UNL1        0.0479
      8 C           2.3476   -1.1921    3.9037 C.3     1  UNL1       -0.0261
      9 C           2.4933   -2.0471    2.6744 C.3     1  UNL1       -0.0117
     10 C           2.3904   -1.2790    1.3966 C.3     1  UNL1        0.1238
     11 O           1.0122   -1.1180    1.0533 O.3     1  UNL1       -0.4559
     12 C           0.5056   -1.6030   -0.1344 C.2     1  UNL1        0.3397
     13 O           1.3420   -2.1937   -0.8876 O.2     1  UNL1       -0.2449
     14 C          -0.8926   -1.4592   -0.5205 C.ar    1  UNL1        0.0659
     15 C          -1.3983   -1.9463   -1.7118 C.ar    1  UNL1       -0.0053
     16 C          -2.7238   -1.7935   -2.0477 C.ar    1  UNL1        0.1320
     17 O          -3.2260   -2.2876   -3.2509 O.3     1  UNL1       -0.5059
     18 C          -3.6282   -1.1367   -1.1997 C.ar    1  UNL1        0.1050
     19 C          -5.0321   -1.1048   -1.5546 C.2     1  UNL1        0.2044
     20 O          -5.4178   -2.0584   -2.3540 O.2     1  UNL1       -0.2863
     21 C          -6.0152   -0.1615   -1.1161 C.ar    1  UNL1        0.0778
     22 C          -7.2941   -0.7010   -0.8258 C.ar    1  UNL1        0.1285
     23 O          -7.5261   -2.0606   -0.9378 O.3     1  UNL1       -0.5060
     24 C          -8.2916    0.1272   -0.4364 C.ar    1  UNL1       -0.0194
     25 C          -8.1324    1.4947   -0.3029 C.ar    1  UNL1       -0.0575
     26 C          -6.9099    2.0178   -0.5834 C.ar    1  UNL1       -0.0468
     27 C          -5.8408    1.1872   -0.9971 C.ar    1  UNL1        0.0731
     28 C          -4.6544    1.9108   -1.4734 C.2     1  UNL1        0.3376
     29 O          -3.7550    1.3649   -2.1138 O.2     1  UNL1       -0.2451
     30 O          -4.5045    3.2687   -1.2094 O.3     1  UNL1       -0.4771
     31 C          -3.1250   -0.6415    0.0098 C.ar    1  UNL1        0.1320
     32 O          -3.9917    0.0163    0.8931 O.3     1  UNL1       -0.5059
     33 C          -1.8066   -0.8225    0.2854 C.ar    1  UNL1       -0.0053
     34 C           5.8212    1.0264   -0.9460 C.ar    1  UNL1        0.0369
     35 C           7.1814    1.2431   -0.8655 C.ar    1  UNL1       -0.0462
     36 C           7.9294    1.5790   -1.9745 C.ar    1  UNL1       -0.0195
     37 C           7.3013    1.7012   -3.1948 C.ar    1  UNL1        0.1169
     38 O           7.9955    2.0378   -4.3566 O.3     1  UNL1       -0.5068
     39 C           5.9437    1.4928   -3.3170 C.ar    1  UNL1       -0.0195
     40 C           5.2336    1.1584   -2.1815 C.ar    1  UNL1       -0.0462
     41 H           3.1587    0.5025   -0.5722 H       1  UNL1        0.1495
     42 H           3.7328    0.0406    2.4062 H       1  UNL1        0.0558
     43 H           0.9502    0.7955    1.4823 H       1  UNL1        0.0579
     44 H           2.2155    2.1085    1.6197 H       1  UNL1        0.0579
     45 H           0.9303    0.0831    4.8229 H       1  UNL1        0.0560
     46 H           0.4023   -0.4643    3.2225 H       1  UNL1        0.0560
     47 H           2.0285   -1.8871    4.7350 H       1  UNL1        0.0288
     48 H           3.2879   -0.7388    4.2432 H       1  UNL1        0.0288
     49 H           1.6483   -2.7952    2.6862 H       1  UNL1        0.0302
     50 H           3.4285   -2.6155    2.7189 H       1  UNL1        0.0302
     51 H           2.9025   -1.8279    0.5701 H       1  UNL1        0.0753
     52 H          -0.7343   -2.4653   -2.4061 H       1  UNL1        0.0662
     53 H          -3.1388   -3.2610   -3.4753 H       1  UNL1        0.2922
     54 H          -7.8695   -2.3797   -1.8521 H       1  UNL1        0.2922
     55 H          -9.2865   -0.2667   -0.2071 H       1  UNL1        0.0654
     56 H          -8.9814    2.1050    0.0193 H       1  UNL1        0.0619
     57 H          -6.7816    3.0833   -0.4807 H       1  UNL1        0.0626
     58 H          -3.5359    3.6132   -1.1188 H       1  UNL1        0.2954
     59 H          -4.1194   -0.2788    1.8508 H       1  UNL1        0.2922
     60 H          -1.4257   -0.4287    1.2353 H       1  UNL1        0.0662
     61 H           7.6996    1.1533    0.0831 H       1  UNL1        0.0626
     62 H           8.9901    1.7519   -1.9321 H       1  UNL1        0.0654
     63 H           8.9904    1.8215   -4.3942 H       1  UNL1        0.2921
     64 H           5.4676    1.5940   -4.2875 H       1  UNL1        0.0654
     65 H           4.1760    0.9932   -2.2618 H       1  UNL1        0.0626
@<TRIPOS>BOND
     1     1     2    2
     2     2     3   am
     3     3     4    1
     4     4     5    1
     5     5     6    1
     6     6     7    1
     7     7     8    1
     8     8     9    1
     9     9    10    1
    10    10    11    1
    11    11    12    1
    12    12    13    2
    13    12    14    1
    14    14    15   ar
    15    15    16   ar
    16    16    17    1
    17    16    18   ar
    18    18    19    1
    19    19    20    2
    20    19    21    1
    21    21    22   ar
    22    22    23    1
    23    22    24   ar
    24    24    25   ar
    25    25    26   ar
    26    26    27   ar
    27    27    28    1
    28    28    29    2
    29    28    30    1
    30    18    31   ar
    31    31    32    1
    32    31    33   ar
    33     2    34    1
    34    34    35   ar
    35    35    36   ar
    36    36    37   ar
    37    37    38    1
    38    37    39   ar
    39    39    40   ar
    40    10     4    1
    41    33    14   ar
    42    40    34   ar
    43    27    21   ar
    44     3    41    1
    45     4    42    1
    46     5    43    1
    47     5    44    1
    48     7    45    1
    49     7    46    1
    50     8    47    1
    51     8    48    1
    52     9    49    1
    53     9    50    1
    54    10    51    1
    55    15    52    1
    56    17    53    1
    57    23    54    1
    58    24    55    1
    59    25    56    1
    60    26    57    1
    61    30    58    1
    62    32    59    1
    63    33    60    1
    64    35    61    1
    65    36    62    1
    66    38    63    1
    67    39    64    1
    68    40    65    1
