@<TRIPOS>MOLECULE
*****
 30 29 0 0 0
SMALL
GASTEIGER

@<TRIPOS>ATOM
      1 C          -1.9693   -0.5075   -0.0318 C.3     1  UNL1        0.0511
      2 C          -1.1397   -1.6963    0.3175 C.3     1  UNL1       -0.0426
      3 C          -1.4914    0.7741    0.5269 C.3     1  UNL1       -0.0307
      4 C          -0.1738    1.2871    0.1099 C.3     1  UNL1       -0.0511
      5 C           0.9880    0.4472    0.4356 C.3     1  UNL1       -0.0530
      6 C           2.3089    1.1456    0.0016 C.3     1  UNL1       -0.0533
      7 C           3.4127    0.1856    0.3898 C.3     1  UNL1       -0.0559
      8 C           3.1867   -1.1139   -0.3477 C.3     1  UNL1       -0.0653
      9 N          -3.3395   -0.7641    0.4342 N.2     1  UNL1       -0.2546
     10 C          -4.3030   -0.0324    0.0260 C.2     1  UNL1        0.1685
     11 O          -4.1911    1.0494   -0.8681 O.2     1  UNL1       -0.4978
     12 H          -2.0308   -0.4444   -1.1776 H       1  UNL1        0.0542
     13 H          -0.5151   -1.4691    1.1942 H       1  UNL1        0.0250
     14 H          -1.8440   -2.5586    0.5854 H       1  UNL1        0.0250
     15 H          -0.5609   -2.0120   -0.5707 H       1  UNL1        0.0250
     16 H          -2.2862    1.5993    0.3634 H       1  UNL1        0.0286
     17 H          -1.5533    0.7033    1.6741 H       1  UNL1        0.0286
     18 H          -0.1573    1.4974   -1.0228 H       1  UNL1        0.0266
     19 H          -0.0495    2.3405    0.5464 H       1  UNL1        0.0266
     20 H           1.0517    0.2500    1.5191 H       1  UNL1        0.0265
     21 H           0.9962   -0.4667   -0.1756 H       1  UNL1        0.0265
     22 H           2.4383    2.0992    0.5195 H       1  UNL1        0.0265
     23 H           2.3145    1.2377   -1.1021 H       1  UNL1        0.0265
     24 H           3.3807   -0.0275    1.4794 H       1  UNL1        0.0263
     25 H           4.4075    0.6159    0.1320 H       1  UNL1        0.0263
     26 H           4.1661   -1.6485   -0.5054 H       1  UNL1        0.0230
     27 H           2.7110   -0.8872   -1.3196 H       1  UNL1        0.0230
     28 H           2.5058   -1.7787    0.2263 H       1  UNL1        0.0230
     29 H          -4.7847   -0.7377    0.6861 H       1  UNL1        0.1245
     30 H          -3.4788    0.9122   -1.6001 H       1  UNL1        0.2931
@<TRIPOS>BOND
     1     1     2    1
     2     1     3    1
     3     3     4    1
     4     4     5    1
     5     5     6    1
     6     6     7    1
     7     7     8    1
     8     1     9    1
     9     9    10    2
    10    10    11    1
    11     1    12    1
    12     2    13    1
    13     2    14    1
    14     2    15    1
    15     3    16    1
    16     3    17    1
    17     4    18    1
    18     4    19    1
    19     5    20    1
    20     5    21    1
    21     6    22    1
    22     6    23    1
    23     7    24    1
    24     7    25    1
    25     8    26    1
    26     8    27    1
    27     8    28    1
    28    10    29    1
    29    11    30    1
