
     RDKit          3D

 94 99  0  0  0  0  0  0  0  0999 V2000
   -8.3849   -2.8470   -1.4354 C   0  0  0  0  0  0  0  0  0  0  0  0
   -8.0189   -2.3201   -0.1810 O   0  0  0  0  0  0  0  0  0  0  0  0
   -7.0720   -1.2946   -0.1474 C   0  0  0  0  0  0  0  0  0  0  0  0
   -6.5146   -0.8163   -1.3209 C   0  0  0  0  0  0  0  0  0  0  0  0
   -5.5722    0.2020   -1.3304 C   0  0  0  0  0  0  0  0  0  0  0  0
   -5.2332    0.6996   -0.0980 C   0  0  0  0  0  0  0  0  0  0  0  0
   -5.7708    0.2427    1.0751 C   0  0  0  0  0  0  0  0  0  0  0  0
   -6.7319   -0.7958    1.0905 C   0  0  0  0  0  0  0  0  0  0  0  0
   -7.2098   -1.1863    2.3057 O   0  0  0  0  0  0  0  0  0  0  0  0
   -8.1148   -2.1175    2.7338 C   0  0  0  0  0  0  0  0  0  0  0  0
   -7.4672   -3.2270    3.5705 C   0  0  0  0  0  0  0  0  0  0  0  0
   -9.2478   -1.4766    3.5259 C   0  0  0  0  0  0  0  0  0  0  0  0
   -4.2030    1.8190   -0.0929 C   0  0  2  0  0  0  0  0  0  0  0  0
   -4.8705    3.0152   -0.5825 C   0  0  0  0  0  0  0  0  0  0  0  0
   -6.2419    3.1098   -0.5374 C   0  0  0  0  0  0  0  0  0  0  0  0
   -6.9202    4.2195   -0.9851 C   0  0  0  0  0  0  0  0  0  0  0  0
   -6.2039    5.2798   -1.4996 C   0  0  0  0  0  0  0  0  0  0  0  0
   -7.0763    6.7063   -2.0767 Cl  0  0  0  0  0  0  0  0  0  0  0  0
   -4.8247    5.2206   -1.5605 C   0  0  0  0  0  0  0  0  0  0  0  0
   -4.1661    4.0770   -1.0961 C   0  0  0  0  0  0  0  0  0  0  0  0
   -3.1713    1.3012   -1.0096 N   0  0  0  0  0  0  0  0  0  0  0  0
   -1.8494    1.0002   -0.6077 C   0  0  0  0  0  0  0  0  0  0  0  0
   -1.0195    0.2053   -1.3697 C   0  0  0  0  0  0  0  0  0  0  0  0
    0.2979   -0.0424   -0.9462 C   0  0  0  0  0  0  0  0  0  0  0  0
    0.8219    0.4741    0.2093 C   0  0  0  0  0  0  0  0  0  0  0  0
    2.1709    0.1600    0.5926 N   0  0  0  0  0  0  0  0  0  0  0  0
    2.6733    0.8055    1.7963 C   0  0  0  0  0  0  0  0  0  0  0  0
    3.0247   -0.7281   -0.1034 C   0  0  0  0  0  0  0  0  0  0  0  0
    4.1699   -0.1789   -0.8674 C   0  0  1  0  0  0  0  0  0  0  0  0
    5.1970    0.5954   -0.1478 C   0  0  0  0  0  0  0  0  0  0  0  0
    6.2110   -0.1905    0.6321 C   0  0  0  0  0  0  0  0  0  0  0  0
    6.7714   -1.3804   -0.0644 C   0  0  2  0  0  0  0  0  0  0  0  0
    8.1855   -1.5289    0.0248 N   0  0  0  0  0  0  0  0  0  0  0  0
    8.8834   -0.4773   -0.6388 C   0  0  0  0  0  0  0  0  0  0  0  0
   10.3862   -0.8257   -0.6777 C   0  0  0  0  0  0  0  0  0  0  0  0
   10.8154   -0.7455    0.7025 N   0  0  0  0  0  0  0  0  0  0  0  0
   12.0761   -0.1209    0.9995 C   0  0  0  0  0  0  0  0  0  0  0  0
    9.9577   -1.2930    1.6959 C   0  0  0  0  0  0  0  0  0  0  0  0
   10.3780   -1.4127    2.8798 O   0  0  0  0  0  0  0  0  0  0  0  0
    8.5937   -1.7247    1.3899 C   0  0  0  0  0  0  0  0  0  0  0  0
    6.3158   -1.3175   -1.5248 C   0  0  0  0  0  0  0  0  0  0  0  0
    4.8189   -1.3837   -1.5760 C   0  0  0  0  0  0  0  0  0  0  0  0
   -0.0015    1.2696    0.9733 C   0  0  0  0  0  0  0  0  0  0  0  0
   -1.3171    1.5157    0.5498 C   0  0  0  0  0  0  0  0  0  0  0  0
   -3.5733    1.0610   -2.3654 C   0  0  0  0  0  0  0  0  0  0  0  0
   -2.7523    1.1604   -3.3121 O   0  0  0  0  0  0  0  0  0  0  0  0
   -4.9956    0.6923   -2.6115 C   0  0  0  0  0  0  0  0  0  0  0  0
   -9.0656   -3.7186   -1.3414 H   0  0  0  0  0  0  0  0  0  0  0  0
   -8.8438   -2.0464   -2.0553 H   0  0  0  0  0  0  0  0  0  0  0  0
   -7.4668   -3.1841   -1.9679 H   0  0  0  0  0  0  0  0  0  0  0  0
   -6.8128   -1.2344   -2.2643 H   0  0  0  0  0  0  0  0  0  0  0  0
   -5.4716    0.6643    2.0389 H   0  0  0  0  0  0  0  0  0  0  0  0
   -8.5960   -2.6418    1.8951 H   0  0  0  0  0  0  0  0  0  0  0  0
   -7.1922   -4.0903    2.9105 H   0  0  0  0  0  0  0  0  0  0  0  0
   -6.5415   -2.8966    4.0575 H   0  0  0  0  0  0  0  0  0  0  0  0
   -8.2294   -3.6162    4.2744 H   0  0  0  0  0  0  0  0  0  0  0  0
   -9.0810   -1.7044    4.6065 H   0  0  0  0  0  0  0  0  0  0  0  0
  -10.2269   -1.9432    3.2625 H   0  0  0  0  0  0  0  0  0  0  0  0
   -9.2859   -0.4072    3.3160 H   0  0  0  0  0  0  0  0  0  0  0  0
   -3.8804    1.9051    0.9342 H   0  0  0  0  0  0  0  0  0  0  0  0
   -6.7961    2.2767   -0.1350 H   0  0  0  0  0  0  0  0  0  0  0  0
   -8.0201    4.2773   -0.9423 H   0  0  0  0  0  0  0  0  0  0  0  0
   -4.2679    6.0556   -1.9658 H   0  0  0  0  0  0  0  0  0  0  0  0
   -3.0917    4.0101   -1.1345 H   0  0  0  0  0  0  0  0  0  0  0  0
   -1.3361   -0.2565   -2.2898 H   0  0  0  0  0  0  0  0  0  0  0  0
    0.9344   -0.6730   -1.5725 H   0  0  0  0  0  0  0  0  0  0  0  0
    1.8884    0.6496    2.5974 H   0  0  0  0  0  0  0  0  0  0  0  0
    2.7486    1.8732    1.6267 H   0  0  0  0  0  0  0  0  0  0  0  0
    3.5860    0.3044    2.1827 H   0  0  0  0  0  0  0  0  0  0  0  0
    3.5083   -1.3797    0.7157 H   0  0  0  0  0  0  0  0  0  0  0  0
    2.4649   -1.5230   -0.6846 H   0  0  0  0  0  0  0  0  0  0  0  0
    3.7889    0.5030   -1.6970 H   0  0  0  0  0  0  0  0  0  0  0  0
    5.7832    1.1614   -0.9497 H   0  0  0  0  0  0  0  0  0  0  0  0
    4.7789    1.4028    0.4703 H   0  0  0  0  0  0  0  0  0  0  0  0
    7.0613    0.5111    0.8621 H   0  0  0  0  0  0  0  0  0  0  0  0
    5.7566   -0.4457    1.6175 H   0  0  0  0  0  0  0  0  0  0  0  0
    6.2605   -2.2969    0.3488 H   0  0  0  0  0  0  0  0  0  0  0  0
    8.7531    0.5282   -0.2400 H   0  0  0  0  0  0  0  0  0  0  0  0
    8.5944   -0.5033   -1.7257 H   0  0  0  0  0  0  0  0  0  0  0  0
   10.4381   -1.8561   -1.0645 H   0  0  0  0  0  0  0  0  0  0  0  0
   10.8757   -0.0692   -1.3252 H   0  0  0  0  0  0  0  0  0  0  0  0
   12.3639    0.5368    0.1668 H   0  0  0  0  0  0  0  0  0  0  0  0
   12.8126   -0.9426    1.1511 H   0  0  0  0  0  0  0  0  0  0  0  0
   12.0409    0.4367    1.9620 H   0  0  0  0  0  0  0  0  0  0  0  0
    8.5490   -2.8333    1.6079 H   0  0  0  0  0  0  0  0  0  0  0  0
    7.9061   -1.2624    2.1299 H   0  0  0  0  0  0  0  0  0  0  0  0
    6.6055   -0.3647   -2.0150 H   0  0  0  0  0  0  0  0  0  0  0  0
    6.6847   -2.2014   -2.1059 H   0  0  0  0  0  0  0  0  0  0  0  0
    4.5170   -2.3471   -1.0661 H   0  0  0  0  0  0  0  0  0  0  0  0
    4.4844   -1.4736   -2.6212 H   0  0  0  0  0  0  0  0  0  0  0  0
    0.3623    1.7104    1.8954 H   0  0  0  0  0  0  0  0  0  0  0  0
   -1.9284    2.1489    1.1745 H   0  0  0  0  0  0  0  0  0  0  0  0
   -5.0886   -0.0574   -3.4287 H   0  0  0  0  0  0  0  0  0  0  0  0
   -5.5488    1.6128   -2.9145 H   0  0  0  0  0  0  0  0  0  0  0  0
  1  2  1  0
  2  3  1  0
  3  4  2  0
  4  5  1  0
  5  6  2  0
  6  7  1  0
  7  8  2  0
  8  9  1  0
  9 10  1  0
 10 11  1  0
 10 12  1  0
  6 13  1  0
 13 14  1  0
 14 15  2  0
 15 16  1  0
 16 17  2  0
 17 18  1  0
 17 19  1  0
 19 20  2  0
 13 21  1  0
 21 22  1  0
 22 23  2  0
 23 24  1  0
 24 25  2  0
 25 26  1  0
 26 27  1  0
 26 28  1  0
 28 29  1  0
 29 30  1  0
 30 31  1  0
 31 32  1  0
 32 33  1  0
 33 34  1  0
 34 35  1  0
 35 36  1  0
 36 37  1  0
 36 38  1  0
 38 39  2  0
 38 40  1  0
 32 41  1  0
 41 42  1  0
 25 43  1  0
 43 44  2  0
 21 45  1  0
 45 46  2  0
 45 47  1  0
  8  3  1  0
 20 14  1  0
 44 22  1  0
 47  5  1  0
 42 29  1  0
 40 33  1  0
  1 48  1  0
  1 49  1  0
  1 50  1  0
  4 51  1  0
  7 52  1  0
 10 53  1  0
 11 54  1  0
 11 55  1  0
 11 56  1  0
 12 57  1  0
 12 58  1  0
 12 59  1  0
 13 60  1  1
 15 61  1  0
 16 62  1  0
 19 63  1  0
 20 64  1  0
 23 65  1  0
 24 66  1  0
 27 67  1  0
 27 68  1  0
 27 69  1  0
 28 70  1  0
 28 71  1  0
 29 72  1  6
 30 73  1  0
 30 74  1  0
 31 75  1  0
 31 76  1  0
 32 77  1  1
 34 78  1  0
 34 79  1  0
 35 80  1  0
 35 81  1  0
 37 82  1  0
 37 83  1  0
 37 84  1  0
 40 85  1  0
 40 86  1  0
 41 87  1  0
 41 88  1  0
 42 89  1  0
 42 90  1  0
 43 91  1  0
 44 92  1  0
 47 93  1  0
 47 94  1  0
M  END
$$$$
