@<TRIPOS>MOLECULE
*****
 94 99 0 0 0
SMALL
GASTEIGER

@<TRIPOS>ATOM
      1 C          -8.3849   -2.8470   -1.4354 C.3     1  UNL1        0.0790
      2 O          -8.0189   -2.3201   -0.1810 O.3     1  UNL1       -0.4914
      3 C          -7.0720   -1.2946   -0.1474 C.ar    1  UNL1        0.1618
      4 C          -6.5146   -0.8163   -1.3209 C.ar    1  UNL1       -0.0123
      5 C          -5.5722    0.2020   -1.3304 C.ar    1  UNL1       -0.0297
      6 C          -5.2332    0.6996   -0.0980 C.ar    1  UNL1       -0.0150
      7 C          -5.7708    0.2427    1.0751 C.ar    1  UNL1       -0.0107
      8 C          -6.7319   -0.7958    1.0905 C.ar    1  UNL1        0.1626
      9 O          -7.2098   -1.1863    2.3057 O.3     1  UNL1       -0.4857
     10 C          -8.1148   -2.1175    2.7338 C.3     1  UNL1        0.0948
     11 C          -7.4672   -3.2270    3.5705 C.3     1  UNL1       -0.0281
     12 C          -9.2478   -1.4766    3.5259 C.3     1  UNL1       -0.0281
     13 C          -4.2030    1.8190   -0.0929 C.3     1  UNL1        0.0815
     14 C          -4.8705    3.0152   -0.5825 C.ar    1  UNL1       -0.0222
     15 C          -6.2419    3.1098   -0.5374 C.ar    1  UNL1       -0.0551
     16 C          -6.9202    4.2195   -0.9851 C.ar    1  UNL1       -0.0431
     17 C          -6.2039    5.2798   -1.4996 C.ar    1  UNL1        0.0410
     18 CL         -7.0763    6.7063   -2.0767 Cl      1  UNL1       -0.0835
     19 C          -4.8247    5.2206   -1.5605 C.ar    1  UNL1       -0.0431
     20 C          -4.1661    4.0770   -1.0961 C.ar    1  UNL1       -0.0551
     21 N          -3.1713    1.3012   -1.0096 N.am    1  UNL1       -0.2596
     22 C          -1.8494    1.0002   -0.6077 C.ar    1  UNL1        0.0374
     23 C          -1.0195    0.2053   -1.3697 C.ar    1  UNL1       -0.0385
     24 C           0.2979   -0.0424   -0.9462 C.ar    1  UNL1       -0.0389
     25 C           0.8219    0.4741    0.2093 C.ar    1  UNL1        0.0296
     26 N           2.1709    0.1600    0.5926 N.pl3   1  UNL1       -0.3327
     27 C           2.6733    0.8055    1.7963 C.3     1  UNL1        0.0007
     28 C           3.0247   -0.7281   -0.1034 C.3     1  UNL1        0.0147
     29 C           4.1699   -0.1789   -0.8674 C.3     1  UNL1       -0.0252
     30 C           5.1970    0.5954   -0.1478 C.3     1  UNL1       -0.0474
     31 C           6.2110   -0.1905    0.6321 C.3     1  UNL1       -0.0370
     32 C           6.7714   -1.3804   -0.0644 C.3     1  UNL1        0.0110
     33 N           8.1855   -1.5289    0.0248 N.3     1  UNL1       -0.2895
     34 C           8.8834   -0.4773   -0.6388 C.3     1  UNL1        0.0155
     35 C          10.3862   -0.8257   -0.6777 C.3     1  UNL1        0.0272
     36 N          10.8154   -0.7455    0.7025 N.am    1  UNL1       -0.3023
     37 C          12.0761   -0.1209    0.9995 C.3     1  UNL1        0.0032
     38 C           9.9577   -1.2930    1.6959 C.2     1  UNL1        0.2295
     39 O          10.3780   -1.4127    2.8798 O.2     1  UNL1       -0.2742
     40 C           8.5937   -1.7247    1.3899 C.3     1  UNL1        0.0762
     41 C           6.3158   -1.3175   -1.5248 C.3     1  UNL1       -0.0370
     42 C           4.8189   -1.3837   -1.5760 C.3     1  UNL1       -0.0474
     43 C          -0.0015    1.2696    0.9733 C.ar    1  UNL1       -0.0389
     44 C          -1.3171    1.5157    0.5498 C.ar    1  UNL1       -0.0385
     45 C          -3.5733    1.0610   -2.3654 C.2     1  UNL1        0.2249
     46 O          -2.7523    1.1604   -3.3121 O.2     1  UNL1       -0.2749
     47 C          -4.9956    0.6923   -2.6115 C.3     1  UNL1        0.0501
     48 H          -9.0656   -3.7186   -1.3414 H       1  UNL1        0.0660
     49 H          -8.8438   -2.0464   -2.0553 H       1  UNL1        0.0660
     50 H          -7.4668   -3.1841   -1.9679 H       1  UNL1        0.0660
     51 H          -6.8128   -1.2344   -2.2643 H       1  UNL1        0.0658
     52 H          -5.4716    0.6643    2.0389 H       1  UNL1        0.0659
     53 H          -8.5960   -2.6418    1.8951 H       1  UNL1        0.0727
     54 H          -7.1922   -4.0903    2.9105 H       1  UNL1        0.0265
     55 H          -6.5415   -2.8966    4.0575 H       1  UNL1        0.0265
     56 H          -8.2294   -3.6162    4.2744 H       1  UNL1        0.0265
     57 H          -9.0810   -1.7044    4.6065 H       1  UNL1        0.0265
     58 H         -10.2269   -1.9432    3.2625 H       1  UNL1        0.0265
     59 H          -9.2859   -0.4072    3.3160 H       1  UNL1        0.0265
     60 H          -3.8804    1.9051    0.9342 H       1  UNL1        0.0604
     61 H          -6.7961    2.2767   -0.1350 H       1  UNL1        0.0621
     62 H          -8.0201    4.2773   -0.9423 H       1  UNL1        0.0632
     63 H          -4.2679    6.0556   -1.9658 H       1  UNL1        0.0632
     64 H          -3.0917    4.0101   -1.1345 H       1  UNL1        0.0621
     65 H          -1.3361   -0.2565   -2.2898 H       1  UNL1        0.0637
     66 H           0.9344   -0.6730   -1.5725 H       1  UNL1        0.0637
     67 H           1.8884    0.6496    2.5974 H       1  UNL1        0.0428
     68 H           2.7486    1.8732    1.6267 H       1  UNL1        0.0428
     69 H           3.5860    0.3044    2.1827 H       1  UNL1        0.0428
     70 H           3.5083   -1.3797    0.7157 H       1  UNL1        0.0466
     71 H           2.4649   -1.5230   -0.6846 H       1  UNL1        0.0466
     72 H           3.7889    0.5030   -1.6970 H       1  UNL1        0.0316
     73 H           5.7832    1.1614   -0.9497 H       1  UNL1        0.0269
     74 H           4.7789    1.4028    0.4703 H       1  UNL1        0.0269
     75 H           7.0613    0.5111    0.8621 H       1  UNL1        0.0280
     76 H           5.7566   -0.4457    1.6175 H       1  UNL1        0.0280
     77 H           6.2605   -2.2969    0.3488 H       1  UNL1        0.0463
     78 H           8.7531    0.5282   -0.2400 H       1  UNL1        0.0442
     79 H           8.5944   -0.5033   -1.7257 H       1  UNL1        0.0442
     80 H          10.4381   -1.8561   -1.0645 H       1  UNL1        0.0477
     81 H          10.8757   -0.0692   -1.3252 H       1  UNL1        0.0477
     82 H          12.3639    0.5368    0.1668 H       1  UNL1        0.0428
     83 H          12.8126   -0.9426    1.1511 H       1  UNL1        0.0428
     84 H          12.0409    0.4367    1.9620 H       1  UNL1        0.0428
     85 H           8.5490   -2.8333    1.6079 H       1  UNL1        0.0522
     86 H           7.9061   -1.2624    2.1299 H       1  UNL1        0.0522
     87 H           6.6055   -0.3647   -2.0150 H       1  UNL1        0.0280
     88 H           6.6847   -2.2014   -2.1059 H       1  UNL1        0.0280
     89 H           4.5170   -2.3471   -1.0661 H       1  UNL1        0.0269
     90 H           4.4844   -1.4736   -2.6212 H       1  UNL1        0.0269
     91 H           0.3623    1.7104    1.8954 H       1  UNL1        0.0637
     92 H          -1.9284    2.1489    1.1745 H       1  UNL1        0.0637
     93 H          -5.0886   -0.0574   -3.4287 H       1  UNL1        0.0407
     94 H          -5.5488    1.6128   -2.9145 H       1  UNL1        0.0407
@<TRIPOS>BOND
     1     1     2    1
     2     2     3    1
     3     3     4   ar
     4     4     5   ar
     5     5     6   ar
     6     6     7   ar
     7     7     8   ar
     8     8     9    1
     9     9    10    1
    10    10    11    1
    11    10    12    1
    12     6    13    1
    13    13    14    1
    14    14    15   ar
    15    15    16   ar
    16    16    17   ar
    17    17    18    1
    18    17    19   ar
    19    19    20   ar
    20    13    21    1
    21    21    22    1
    22    22    23   ar
    23    23    24   ar
    24    24    25   ar
    25    25    26    1
    26    26    27    1
    27    26    28    1
    28    28    29    1
    29    29    30    1
    30    30    31    1
    31    31    32    1
    32    32    33    1
    33    33    34    1
    34    34    35    1
    35    35    36    1
    36    36    37    1
    37    36    38   am
    38    38    39    2
    39    38    40    1
    40    32    41    1
    41    41    42    1
    42    25    43   ar
    43    43    44   ar
    44    21    45   am
    45    45    46    2
    46    45    47    1
    47     8     3   ar
    48    20    14   ar
    49    44    22   ar
    50    47     5    1
    51    42    29    1
    52    40    33    1
    53     1    48    1
    54     1    49    1
    55     1    50    1
    56     4    51    1
    57     7    52    1
    58    10    53    1
    59    11    54    1
    60    11    55    1
    61    11    56    1
    62    12    57    1
    63    12    58    1
    64    12    59    1
    65    13    60    1
    66    15    61    1
    67    16    62    1
    68    19    63    1
    69    20    64    1
    70    23    65    1
    71    24    66    1
    72    27    67    1
    73    27    68    1
    74    27    69    1
    75    28    70    1
    76    28    71    1
    77    29    72    1
    78    30    73    1
    79    30    74    1
    80    31    75    1
    81    31    76    1
    82    32    77    1
    83    34    78    1
    84    34    79    1
    85    35    80    1
    86    35    81    1
    87    37    82    1
    88    37    83    1
    89    37    84    1
    90    40    85    1
    91    40    86    1
    92    41    87    1
    93    41    88    1
    94    42    89    1
    95    42    90    1
    96    43    91    1
    97    44    92    1
    98    47    93    1
    99    47    94    1
